MODEL 1
REMARK VINA RESULT:      -4.4      0.000      0.000
REMARK  7 active torsions:
REMARK  status: ('A' for Active; 'I' for Inactive)
REMARK    1  A    between atoms: C_3  and  C_2 
REMARK    2  A    between atoms: C_4  and  C_2 
REMARK    3  A    between atoms: Se_11  and  C_3 
REMARK    4  A    between atoms: C_5  and  C_4 
REMARK    5  A    between atoms: C_4  and  N_6 
REMARK    6  A    between atoms: O_8  and  C_5 
REMARK    7  A    between atoms: Se_11  and  O_9 
ROOT
HETATM    1  C   UNK N   1      34.195  16.946   8.797  0.00  0.00     0.173 C 
ENDROOT
BRANCH   1   2
HETATM    2  C   UNK N   1      34.986  16.832  10.099  0.00  0.00     0.035 C 
BRANCH   2   3
HETATM    3  C   UNK N   1      35.768  15.526  10.145  0.00  0.00     0.003 C 
BRANCH   3   4
HETATM    4 Se   UNK N   1      34.572  14.017  10.402  0.00  0.00     0.000 Se
HETATM    5  C   UNK N   1      35.530  13.486  12.008  0.00  0.00     0.000 C 
BRANCH   4   6
HETATM    6  O   UNK N   1      33.566  14.958  11.303  0.00  0.00    -0.253 OA
ATOM      7  HO  UNK N   1      32.896  14.285  11.266  1.00  0.00     0.253 HD
ENDBRANCH   4   6
ENDBRANCH   3   4
ENDBRANCH   2   3
ENDBRANCH   1   2
BRANCH   1   8
HETATM    8  C   UNK N   1      34.618  18.148   7.983  0.00  0.00     0.163 C 
HETATM    9  O   UNK N   1      34.394  18.201   6.789  0.00  0.00    -0.648 OA
BRANCH   8  10
HETATM   10  O   UNK N   1      35.270  19.169   8.581  0.00  0.00    -0.775 OA
HETATM   11  H   UNK N   1      35.211  19.349   9.498  0.00  0.00     0.167 HD
ENDBRANCH   8  10
ENDBRANCH   1   8
BRANCH   1  12
HETATM   12  N   UNK N   1      32.778  17.030   9.120  0.00  0.00    -0.418 N 
HETATM   13  H   UNK N   1      32.113  16.263   9.020  0.00  0.00     0.150 HD
HETATM   14  H   UNK N   1      32.425  17.919   9.473  0.00  0.00     0.150 HD
ENDBRANCH   1  12
TORSDOF 7
ENDMDL
MODEL 2
REMARK VINA RESULT:      -4.3      3.723      4.649
REMARK  7 active torsions:
REMARK  status: ('A' for Active; 'I' for Inactive)
REMARK    1  A    between atoms: C_3  and  C_2 
REMARK    2  A    between atoms: C_4  and  C_2 
REMARK    3  A    between atoms: Se_11  and  C_3 
REMARK    4  A    between atoms: C_5  and  C_4 
REMARK    5  A    between atoms: C_4  and  N_6 
REMARK    6  A    between atoms: O_8  and  C_5 
REMARK    7  A    between atoms: Se_11  and  O_9 
ROOT
HETATM    1  C   UNK N   1      33.099  17.818   8.692  0.00  0.00     0.173 C 
ENDROOT
BRANCH   1   2
HETATM    2  C   UNK N   1      31.926  17.424   7.796  0.00  0.00     0.035 C 
BRANCH   2   3
HETATM    3  C   UNK N   1      30.708  17.053   8.632  0.00  0.00     0.003 C 
BRANCH   3   4
HETATM    4 Se   UNK N   1      29.475  18.548   8.754  0.00  0.00     0.000 Se
HETATM    5  C   UNK N   1      27.999  17.346   9.147  0.00  0.00     0.000 C 
BRANCH   4   6
HETATM    6  O   UNK N   1      29.797  18.692  10.362  0.00  0.00    -0.253 OA
ATOM      7  HO  UNK N   1      29.161  18.012  10.555  1.00  0.00     0.253 HD
ENDBRANCH   4   6
ENDBRANCH   3   4
ENDBRANCH   2   3
ENDBRANCH   1   2
BRANCH   1   8
HETATM    8  C   UNK N   1      34.273  18.335   7.891  0.00  0.00     0.163 C 
HETATM    9  O   UNK N   1      35.075  19.102   8.386  0.00  0.00    -0.648 OA
BRANCH   8  10
HETATM   10  O   UNK N   1      34.424  17.958   6.601  0.00  0.00    -0.775 OA
HETATM   11  H   UNK N   1      35.188  18.153   6.096  0.00  0.00     0.167 HD
ENDBRANCH   8  10
ENDBRANCH   1   8
BRANCH   1  12
HETATM   12  N   UNK N   1      33.497  16.656   9.474  0.00  0.00    -0.418 N 
HETATM   13  H   UNK N   1      32.848  16.019   9.938  0.00  0.00     0.150 HD
HETATM   14  H   UNK N   1      34.494  16.463   9.563  0.00  0.00     0.150 HD
ENDBRANCH   1  12
TORSDOF 7
ENDMDL
MODEL 3
REMARK VINA RESULT:      -4.3     12.530     13.675
REMARK  7 active torsions:
REMARK  status: ('A' for Active; 'I' for Inactive)
REMARK    1  A    between atoms: C_3  and  C_2 
REMARK    2  A    between atoms: C_4  and  C_2 
REMARK    3  A    between atoms: Se_11  and  C_3 
REMARK    4  A    between atoms: C_5  and  C_4 
REMARK    5  A    between atoms: C_4  and  N_6 
REMARK    6  A    between atoms: O_8  and  C_5 
REMARK    7  A    between atoms: Se_11  and  O_9 
ROOT
HETATM    1  C   UNK N   1      22.484  12.373  11.286  0.00  0.00     0.173 C 
ENDROOT
BRANCH   1   2
HETATM    2  C   UNK N   1      22.694  11.807   9.882  0.00  0.00     0.035 C 
BRANCH   2   3
HETATM    3  C   UNK N   1      21.718  12.434   8.895  0.00  0.00     0.003 C 
BRANCH   3   4
HETATM    4 Se   UNK N   1      21.212  14.219   9.467  0.00  0.00     0.000 Se
HETATM    5  C   UNK N   1      20.642  14.673   7.664  0.00  0.00     0.000 C 
BRANCH   4   6
HETATM    6  O   UNK N   1      19.696  13.685   9.821  0.00  0.00    -0.253 OA
ATOM      7  HO  UNK N   1      19.508  14.502  10.268  1.00  0.00     0.253 HD
ENDBRANCH   4   6
ENDBRANCH   3   4
ENDBRANCH   2   3
ENDBRANCH   1   2
BRANCH   1   8
HETATM    8  C   UNK N   1      23.696  12.162  12.167  0.00  0.00     0.163 C 
HETATM    9  O   UNK N   1      23.571  11.956  13.358  0.00  0.00    -0.648 OA
BRANCH   8  10
HETATM   10  O   UNK N   1      24.935  12.225  11.630  0.00  0.00    -0.775 OA
HETATM   11  H   UNK N   1      25.639  11.669  11.899  0.00  0.00     0.167 HD
ENDBRANCH   8  10
ENDBRANCH   1   8
BRANCH   1  12
HETATM   12  N   UNK N   1      21.317  11.732  11.875  0.00  0.00    -0.418 N 
HETATM   13  H   UNK N   1      21.091  11.741  12.870  0.00  0.00     0.150 HD
HETATM   14  H   UNK N   1      20.680  11.241  11.249  0.00  0.00     0.150 HD
ENDBRANCH   1  12
TORSDOF 7
ENDMDL
MODEL 4
REMARK VINA RESULT:      -4.2      2.667      3.329
REMARK  7 active torsions:
REMARK  status: ('A' for Active; 'I' for Inactive)
REMARK    1  A    between atoms: C_3  and  C_2 
REMARK    2  A    between atoms: C_4  and  C_2 
REMARK    3  A    between atoms: Se_11  and  C_3 
REMARK    4  A    between atoms: C_5  and  C_4 
REMARK    5  A    between atoms: C_4  and  N_6 
REMARK    6  A    between atoms: O_8  and  C_5 
REMARK    7  A    between atoms: Se_11  and  O_9 
ROOT
HETATM    1  C   UNK N   1      33.980  17.275   9.066  0.00  0.00     0.173 C 
ENDROOT
BRANCH   1   2
HETATM    2  C   UNK N   1      33.788  15.901   8.425  0.00  0.00     0.035 C 
BRANCH   2   3
HETATM    3  C   UNK N   1      35.110  15.147   8.357  0.00  0.00     0.003 C 
BRANCH   3   4
HETATM    4 Se   UNK N   1      35.282  14.212   6.664  0.00  0.00     0.000 Se
HETATM    5  C   UNK N   1      33.387  14.449   6.299  0.00  0.00     0.000 C 
BRANCH   4   6
HETATM    6  O   UNK N   1      35.615  15.635   5.905  0.00  0.00    -0.253 OA
ATOM      7  HO  UNK N   1      35.098  15.361   5.156  1.00  0.00     0.253 HD
ENDBRANCH   4   6
ENDBRANCH   3   4
ENDBRANCH   2   3
ENDBRANCH   1   2
BRANCH   1   8
HETATM    8  C   UNK N   1      34.601  18.264   8.106  0.00  0.00     0.163 C 
HETATM    9  O   UNK N   1      35.275  19.189   8.514  0.00  0.00    -0.648 OA
BRANCH   8  10
HETATM   10  O   UNK N   1      34.389  18.134   6.777  0.00  0.00    -0.775 OA
HETATM   11  H   UNK N   1      34.059  17.351   6.384  0.00  0.00     0.167 HD
ENDBRANCH   8  10
ENDBRANCH   1   8
BRANCH   1  12
HETATM   12  N   UNK N   1      34.820  17.124  10.246  0.00  0.00    -0.418 N 
HETATM   13  H   UNK N   1      35.728  16.659  10.254  0.00  0.00     0.150 HD
HETATM   14  H   UNK N   1      34.477  17.510  11.124  0.00  0.00     0.150 HD
ENDBRANCH   1  12
TORSDOF 7
ENDMDL
MODEL 5
REMARK VINA RESULT:      -4.1     14.299     15.165
REMARK  7 active torsions:
REMARK  status: ('A' for Active; 'I' for Inactive)
REMARK    1  A    between atoms: C_3  and  C_2 
REMARK    2  A    between atoms: C_4  and  C_2 
REMARK    3  A    between atoms: Se_11  and  C_3 
REMARK    4  A    between atoms: C_5  and  C_4 
REMARK    5  A    between atoms: C_4  and  N_6 
REMARK    6  A    between atoms: O_8  and  C_5 
REMARK    7  A    between atoms: Se_11  and  O_9 
ROOT
HETATM    1  C   UNK N   1      20.521  19.079   2.082  0.00  0.00     0.173 C 
ENDROOT
BRANCH   1   2
HETATM    2  C   UNK N   1      21.340  18.902   3.359  0.00  0.00     0.035 C 
BRANCH   2   3
HETATM    3  C   UNK N   1      20.709  17.855   4.267  0.00  0.00     0.003 C 
BRANCH   3   4
HETATM    4 Se   UNK N   1      21.954  17.302   5.650  0.00  0.00     0.000 Se
HETATM    5  C   UNK N   1      23.364  18.385   4.864  0.00  0.00     0.000 C 
BRANCH   4   6
HETATM    6  O   UNK N   1      21.488  18.573   6.587  0.00  0.00    -0.253 OA
ATOM      7  HO  UNK N   1      20.962  17.990   7.123  1.00  0.00     0.253 HD
ENDBRANCH   4   6
ENDBRANCH   3   4
ENDBRANCH   2   3
ENDBRANCH   1   2
BRANCH   1   8
HETATM    8  C   UNK N   1      20.900  20.339   1.337  0.00  0.00     0.163 C 
HETATM    9  O   UNK N   1      21.451  21.259   1.909  0.00  0.00    -0.648 OA
BRANCH   8  10
HETATM   10  O   UNK N   1      20.606  20.457   0.023  0.00  0.00    -0.775 OA
HETATM   11  H   UNK N   1      20.780  19.784  -0.604  0.00  0.00     0.167 HD
ENDBRANCH   8  10
ENDBRANCH   1   8
BRANCH   1  12
HETATM   12  N   UNK N   1      19.109  19.110   2.437  0.00  0.00    -0.418 N 
HETATM   13  H   UNK N   1      18.383  19.568   1.885  0.00  0.00     0.150 HD
HETATM   14  H   UNK N   1      18.826  18.641   3.296  0.00  0.00     0.150 HD
ENDBRANCH   1  12
TORSDOF 7
ENDMDL
MODEL 6
REMARK VINA RESULT:      -4.1      1.734      1.802
REMARK  7 active torsions:
REMARK  status: ('A' for Active; 'I' for Inactive)
REMARK    1  A    between atoms: C_3  and  C_2 
REMARK    2  A    between atoms: C_4  and  C_2 
REMARK    3  A    between atoms: Se_11  and  C_3 
REMARK    4  A    between atoms: C_5  and  C_4 
REMARK    5  A    between atoms: C_4  and  N_6 
REMARK    6  A    between atoms: O_8  and  C_5 
REMARK    7  A    between atoms: Se_11  and  O_9 
ROOT
HETATM    1  C   UNK N   1      33.443  16.666   8.014  0.00  0.00     0.173 C 
ENDROOT
BRANCH   1   2
HETATM    2  C   UNK N   1      34.423  15.657   8.611  0.00  0.00     0.035 C 
BRANCH   2   3
HETATM    3  C   UNK N   1      34.027  15.298  10.037  0.00  0.00     0.003 C 
BRANCH   3   4
HETATM    4 Se   UNK N   1      35.403  15.850  11.292  0.00  0.00     0.000 Se
HETATM    5  C   UNK N   1      36.776  14.981  10.224  0.00  0.00     0.000 C 
BRANCH   4   6
HETATM    6  O   UNK N   1      35.621  17.247  10.450  0.00  0.00    -0.253 OA
ATOM      7  HO  UNK N   1      35.300  16.827   9.660  1.00  0.00     0.253 HD
ENDBRANCH   4   6
ENDBRANCH   3   4
ENDBRANCH   2   3
ENDBRANCH   1   2
BRANCH   1   8
HETATM    8  C   UNK N   1      34.157  17.795   7.304  0.00  0.00     0.163 C 
HETATM    9  O   UNK N   1      34.173  17.856   6.090  0.00  0.00    -0.648 OA
BRANCH   8  10
HETATM   10  O   UNK N   1      34.805  18.738   8.024  0.00  0.00    -0.775 OA
HETATM   11  H   UNK N   1      35.733  18.858   7.996  0.00  0.00     0.167 HD
ENDBRANCH   8  10
ENDBRANCH   1   8
BRANCH   1  12
HETATM   12  N   UNK N   1      32.610  17.194   9.086  0.00  0.00    -0.418 N 
HETATM   13  H   UNK N   1      31.747  17.720   8.944  0.00  0.00     0.150 HD
HETATM   14  H   UNK N   1      32.909  17.025  10.045  0.00  0.00     0.150 HD
ENDBRANCH   1  12
TORSDOF 7
ENDMDL
MODEL 7
REMARK VINA RESULT:      -4.0     15.085     15.585
REMARK  7 active torsions:
REMARK  status: ('A' for Active; 'I' for Inactive)
REMARK    1  A    between atoms: C_3  and  C_2 
REMARK    2  A    between atoms: C_4  and  C_2 
REMARK    3  A    between atoms: Se_11  and  C_3 
REMARK    4  A    between atoms: C_5  and  C_4 
REMARK    5  A    between atoms: C_4  and  N_6 
REMARK    6  A    between atoms: O_8  and  C_5 
REMARK    7  A    between atoms: Se_11  and  O_9 
ROOT
HETATM    1  C   UNK N   1      20.507  19.103   2.029  0.00  0.00     0.173 C 
ENDROOT
BRANCH   1   2
HETATM    2  C   UNK N   1      21.264  18.401   3.154  0.00  0.00     0.035 C 
BRANCH   2   3
HETATM    3  C   UNK N   1      21.253  16.891   2.954  0.00  0.00     0.003 C 
BRANCH   3   4
HETATM    4 Se   UNK N   1      20.382  16.006   4.448  0.00  0.00     0.000 Se
HETATM    5  C   UNK N   1      20.908  17.440   5.651  0.00  0.00     0.000 C 
BRANCH   4   6
HETATM    6  O   UNK N   1      18.979  16.795   4.106  0.00  0.00    -0.253 OA
ATOM      7  HO  UNK N   1      19.471  17.530   3.760  1.00  0.00     0.253 HD
ENDBRANCH   4   6
ENDBRANCH   3   4
ENDBRANCH   2   3
ENDBRANCH   1   2
BRANCH   1   8
HETATM    8  C   UNK N   1      21.127  20.436   1.676  0.00  0.00     0.163 C 
HETATM    9  O   UNK N   1      21.340  20.737   0.518  0.00  0.00    -0.648 OA
BRANCH   8  10
HETATM   10  O   UNK N   1      21.469  21.299   2.659  0.00  0.00    -0.775 OA
HETATM   11  H   UNK N   1      21.825  21.026   3.481  0.00  0.00     0.167 HD
ENDBRANCH   8  10
ENDBRANCH   1   8
BRANCH   1  12
HETATM   12  N   UNK N   1      19.123  19.286   2.445  0.00  0.00    -0.418 N 
HETATM   13  H   UNK N   1      18.834  19.672   3.344  0.00  0.00     0.150 HD
HETATM   14  H   UNK N   1      18.391  19.011   1.791  0.00  0.00     0.150 HD
ENDBRANCH   1  12
TORSDOF 7
ENDMDL
MODEL 8
REMARK VINA RESULT:      -4.0      2.703      4.164
REMARK  7 active torsions:
REMARK  status: ('A' for Active; 'I' for Inactive)
REMARK    1  A    between atoms: C_3  and  C_2 
REMARK    2  A    between atoms: C_4  and  C_2 
REMARK    3  A    between atoms: Se_11  and  C_3 
REMARK    4  A    between atoms: C_5  and  C_4 
REMARK    5  A    between atoms: C_4  and  N_6 
REMARK    6  A    between atoms: O_8  and  C_5 
REMARK    7  A    between atoms: Se_11  and  O_9 
ROOT
HETATM    1  C   UNK N   1      34.909  15.256   9.835  0.00  0.00     0.173 C 
ENDROOT
BRANCH   1   2
HETATM    2  C   UNK N   1      33.735  15.805   9.027  0.00  0.00     0.035 C 
BRANCH   2   3
HETATM    3  C   UNK N   1      34.073  15.850   7.543  0.00  0.00     0.003 C 
BRANCH   3   4
HETATM    4 Se   UNK N   1      33.494  17.528   6.755  0.00  0.00     0.000 Se
HETATM    5  C   UNK N   1      32.333  17.881   8.275  0.00  0.00     0.000 C 
BRANCH   4   6
HETATM    6  O   UNK N   1      34.730  18.315   7.506  0.00  0.00    -0.253 OA
ATOM      7  HO  UNK N   1      35.355  17.897   6.925  1.00  0.00     0.253 HD
ENDBRANCH   4   6
ENDBRANCH   3   4
ENDBRANCH   2   3
ENDBRANCH   1   2
BRANCH   1   8
HETATM    8  C   UNK N   1      35.774  16.361  10.398  0.00  0.00     0.163 C 
HETATM    9  O   UNK N   1      35.429  17.524  10.316  0.00  0.00    -0.648 OA
BRANCH   8  10
HETATM   10  O   UNK N   1      36.955  16.059  10.981  0.00  0.00    -0.775 OA
HETATM   11  H   UNK N   1      37.096  16.099  11.906  0.00  0.00     0.167 HD
ENDBRANCH   8  10
ENDBRANCH   1   8
BRANCH   1  12
HETATM   12  N   UNK N   1      35.700  14.388   8.973  0.00  0.00    -0.418 N 
HETATM   13  H   UNK N   1      35.793  14.503   7.964  0.00  0.00     0.150 HD
HETATM   14  H   UNK N   1      36.198  13.613   9.409  0.00  0.00     0.150 HD
ENDBRANCH   1  12
TORSDOF 7
ENDMDL
MODEL 9
REMARK VINA RESULT:      -3.8      2.735      3.503
REMARK  7 active torsions:
REMARK  status: ('A' for Active; 'I' for Inactive)
REMARK    1  A    between atoms: C_3  and  C_2 
REMARK    2  A    between atoms: C_4  and  C_2 
REMARK    3  A    between atoms: Se_11  and  C_3 
REMARK    4  A    between atoms: C_5  and  C_4 
REMARK    5  A    between atoms: C_4  and  N_6 
REMARK    6  A    between atoms: O_8  and  C_5 
REMARK    7  A    between atoms: Se_11  and  O_9 
ROOT
HETATM    1  C   UNK N   1      34.944  14.980  10.311  0.00  0.00     0.173 C 
ENDROOT
BRANCH   1   2
HETATM    2  C   UNK N   1      35.593  13.711  10.861  0.00  0.00     0.035 C 
BRANCH   2   3
HETATM    3  C   UNK N   1      34.991  13.337  12.209  0.00  0.00     0.003 C 
BRANCH   3   4
HETATM    4 Se   UNK N   1      36.092  14.003  13.663  0.00  0.00     0.000 Se
HETATM    5  C   UNK N   1      35.425  12.616  14.852  0.00  0.00     0.000 C 
BRANCH   4   6
HETATM    6  O   UNK N   1      37.324  13.018  13.191  0.00  0.00    -0.253 OA
ATOM      7  HO  UNK N   1      37.465  13.556  12.421  1.00  0.00     0.253 HD
ENDBRANCH   4   6
ENDBRANCH   3   4
ENDBRANCH   2   3
ENDBRANCH   1   2
BRANCH   1   8
HETATM    8  C   UNK N   1      35.812  16.199  10.531  0.00  0.00     0.163 C 
HETATM    9  O   UNK N   1      35.364  17.319  10.376  0.00  0.00    -0.648 OA
BRANCH   8  10
HETATM   10  O   UNK N   1      37.107  16.046  10.885  0.00  0.00    -0.775 OA
HETATM   11  H   UNK N   1      37.380  15.821  11.752  0.00  0.00     0.167 HD
ENDBRANCH   8  10
ENDBRANCH   1   8
BRANCH   1  12
HETATM   12  N   UNK N   1      33.652  15.159  10.960  0.00  0.00    -0.418 N 
HETATM   13  H   UNK N   1      33.519  15.273  11.965  0.00  0.00     0.150 HD
HETATM   14  H   UNK N   1      32.823  15.174  10.367  0.00  0.00     0.150 HD
ENDBRANCH   1  12
TORSDOF 7
ENDMDL
