MODEL 1
REMARK VINA RESULT:      -4.8      0.000      0.000
REMARK  13 active torsions:
REMARK  status: ('A' for Active; 'I' for Inactive)
REMARK    1  A    between atoms: C_2  and  C_1 
REMARK    2  A    between atoms: C_8  and  C_1 
REMARK    3  A    between atoms: C_9  and  C_2 
REMARK    4  A    between atoms: C_4  and  C_3 
REMARK    5  A    between atoms: C_7  and  C_3 
REMARK    6  A    between atoms: N_11  and  C_4 
REMARK    7  A    between atoms: C_7  and  C_5 
REMARK    8  A    between atoms: C_10  and  C_5 
REMARK    9  A    between atoms: C_8  and  C_6 
REMARK   10  A    between atoms: N_12  and  C_6 
REMARK   11  A    between atoms: C_8  and  C_7 
REMARK   12  A    between atoms: O_14  and  C_9 
REMARK   13  A    between atoms: O_16  and  C_10 
ROOT
HETATM    1  C   UNK N   1      33.113  17.087   6.968  0.00  0.00     0.002 C 
ENDROOT
BRANCH   1   2
HETATM    2  C   UNK N   1      33.050  17.353   5.458  0.00  0.00     0.024 C 
BRANCH   2   3
HETATM    3  C   UNK N   1      31.816  16.767   4.787  0.00  0.00     0.111 C 
BRANCH   3   4
HETATM    4  N   UNK N   1      31.054  17.834   4.166  0.00  0.00    -0.430 N 
HETATM    5  H   UNK N   1      31.483  18.640   3.711  0.00  0.00     0.149 HD
HETATM    6  H   UNK N   1      30.036  17.775   4.186  0.00  0.00     0.149 HD
ENDBRANCH   3   4
ENDBRANCH   2   3
ENDBRANCH   1   2
BRANCH   1   7
HETATM    7  C   UNK N   1      33.467  18.411   7.670  0.00  0.00     0.115 C 
BRANCH   7   8
HETATM    8  C   UNK N   1      34.620  18.319   8.627  0.00  0.00     0.139 C 
HETATM    9  O   UNK N   1      34.714  17.379   9.398  0.00  0.00    -0.650 OA
BRANCH   8  10
HETATM   10  O   UNK N   1      35.537  19.303   8.660  0.00  0.00    -0.776 OA
HETATM   11  H   UNK N   1      36.141  19.388   9.372  0.00  0.00     0.167 HD
ENDBRANCH   8  10
ENDBRANCH   7   8
ENDBRANCH   1   7
BRANCH   1  12
HETATM   12  C   UNK N   1      31.791  16.482   7.532  0.00  0.00     0.008 C 
BRANCH  12  13
HETATM   13  C   UNK N   1      30.981  17.511   8.329  0.00  0.00     0.017 C 
BRANCH  13  14
HETATM   14  C   UNK N   1      29.483  17.450   8.049  0.00  0.00     0.110 C 
BRANCH  14  15
HETATM   15  C   UNK N   1      28.724  17.468   9.332  0.00  0.00     0.139 C 
HETATM   16  O   UNK N   1      29.182  16.923  10.323  0.00  0.00    -0.650 OA
BRANCH  15  17
HETATM   17  O   UNK N   1      27.534  18.093   9.400  0.00  0.00    -0.776 OA
HETATM   18  H   UNK N   1      26.764  17.610   9.631  0.00  0.00     0.167 HD
ENDBRANCH  15  17
ENDBRANCH  14  15
ENDBRANCH  13  14
ENDBRANCH  12  13
BRANCH  12  19
HETATM   19  C   UNK N   1      32.019  15.262   8.437  0.00  0.00     0.116 C 
BRANCH  19  20
HETATM   20  N   UNK N   1      32.069  15.639   9.841  0.00  0.00    -0.430 N 
HETATM   21  H   UNK N   1      31.294  15.407  10.459  0.00  0.00     0.149 HD
HETATM   22  H   UNK N   1      32.882  16.137  10.206  0.00  0.00     0.149 HD
ENDBRANCH  19  20
ENDBRANCH  12  19
ENDBRANCH   1  12
TORSDOF 13
ENDMDL
MODEL 2
REMARK VINA RESULT:      -4.8      0.855      2.924
REMARK  13 active torsions:
REMARK  status: ('A' for Active; 'I' for Inactive)
REMARK    1  A    between atoms: C_2  and  C_1 
REMARK    2  A    between atoms: C_8  and  C_1 
REMARK    3  A    between atoms: C_9  and  C_2 
REMARK    4  A    between atoms: C_4  and  C_3 
REMARK    5  A    between atoms: C_7  and  C_3 
REMARK    6  A    between atoms: N_11  and  C_4 
REMARK    7  A    between atoms: C_7  and  C_5 
REMARK    8  A    between atoms: C_10  and  C_5 
REMARK    9  A    between atoms: C_8  and  C_6 
REMARK   10  A    between atoms: N_12  and  C_6 
REMARK   11  A    between atoms: C_8  and  C_7 
REMARK   12  A    between atoms: O_14  and  C_9 
REMARK   13  A    between atoms: O_16  and  C_10 
ROOT
HETATM    1  C   UNK N   1      32.355  16.795   7.628  0.00  0.00     0.002 C 
ENDROOT
BRANCH   1   2
HETATM    2  C   UNK N   1      32.436  15.267   7.513  0.00  0.00     0.024 C 
BRANCH   2   3
HETATM    3  C   UNK N   1      32.521  14.559   8.857  0.00  0.00     0.111 C 
BRANCH   3   4
HETATM    4  N   UNK N   1      31.910  15.391   9.877  0.00  0.00    -0.430 N 
HETATM    5  H   UNK N   1      32.276  16.301  10.155  0.00  0.00     0.149 HD
HETATM    6  H   UNK N   1      31.069  15.047  10.341  0.00  0.00     0.149 HD
ENDBRANCH   3   4
ENDBRANCH   2   3
ENDBRANCH   1   2
BRANCH   1   7
HETATM    7  C   UNK N   1      33.750  17.370   7.322  0.00  0.00     0.115 C 
BRANCH   7   8
HETATM    8  C   UNK N   1      34.428  18.017   8.495  0.00  0.00     0.139 C 
HETATM    9  O   UNK N   1      35.055  19.053   8.357  0.00  0.00    -0.650 OA
BRANCH   8  10
HETATM   10  O   UNK N   1      34.373  17.426   9.703  0.00  0.00    -0.776 OA
HETATM   11  H   UNK N   1      35.150  17.223  10.186  0.00  0.00     0.167 HD
ENDBRANCH   8  10
ENDBRANCH   7   8
ENDBRANCH   1   7
BRANCH   1  12
HETATM   12  C   UNK N   1      31.270  17.416   6.695  0.00  0.00     0.008 C 
BRANCH  12  13
HETATM   13  C   UNK N   1      29.871  17.353   7.319  0.00  0.00     0.017 C 
BRANCH  13  14
HETATM   14  C   UNK N   1      29.699  18.283   8.516  0.00  0.00     0.110 C 
BRANCH  14  15
HETATM   15  C   UNK N   1      28.762  17.675   9.503  0.00  0.00     0.139 C 
HETATM   16  O   UNK N   1      29.182  16.909  10.355  0.00  0.00    -0.650 OA
BRANCH  15  17
HETATM   17  O   UNK N   1      27.451  17.976   9.459  0.00  0.00    -0.776 OA
HETATM   18  H   UNK N   1      26.905  17.800  10.200  0.00  0.00     0.167 HD
ENDBRANCH  15  17
ENDBRANCH  14  15
ENDBRANCH  13  14
ENDBRANCH  12  13
BRANCH  12  19
HETATM   19  C   UNK N   1      31.199  16.745   5.316  0.00  0.00     0.116 C 
BRANCH  19  20
HETATM   20  N   UNK N   1      31.270  17.722   4.241  0.00  0.00    -0.430 N 
HETATM   21  H   UNK N   1      30.717  18.577   4.292  0.00  0.00     0.149 HD
HETATM   22  H   UNK N   1      31.873  17.552   3.436  0.00  0.00     0.149 HD
ENDBRANCH  19  20
ENDBRANCH  12  19
ENDBRANCH   1  12
TORSDOF 13
ENDMDL
MODEL 3
REMARK VINA RESULT:      -4.7      1.466      4.784
REMARK  13 active torsions:
REMARK  status: ('A' for Active; 'I' for Inactive)
REMARK    1  A    between atoms: C_2  and  C_1 
REMARK    2  A    between atoms: C_8  and  C_1 
REMARK    3  A    between atoms: C_9  and  C_2 
REMARK    4  A    between atoms: C_4  and  C_3 
REMARK    5  A    between atoms: C_7  and  C_3 
REMARK    6  A    between atoms: N_11  and  C_4 
REMARK    7  A    between atoms: C_7  and  C_5 
REMARK    8  A    between atoms: C_10  and  C_5 
REMARK    9  A    between atoms: C_8  and  C_6 
REMARK   10  A    between atoms: N_12  and  C_6 
REMARK   11  A    between atoms: C_8  and  C_7 
REMARK   12  A    between atoms: O_14  and  C_9 
REMARK   13  A    between atoms: O_16  and  C_10 
ROOT
HETATM    1  C   UNK N   1      30.202  17.037   7.206  0.00  0.00     0.002 C 
ENDROOT
BRANCH   1   2
HETATM    2  C   UNK N   1      30.537  15.839   6.308  0.00  0.00     0.024 C 
BRANCH   2   3
HETATM    3  C   UNK N   1      31.348  16.211   5.074  0.00  0.00     0.111 C 
BRANCH   3   4
HETATM    4  N   UNK N   1      32.761  16.057   5.364  0.00  0.00    -0.430 N 
HETATM    5  H   UNK N   1      33.134  15.335   5.981  0.00  0.00     0.149 HD
HETATM    6  H   UNK N   1      33.417  16.705   4.928  0.00  0.00     0.149 HD
ENDBRANCH   3   4
ENDBRANCH   2   3
ENDBRANCH   1   2
BRANCH   1   7
HETATM    7  C   UNK N   1      28.687  17.014   7.484  0.00  0.00     0.115 C 
BRANCH   7   8
HETATM    8  C   UNK N   1      28.155  18.256   8.136  0.00  0.00     0.139 C 
HETATM    9  O   UNK N   1      28.324  19.349   7.622  0.00  0.00    -0.650 OA
BRANCH   8  10
HETATM   10  O   UNK N   1      27.517  18.167   9.317  0.00  0.00    -0.776 OA
HETATM   11  H   UNK N   1      26.932  18.836   9.611  0.00  0.00     0.167 HD
ENDBRANCH   8  10
ENDBRANCH   7   8
ENDBRANCH   1   7
BRANCH   1  12
HETATM   12  C   UNK N   1      31.021  17.049   8.532  0.00  0.00     0.008 C 
BRANCH  12  13
HETATM   13  C   UNK N   1      32.098  18.139   8.534  0.00  0.00     0.017 C 
BRANCH  13  14
HETATM   14  C   UNK N   1      33.502  17.604   8.800  0.00  0.00     0.110 C 
BRANCH  14  15
HETATM   15  C   UNK N   1      34.489  18.311   7.936  0.00  0.00     0.139 C 
HETATM   16  O   UNK N   1      35.255  19.127   8.422  0.00  0.00    -0.650 OA
BRANCH  15  17
HETATM   17  O   UNK N   1      34.541  18.044   6.618  0.00  0.00    -0.776 OA
HETATM   18  H   UNK N   1      35.282  18.317   6.114  0.00  0.00     0.167 HD
ENDBRANCH  15  17
ENDBRANCH  14  15
ENDBRANCH  13  14
ENDBRANCH  12  13
BRANCH  12  19
HETATM   19  C   UNK N   1      31.709  15.709   8.832  0.00  0.00     0.116 C 
BRANCH  19  20
HETATM   20  N   UNK N   1      31.508  15.302  10.214  0.00  0.00    -0.430 N 
HETATM   21  H   UNK N   1      31.821  14.383  10.525  0.00  0.00     0.149 HD
HETATM   22  H   UNK N   1      31.053  15.936  10.872  0.00  0.00     0.149 HD
ENDBRANCH  19  20
ENDBRANCH  12  19
ENDBRANCH   1  12
TORSDOF 13
ENDMDL
MODEL 4
REMARK VINA RESULT:      -4.7      1.697      4.584
REMARK  13 active torsions:
REMARK  status: ('A' for Active; 'I' for Inactive)
REMARK    1  A    between atoms: C_2  and  C_1 
REMARK    2  A    between atoms: C_8  and  C_1 
REMARK    3  A    between atoms: C_9  and  C_2 
REMARK    4  A    between atoms: C_4  and  C_3 
REMARK    5  A    between atoms: C_7  and  C_3 
REMARK    6  A    between atoms: N_11  and  C_4 
REMARK    7  A    between atoms: C_7  and  C_5 
REMARK    8  A    between atoms: C_10  and  C_5 
REMARK    9  A    between atoms: C_8  and  C_6 
REMARK   10  A    between atoms: N_12  and  C_6 
REMARK   11  A    between atoms: C_8  and  C_7 
REMARK   12  A    between atoms: O_14  and  C_9 
REMARK   13  A    between atoms: O_16  and  C_10 
ROOT
HETATM    1  C   UNK N   1      30.544  17.276   7.323  0.00  0.00     0.002 C 
ENDROOT
BRANCH   1   2
HETATM    2  C   UNK N   1      30.523  17.321   5.789  0.00  0.00     0.024 C 
BRANCH   2   3
HETATM    3  C   UNK N   1      29.124  17.239   5.196  0.00  0.00     0.111 C 
BRANCH   3   4
HETATM    4  N   UNK N   1      29.143  17.769   3.845  0.00  0.00    -0.430 N 
HETATM    5  H   UNK N   1      29.930  18.290   3.456  0.00  0.00     0.149 HD
HETATM    6  H   UNK N   1      28.328  17.613   3.253  0.00  0.00     0.149 HD
ENDBRANCH   3   4
ENDBRANCH   2   3
ENDBRANCH   1   2
BRANCH   1   7
HETATM    7  C   UNK N   1      29.086  17.208   7.816  0.00  0.00     0.115 C 
BRANCH   7   8
HETATM    8  C   UNK N   1      28.786  18.088   8.994  0.00  0.00     0.139 C 
HETATM    9  O   UNK N   1      29.689  18.604   9.630  0.00  0.00    -0.650 OA
BRANCH   8  10
HETATM   10  O   UNK N   1      27.509  18.278   9.374  0.00  0.00    -0.776 OA
HETATM   11  H   UNK N   1      26.918  18.799   8.867  0.00  0.00     0.167 HD
ENDBRANCH   8  10
ENDBRANCH   7   8
ENDBRANCH   1   7
BRANCH   1  12
HETATM   12  C   UNK N   1      31.388  16.091   7.884  0.00  0.00     0.008 C 
BRANCH  12  13
HETATM   13  C   UNK N   1      32.671  16.573   8.569  0.00  0.00     0.017 C 
BRANCH  13  14
HETATM   14  C   UNK N   1      32.901  18.076   8.438  0.00  0.00     0.110 C 
BRANCH  14  15
HETATM   15  C   UNK N   1      34.227  18.336   7.811  0.00  0.00     0.139 C 
HETATM   16  O   UNK N   1      35.027  19.081   8.353  0.00  0.00    -0.650 OA
BRANCH  15  17
HETATM   17  O   UNK N   1      34.548  17.742   6.646  0.00  0.00    -0.776 OA
HETATM   18  H   UNK N   1      34.778  16.833   6.632  0.00  0.00     0.167 HD
ENDBRANCH  15  17
ENDBRANCH  14  15
ENDBRANCH  13  14
ENDBRANCH  12  13
BRANCH  12  19
HETATM   19  C   UNK N   1      31.785  15.068   6.811  0.00  0.00     0.116 C 
BRANCH  19  20
HETATM   20  N   UNK N   1      33.230  14.953   6.689  0.00  0.00    -0.430 N 
HETATM   21  H   UNK N   1      33.812  14.927   7.525  0.00  0.00     0.149 HD
HETATM   22  H   UNK N   1      33.661  14.900   5.765  0.00  0.00     0.149 HD
ENDBRANCH  19  20
ENDBRANCH  12  19
ENDBRANCH   1  12
TORSDOF 13
ENDMDL
MODEL 5
REMARK VINA RESULT:      -4.5      3.082      3.884
REMARK  13 active torsions:
REMARK  status: ('A' for Active; 'I' for Inactive)
REMARK    1  A    between atoms: C_2  and  C_1 
REMARK    2  A    between atoms: C_8  and  C_1 
REMARK    3  A    between atoms: C_9  and  C_2 
REMARK    4  A    between atoms: C_4  and  C_3 
REMARK    5  A    between atoms: C_7  and  C_3 
REMARK    6  A    between atoms: N_11  and  C_4 
REMARK    7  A    between atoms: C_7  and  C_5 
REMARK    8  A    between atoms: C_10  and  C_5 
REMARK    9  A    between atoms: C_8  and  C_6 
REMARK   10  A    between atoms: N_12  and  C_6 
REMARK   11  A    between atoms: C_8  and  C_7 
REMARK   12  A    between atoms: O_14  and  C_9 
REMARK   13  A    between atoms: O_16  and  C_10 
ROOT
HETATM    1  C   UNK N   1      30.539  17.370   6.414  0.00  0.00     0.002 C 
ENDROOT
BRANCH   1   2
HETATM    2  C   UNK N   1      31.561  16.608   5.561  0.00  0.00     0.024 C 
BRANCH   2   3
HETATM    3  C   UNK N   1      32.262  17.480   4.528  0.00  0.00     0.111 C 
BRANCH   3   4
HETATM    4  N   UNK N   1      31.601  17.330   3.245  0.00  0.00    -0.430 N 
HETATM    5  H   UNK N   1      31.350  18.118   2.647  0.00  0.00     0.149 HD
HETATM    6  H   UNK N   1      31.376  16.389   2.924  0.00  0.00     0.149 HD
ENDBRANCH   3   4
ENDBRANCH   2   3
ENDBRANCH   1   2
BRANCH   1   7
HETATM    7  C   UNK N   1      29.132  17.027   5.891  0.00  0.00     0.115 C 
BRANCH   7   8
HETATM    8  C   UNK N   1      28.490  18.111   5.074  0.00  0.00     0.139 C 
HETATM    9  O   UNK N   1      27.808  18.969   5.608  0.00  0.00    -0.650 OA
BRANCH   8  10
HETATM   10  O   UNK N   1      28.638  18.113   3.737  0.00  0.00    -0.776 OA
HETATM   11  H   UNK N   1      28.711  18.911   3.252  0.00  0.00     0.167 HD
ENDBRANCH   8  10
ENDBRANCH   7   8
ENDBRANCH   1   7
BRANCH   1  12
HETATM   12  C   UNK N   1      30.668  17.058   7.937  0.00  0.00     0.008 C 
BRANCH  12  13
HETATM   13  C   UNK N   1      30.580  18.326   8.793  0.00  0.00     0.017 C 
BRANCH  13  14
HETATM   14  C   UNK N   1      29.517  18.246   9.885  0.00  0.00     0.110 C 
BRANCH  14  15
HETATM   15  C   UNK N   1      28.173  18.046   9.274  0.00  0.00     0.139 C 
HETATM   16  O   UNK N   1      27.569  17.001   9.450  0.00  0.00    -0.650 OA
BRANCH  15  17
HETATM   17  O   UNK N   1      27.620  19.023   8.532  0.00  0.00    -0.776 OA
HETATM   18  H   UNK N   1      27.399  18.863   7.635  0.00  0.00     0.167 HD
ENDBRANCH  15  17
ENDBRANCH  14  15
ENDBRANCH  13  14
ENDBRANCH  12  13
BRANCH  12  19
HETATM   19  C   UNK N   1      31.975  16.338   8.300  0.00  0.00     0.116 C 
BRANCH  19  20
HETATM   20  N   UNK N   1      32.883  17.210   9.028  0.00  0.00    -0.430 N 
HETATM   21  H   UNK N   1      32.918  17.174  10.046  0.00  0.00     0.149 HD
HETATM   22  H   UNK N   1      33.484  17.858   8.519  0.00  0.00     0.149 HD
ENDBRANCH  19  20
ENDBRANCH  12  19
ENDBRANCH   1  12
TORSDOF 13
ENDMDL
MODEL 6
REMARK VINA RESULT:      -4.4      2.285      4.831
REMARK  13 active torsions:
REMARK  status: ('A' for Active; 'I' for Inactive)
REMARK    1  A    between atoms: C_2  and  C_1 
REMARK    2  A    between atoms: C_8  and  C_1 
REMARK    3  A    between atoms: C_9  and  C_2 
REMARK    4  A    between atoms: C_4  and  C_3 
REMARK    5  A    between atoms: C_7  and  C_3 
REMARK    6  A    between atoms: N_11  and  C_4 
REMARK    7  A    between atoms: C_7  and  C_5 
REMARK    8  A    between atoms: C_10  and  C_5 
REMARK    9  A    between atoms: C_8  and  C_6 
REMARK   10  A    between atoms: N_12  and  C_6 
REMARK   11  A    between atoms: C_8  and  C_7 
REMARK   12  A    between atoms: O_14  and  C_9 
REMARK   13  A    between atoms: O_16  and  C_10 
ROOT
HETATM    1  C   UNK N   1      30.966  17.263   6.503  0.00  0.00     0.002 C 
ENDROOT
BRANCH   1   2
HETATM    2  C   UNK N   1      31.523  15.985   5.863  0.00  0.00     0.024 C 
BRANCH   2   3
HETATM    3  C   UNK N   1      32.253  16.231   4.550  0.00  0.00     0.111 C 
BRANCH   3   4
HETATM    4  N   UNK N   1      32.383  17.660   4.332  0.00  0.00    -0.430 N 
HETATM    5  H   UNK N   1      33.281  18.134   4.234  0.00  0.00     0.149 HD
HETATM    6  H   UNK N   1      31.532  18.219   4.274  0.00  0.00     0.149 HD
ENDBRANCH   3   4
ENDBRANCH   2   3
ENDBRANCH   1   2
BRANCH   1   7
HETATM    7  C   UNK N   1      29.429  17.194   6.444  0.00  0.00     0.115 C 
BRANCH   7   8
HETATM    8  C   UNK N   1      28.796  18.184   5.511  0.00  0.00     0.139 C 
HETATM    9  O   UNK N   1      27.803  18.807   5.845  0.00  0.00    -0.650 OA
BRANCH   8  10
HETATM   10  O   UNK N   1      29.309  18.359   4.279  0.00  0.00    -0.776 OA
HETATM   11  H   UNK N   1      28.865  18.052   3.514  0.00  0.00     0.167 HD
ENDBRANCH   8  10
ENDBRANCH   7   8
ENDBRANCH   1   7
BRANCH   1  12
HETATM   12  C   UNK N   1      31.468  17.477   7.964  0.00  0.00     0.008 C 
BRANCH  12  13
HETATM   13  C   UNK N   1      32.643  16.556   8.310  0.00  0.00     0.017 C 
BRANCH  13  14
HETATM   14  C   UNK N   1      33.806  17.282   8.979  0.00  0.00     0.110 C 
BRANCH  14  15
HETATM   15  C   UNK N   1      34.477  18.181   7.998  0.00  0.00     0.139 C 
HETATM   16  O   UNK N   1      35.023  19.204   8.378  0.00  0.00    -0.650 OA
BRANCH  15  17
HETATM   17  O   UNK N   1      34.487  17.861   6.691  0.00  0.00    -0.776 OA
HETATM   18  H   UNK N   1      33.945  18.333   6.089  0.00  0.00     0.167 HD
ENDBRANCH  15  17
ENDBRANCH  14  15
ENDBRANCH  13  14
ENDBRANCH  12  13
BRANCH  12  19
HETATM   19  C   UNK N   1      30.375  17.257   9.020  0.00  0.00     0.116 C 
BRANCH  19  20
HETATM   20  N   UNK N   1      30.104  18.473   9.772  0.00  0.00    -0.430 N 
HETATM   21  H   UNK N   1      29.324  19.073   9.507  0.00  0.00     0.149 HD
HETATM   22  H   UNK N   1      30.696  18.724  10.564  0.00  0.00     0.149 HD
ENDBRANCH  19  20
ENDBRANCH  12  19
ENDBRANCH   1  12
TORSDOF 13
ENDMDL
MODEL 7
REMARK VINA RESULT:      -4.4      3.023      5.139
REMARK  13 active torsions:
REMARK  status: ('A' for Active; 'I' for Inactive)
REMARK    1  A    between atoms: C_2  and  C_1 
REMARK    2  A    between atoms: C_8  and  C_1 
REMARK    3  A    between atoms: C_9  and  C_2 
REMARK    4  A    between atoms: C_4  and  C_3 
REMARK    5  A    between atoms: C_7  and  C_3 
REMARK    6  A    between atoms: N_11  and  C_4 
REMARK    7  A    between atoms: C_7  and  C_5 
REMARK    8  A    between atoms: C_10  and  C_5 
REMARK    9  A    between atoms: C_8  and  C_6 
REMARK   10  A    between atoms: N_12  and  C_6 
REMARK   11  A    between atoms: C_8  and  C_7 
REMARK   12  A    between atoms: O_14  and  C_9 
REMARK   13  A    between atoms: O_16  and  C_10 
ROOT
HETATM    1  C   UNK N   1      32.131  17.484   7.530  0.00  0.00     0.002 C 
ENDROOT
BRANCH   1   2
HETATM    2  C   UNK N   1      30.994  17.322   8.548  0.00  0.00     0.024 C 
BRANCH   2   3
HETATM    3  C   UNK N   1      30.436  18.644   9.053  0.00  0.00     0.111 C 
BRANCH   3   4
HETATM    4  N   UNK N   1      29.641  18.406  10.244  0.00  0.00    -0.430 N 
HETATM    5  H   UNK N   1      29.318  17.481  10.529  0.00  0.00     0.149 HD
HETATM    6  H   UNK N   1      29.393  19.205  10.827  0.00  0.00     0.149 HD
ENDBRANCH   3   4
ENDBRANCH   2   3
ENDBRANCH   1   2
BRANCH   1   7
HETATM    7  C   UNK N   1      33.393  16.827   8.118  0.00  0.00     0.115 C 
BRANCH   7   8
HETATM    8  C   UNK N   1      34.499  17.788   8.448  0.00  0.00     0.139 C 
HETATM    9  O   UNK N   1      34.832  18.649   7.652  0.00  0.00    -0.650 OA
BRANCH   8  10
HETATM   10  O   UNK N   1      35.154  17.673   9.618  0.00  0.00    -0.776 OA
HETATM   11  H   UNK N   1      35.556  18.411  10.030  0.00  0.00     0.167 HD
ENDBRANCH   8  10
ENDBRANCH   7   8
ENDBRANCH   1   7
BRANCH   1  12
HETATM   12  C   UNK N   1      31.782  16.890   6.131  0.00  0.00     0.008 C 
BRANCH  12  13
HETATM   13  C   UNK N   1      32.733  17.391   5.039  0.00  0.00     0.017 C 
BRANCH  13  14
HETATM   14  C   UNK N   1      33.562  16.280   4.402  0.00  0.00     0.110 C 
BRANCH  14  15
HETATM   15  C   UNK N   1      33.204  16.139   2.962  0.00  0.00     0.139 C 
HETATM   16  O   UNK N   1      32.317  16.825   2.481  0.00  0.00    -0.650 OA
BRANCH  15  17
HETATM   17  O   UNK N   1      33.865  15.258   2.188  0.00  0.00    -0.776 OA
HETATM   18  H   UNK N   1      33.388  14.675   1.630  0.00  0.00     0.167 HD
ENDBRANCH  15  17
ENDBRANCH  14  15
ENDBRANCH  13  14
ENDBRANCH  12  13
BRANCH  12  19
HETATM   19  C   UNK N   1      30.347  17.199   5.681  0.00  0.00     0.116 C 
BRANCH  19  20
HETATM   20  N   UNK N   1      30.326  17.903   4.409  0.00  0.00    -0.430 N 
HETATM   21  H   UNK N   1      31.162  17.930   3.826  0.00  0.00     0.149 HD
HETATM   22  H   UNK N   1      29.473  18.371   4.099  0.00  0.00     0.149 HD
ENDBRANCH  19  20
ENDBRANCH  12  19
ENDBRANCH   1  12
TORSDOF 13
ENDMDL
MODEL 8
REMARK VINA RESULT:      -4.4      2.041      5.172
REMARK  13 active torsions:
REMARK  status: ('A' for Active; 'I' for Inactive)
REMARK    1  A    between atoms: C_2  and  C_1 
REMARK    2  A    between atoms: C_8  and  C_1 
REMARK    3  A    between atoms: C_9  and  C_2 
REMARK    4  A    between atoms: C_4  and  C_3 
REMARK    5  A    between atoms: C_7  and  C_3 
REMARK    6  A    between atoms: N_11  and  C_4 
REMARK    7  A    between atoms: C_7  and  C_5 
REMARK    8  A    between atoms: C_10  and  C_5 
REMARK    9  A    between atoms: C_8  and  C_6 
REMARK   10  A    between atoms: N_12  and  C_6 
REMARK   11  A    between atoms: C_8  and  C_7 
REMARK   12  A    between atoms: O_14  and  C_9 
REMARK   13  A    between atoms: O_16  and  C_10 
ROOT
HETATM    1  C   UNK N   1      29.641  17.522   6.385  0.00  0.00     0.002 C 
ENDROOT
BRANCH   1   2
HETATM    2  C   UNK N   1      29.189  16.707   5.166  0.00  0.00     0.024 C 
BRANCH   2   3
HETATM    3  C   UNK N   1      28.429  17.526   4.134  0.00  0.00     0.111 C 
BRANCH   3   4
HETATM    4  N   UNK N   1      28.607  18.938   4.415  0.00  0.00    -0.430 N 
HETATM    5  H   UNK N   1      28.388  19.364   5.316  0.00  0.00     0.149 HD
HETATM    6  H   UNK N   1      28.970  19.537   3.674  0.00  0.00     0.149 HD
ENDBRANCH   3   4
ENDBRANCH   2   3
ENDBRANCH   1   2
BRANCH   1   7
HETATM    7  C   UNK N   1      28.688  17.202   7.552  0.00  0.00     0.115 C 
BRANCH   7   8
HETATM    8  C   UNK N   1      27.999  18.400   8.139  0.00  0.00     0.139 C 
HETATM    9  O   UNK N   1      27.949  19.451   7.525  0.00  0.00    -0.650 OA
BRANCH   8  10
HETATM   10  O   UNK N   1      27.465  18.322   9.372  0.00  0.00    -0.776 OA
HETATM   11  H   UNK N   1      27.855  18.756  10.104  0.00  0.00     0.167 HD
ENDBRANCH   8  10
ENDBRANCH   7   8
ENDBRANCH   1   7
BRANCH   1  12
HETATM   12  C   UNK N   1      31.126  17.253   6.777  0.00  0.00     0.008 C 
BRANCH  12  13
HETATM   13  C   UNK N   1      31.878  16.481   5.687  0.00  0.00     0.017 C 
BRANCH  13  14
HETATM   14  C   UNK N   1      33.074  17.241   5.121  0.00  0.00     0.110 C 
BRANCH  14  15
HETATM   15  C   UNK N   1      34.239  17.116   6.042  0.00  0.00     0.139 C 
HETATM   16  O   UNK N   1      34.463  17.986   6.868  0.00  0.00    -0.650 OA
BRANCH  15  17
HETATM   17  O   UNK N   1      35.041  16.039   5.968  0.00  0.00    -0.776 OA
HETATM   18  H   UNK N   1      34.873  15.291   6.509  0.00  0.00     0.167 HD
ENDBRANCH  15  17
ENDBRANCH  14  15
ENDBRANCH  13  14
ENDBRANCH  12  13
BRANCH  12  19
HETATM   19  C   UNK N   1      31.276  16.474   8.091  0.00  0.00     0.116 C 
BRANCH  19  20
HETATM   20  N   UNK N   1      32.227  17.112   8.987  0.00  0.00    -0.430 N 
HETATM   21  H   UNK N   1      33.093  17.503   8.617  0.00  0.00     0.149 HD
HETATM   22  H   UNK N   1      32.027  17.170   9.986  0.00  0.00     0.149 HD
ENDBRANCH  19  20
ENDBRANCH  12  19
ENDBRANCH   1  12
TORSDOF 13
ENDMDL
MODEL 9
REMARK VINA RESULT:      -4.3      9.046     11.454
REMARK  13 active torsions:
REMARK  status: ('A' for Active; 'I' for Inactive)
REMARK    1  A    between atoms: C_2  and  C_1 
REMARK    2  A    between atoms: C_8  and  C_1 
REMARK    3  A    between atoms: C_9  and  C_2 
REMARK    4  A    between atoms: C_4  and  C_3 
REMARK    5  A    between atoms: C_7  and  C_3 
REMARK    6  A    between atoms: N_11  and  C_4 
REMARK    7  A    between atoms: C_7  and  C_5 
REMARK    8  A    between atoms: C_10  and  C_5 
REMARK    9  A    between atoms: C_8  and  C_6 
REMARK   10  A    between atoms: N_12  and  C_6 
REMARK   11  A    between atoms: C_8  and  C_7 
REMARK   12  A    between atoms: O_14  and  C_9 
REMARK   13  A    between atoms: O_16  and  C_10 
ROOT
HETATM    1  C   UNK N   1      21.720  18.341   3.403  0.00  0.00     0.002 C 
ENDROOT
BRANCH   1   2
HETATM    2  C   UNK N   1      20.651  17.240   3.386  0.00  0.00     0.024 C 
BRANCH   2   3
HETATM    3  C   UNK N   1      20.305  16.749   1.988  0.00  0.00     0.111 C 
BRANCH   3   4
HETATM    4  N   UNK N   1      19.310  17.629   1.403  0.00  0.00    -0.430 N 
HETATM    5  H   UNK N   1      18.567  17.305   0.784  0.00  0.00     0.149 HD
HETATM    6  H   UNK N   1      19.357  18.624   1.622  0.00  0.00     0.149 HD
ENDBRANCH   3   4
ENDBRANCH   2   3
ENDBRANCH   1   2
BRANCH   1   7
HETATM    7  C   UNK N   1      21.019  19.679   3.703  0.00  0.00     0.115 C 
BRANCH   7   8
HETATM    8  C   UNK N   1      21.103  20.688   2.594  0.00  0.00     0.139 C 
HETATM    9  O   UNK N   1      20.493  20.517   1.552  0.00  0.00    -0.650 OA
BRANCH   8  10
HETATM   10  O   UNK N   1      21.889  21.771   2.737  0.00  0.00    -0.776 OA
HETATM   11  H   UNK N   1      22.374  22.124   2.018  0.00  0.00     0.167 HD
ENDBRANCH   8  10
ENDBRANCH   7   8
ENDBRANCH   1   7
BRANCH   1  12
HETATM   12  C   UNK N   1      22.864  18.059   4.425  0.00  0.00     0.008 C 
BRANCH  12  13
HETATM   13  C   UNK N   1      24.246  18.378   3.844  0.00  0.00     0.017 C 
BRANCH  13  14
HETATM   14  C   UNK N   1      24.751  19.770   4.210  0.00  0.00     0.110 C 
BRANCH  14  15
HETATM   15  C   UNK N   1      25.280  20.456   2.998  0.00  0.00     0.139 C 
HETATM   16  O   UNK N   1      24.522  20.783   2.100  0.00  0.00    -0.650 OA
BRANCH  15  17
HETATM   17  O   UNK N   1      26.595  20.722   2.896  0.00  0.00    -0.776 OA
HETATM   18  H   UNK N   1      27.152  20.625   3.643  0.00  0.00     0.167 HD
ENDBRANCH  15  17
ENDBRANCH  14  15
ENDBRANCH  13  14
ENDBRANCH  12  13
BRANCH  12  19
HETATM   19  C   UNK N   1      22.889  16.607   4.924  0.00  0.00     0.116 C 
BRANCH  19  20
HETATM   20  N   UNK N   1      22.757  16.536   6.370  0.00  0.00    -0.430 N 
HETATM   21  H   UNK N   1      23.108  17.295   6.953  0.00  0.00     0.149 HD
HETATM   22  H   UNK N   1      22.314  15.724   6.802  0.00  0.00     0.149 HD
ENDBRANCH  19  20
ENDBRANCH  12  19
ENDBRANCH   1  12
TORSDOF 13
ENDMDL
