MODEL 1
REMARK VINA RESULT:      -4.9      0.000      0.000
REMARK  3 active torsions:
REMARK  status: ('A' for Active; 'I' for Inactive)
REMARK    1  A    between atoms: O_2  and  C_3 
REMARK    2  A    between atoms: C_6  and  C_9 
REMARK    3  A    between atoms: C_9  and  O_10 
ROOT
HETATM    1  C   UNK N   1      34.456  14.994  11.099  0.00  0.00     0.068 A 
HETATM    2  C   UNK N   1      35.351  16.051  11.312  0.00  0.00     0.038 A 
HETATM    3  C   UNK N   1      35.452  17.087  10.377  0.00  0.00     0.021 A 
HETATM    4  C   UNK N   1      34.658  17.072   9.221  0.00  0.00     0.037 A 
HETATM    5  C   UNK N   1      33.765  16.016   9.009  0.00  0.00     0.021 A 
HETATM    6  C   UNK N   1      33.664  14.984   9.939  0.00  0.00     0.038 A 
ENDROOT
BRANCH   4   7
HETATM    7  C   UNK N   1      34.754  18.156   8.229  0.00  0.00     0.176 C 
HETATM    8  O   UNK N   1      34.328  17.994   7.098  0.00  0.00    -0.646 OA
BRANCH   7   9
HETATM    9  O   UNK N   1      35.314  19.336   8.565  0.00  0.00    -0.773 OA
HETATM   10  H   UNK N   1      35.086  19.749   9.374  0.00  0.00     0.167 HD
ENDBRANCH   7   9
ENDBRANCH   4   7
BRANCH   1  11
HETATM   11  O   UNK N   1      34.371  14.001  12.013  0.00  0.00    -0.356 OA
HETATM   12  C   UNK N   1      35.397  13.698  12.882  0.00  0.00     0.210 C 
ENDBRANCH   1  11
TORSDOF 3
ENDMDL
MODEL 2
REMARK VINA RESULT:      -4.8      3.247      5.413
REMARK  3 active torsions:
REMARK  status: ('A' for Active; 'I' for Inactive)
REMARK    1  A    between atoms: O_2  and  C_3 
REMARK    2  A    between atoms: C_6  and  C_9 
REMARK    3  A    between atoms: C_9  and  O_10 
ROOT
HETATM    1  C   UNK N   1      31.366  17.114   6.100  0.00  0.00     0.068 A 
HETATM    2  C   UNK N   1      31.159  17.303   7.472  0.00  0.00     0.038 A 
HETATM    3  C   UNK N   1      32.227  17.659   8.303  0.00  0.00     0.021 A 
HETATM    4  C   UNK N   1      33.511  17.828   7.765  0.00  0.00     0.037 A 
HETATM    5  C   UNK N   1      33.717  17.639   6.395  0.00  0.00     0.021 A 
HETATM    6  C   UNK N   1      32.654  17.285   5.567  0.00  0.00     0.038 A 
ENDROOT
BRANCH   4   7
HETATM    7  C   UNK N   1      34.645  18.203   8.628  0.00  0.00     0.176 C 
HETATM    8  O   UNK N   1      35.290  19.210   8.393  0.00  0.00    -0.646 OA
BRANCH   7   9
HETATM    9  O   UNK N   1      34.976  17.433   9.685  0.00  0.00    -0.773 OA
HETATM   10  H   UNK N   1      34.363  16.810  10.021  0.00  0.00     0.167 HD
ENDBRANCH   7   9
ENDBRANCH   4   7
BRANCH   1  11
HETATM   11  O   UNK N   1      30.323  16.770   5.311  0.00  0.00    -0.356 OA
HETATM   12  C   UNK N   1      29.480  17.700   4.743  0.00  0.00     0.210 C 
ENDBRANCH   1  11
TORSDOF 3
ENDMDL
MODEL 3
REMARK VINA RESULT:      -4.8     18.930     20.086
REMARK  3 active torsions:
REMARK  status: ('A' for Active; 'I' for Inactive)
REMARK    1  A    between atoms: O_2  and  C_3 
REMARK    2  A    between atoms: C_6  and  C_9 
REMARK    3  A    between atoms: C_9  and  O_10 
ROOT
HETATM    1  C   UNK N   1      25.531  25.232  -5.371  0.00  0.00     0.068 A 
HETATM    2  C   UNK N   1      25.077  26.459  -5.872  0.00  0.00     0.038 A 
HETATM    3  C   UNK N   1      25.370  27.647  -5.194  0.00  0.00     0.021 A 
HETATM    4  C   UNK N   1      26.120  27.616  -4.009  0.00  0.00     0.037 A 
HETATM    5  C   UNK N   1      26.572  26.390  -3.510  0.00  0.00     0.021 A 
HETATM    6  C   UNK N   1      26.282  25.206  -4.184  0.00  0.00     0.038 A 
ENDROOT
BRANCH   4   7
HETATM    7  C   UNK N   1      26.435  28.859  -3.285  0.00  0.00     0.176 C 
HETATM    8  O   UNK N   1      27.132  28.828  -2.285  0.00  0.00    -0.646 OA
BRANCH   7   9
HETATM    9  O   UNK N   1      25.954  30.040  -3.723  0.00  0.00    -0.773 OA
HETATM   10  H   UNK N   1      25.049  30.122  -3.951  0.00  0.00     0.167 HD
ENDBRANCH   7   9
ENDBRANCH   4   7
BRANCH   1  11
HETATM   11  O   UNK N   1      25.239  24.093  -6.039  0.00  0.00    -0.356 OA
HETATM   12  C   UNK N   1      26.200  23.172  -6.397  0.00  0.00     0.210 C 
ENDBRANCH   1  11
TORSDOF 3
ENDMDL
MODEL 4
REMARK VINA RESULT:      -4.8     11.980     13.635
REMARK  3 active torsions:
REMARK  status: ('A' for Active; 'I' for Inactive)
REMARK    1  A    between atoms: O_2  and  C_3 
REMARK    2  A    between atoms: C_6  and  C_9 
REMARK    3  A    between atoms: C_9  and  O_10 
ROOT
HETATM    1  C   UNK N   1      21.473  12.557   8.166  0.00  0.00     0.068 A 
HETATM    2  C   UNK N   1      21.090  13.258   9.317  0.00  0.00     0.038 A 
HETATM    3  C   UNK N   1      21.802  13.093  10.510  0.00  0.00     0.021 A 
HETATM    4  C   UNK N   1      22.902  12.226  10.560  0.00  0.00     0.037 A 
HETATM    5  C   UNK N   1      23.284  11.527   9.410  0.00  0.00     0.021 A 
HETATM    6  C   UNK N   1      22.576  11.690   8.221  0.00  0.00     0.038 A 
ENDROOT
BRANCH   4   7
HETATM    7  C   UNK N   1      23.661  12.043  11.809  0.00  0.00     0.176 C 
HETATM    8  O   UNK N   1      23.082  11.754  12.842  0.00  0.00    -0.646 OA
BRANCH   7   9
HETATM    9  O   UNK N   1      25.000  12.196  11.818  0.00  0.00    -0.773 OA
HETATM   10  H   UNK N   1      25.388  12.956  11.431  0.00  0.00     0.167 HD
ENDBRANCH   7   9
ENDBRANCH   4   7
BRANCH   1  11
HETATM   11  O   UNK N   1      20.774  12.728   7.021  0.00  0.00    -0.356 OA
HETATM   12  C   UNK N   1      20.484  13.971   6.502  0.00  0.00     0.210 C 
ENDBRANCH   1  11
TORSDOF 3
ENDMDL
MODEL 5
REMARK VINA RESULT:      -4.6      3.975      5.177
REMARK  3 active torsions:
REMARK  status: ('A' for Active; 'I' for Inactive)
REMARK    1  A    between atoms: O_2  and  C_3 
REMARK    2  A    between atoms: C_6  and  C_9 
REMARK    3  A    between atoms: C_9  and  O_10 
ROOT
HETATM    1  C   UNK N   1      29.879  17.300   7.693  0.00  0.00     0.068 A 
HETATM    2  C   UNK N   1      30.764  17.695   8.704  0.00  0.00     0.038 A 
HETATM    3  C   UNK N   1      32.137  17.776   8.446  0.00  0.00     0.021 A 
HETATM    4  C   UNK N   1      32.633  17.462   7.172  0.00  0.00     0.037 A 
HETATM    5  C   UNK N   1      31.748  17.069   6.163  0.00  0.00     0.021 A 
HETATM    6  C   UNK N   1      30.381  16.988   6.420  0.00  0.00     0.038 A 
ENDROOT
BRANCH   4   7
HETATM    7  C   UNK N   1      34.076  17.543   6.886  0.00  0.00     0.176 C 
HETATM    8  O   UNK N   1      34.756  18.414   7.400  0.00  0.00    -0.646 OA
BRANCH   7   9
HETATM    9  O   UNK N   1      34.653  16.655   6.052  0.00  0.00    -0.773 OA
HETATM   10  H   UNK N   1      34.120  16.115   5.501  0.00  0.00     0.167 HD
ENDBRANCH   7   9
ENDBRANCH   4   7
BRANCH   1  11
HETATM   11  O   UNK N   1      28.555  17.227   7.961  0.00  0.00    -0.356 OA
HETATM   12  C   UNK N   1      28.006  17.689   9.137  0.00  0.00     0.210 C 
ENDBRANCH   1  11
TORSDOF 3
ENDMDL
MODEL 6
REMARK VINA RESULT:      -4.5      6.243      8.569
REMARK  3 active torsions:
REMARK  status: ('A' for Active; 'I' for Inactive)
REMARK    1  A    between atoms: O_2  and  C_3 
REMARK    2  A    between atoms: C_6  and  C_9 
REMARK    3  A    between atoms: C_9  and  O_10 
ROOT
HETATM    1  C   UNK N   1      35.301  11.810  18.996  0.00  0.00     0.068 A 
HETATM    2  C   UNK N   1      35.626  10.949  17.940  0.00  0.00     0.038 A 
HETATM    3  C   UNK N   1      35.799  11.455  16.647  0.00  0.00     0.021 A 
HETATM    4  C   UNK N   1      35.646  12.827  16.401  0.00  0.00     0.037 A 
HETATM    5  C   UNK N   1      35.321  13.686  17.457  0.00  0.00     0.021 A 
HETATM    6  C   UNK N   1      35.149  13.183  18.744  0.00  0.00     0.038 A 
ENDROOT
BRANCH   4   7
HETATM    7  C   UNK N   1      35.824  13.374  15.045  0.00  0.00     0.176 C 
HETATM    8  O   UNK N   1      34.885  13.413  14.270  0.00  0.00    -0.646 OA
BRANCH   7   9
HETATM    9  O   UNK N   1      37.029  13.834  14.652  0.00  0.00    -0.773 OA
HETATM   10  H   UNK N   1      37.600  14.243  15.274  0.00  0.00     0.167 HD
ENDBRANCH   7   9
ENDBRANCH   4   7
BRANCH   1  11
HETATM   11  O   UNK N   1      35.138  11.304  20.239  0.00  0.00    -0.356 OA
HETATM   12  C   UNK N   1      34.577  10.067  20.473  0.00  0.00     0.210 C 
ENDBRANCH   1  11
TORSDOF 3
ENDMDL
MODEL 7
REMARK VINA RESULT:      -4.4      5.083      6.712
REMARK  3 active torsions:
REMARK  status: ('A' for Active; 'I' for Inactive)
REMARK    1  A    between atoms: O_2  and  C_3 
REMARK    2  A    between atoms: C_6  and  C_9 
REMARK    3  A    between atoms: C_9  and  O_10 
ROOT
HETATM    1  C   UNK N   1      31.097  17.042   5.874  0.00  0.00     0.068 A 
HETATM    2  C   UNK N   1      31.769  17.230   7.089  0.00  0.00     0.038 A 
HETATM    3  C   UNK N   1      31.067  17.649   8.224  0.00  0.00     0.021 A 
HETATM    4  C   UNK N   1      29.686  17.885   8.151  0.00  0.00     0.037 A 
HETATM    5  C   UNK N   1      29.016  17.697   6.938  0.00  0.00     0.021 A 
HETATM    6  C   UNK N   1      29.714  17.279   5.807  0.00  0.00     0.038 A 
ENDROOT
BRANCH   4   7
HETATM    7  C   UNK N   1      28.935  18.327   9.339  0.00  0.00     0.176 C 
HETATM    8  O   UNK N   1      29.524  18.775  10.307  0.00  0.00    -0.646 OA
BRANCH   7   9
HETATM    9  O   UNK N   1      27.589  18.239   9.361  0.00  0.00    -0.773 OA
HETATM   10  H   UNK N   1      27.098  18.730   9.991  0.00  0.00     0.167 HD
ENDBRANCH   7   9
ENDBRANCH   4   7
BRANCH   1  11
HETATM   11  O   UNK N   1      31.791  16.636   4.787  0.00  0.00    -0.356 OA
HETATM   12  C   UNK N   1      32.282  17.514   3.846  0.00  0.00     0.210 C 
ENDBRANCH   1  11
TORSDOF 3
ENDMDL
MODEL 8
REMARK VINA RESULT:      -4.4     20.402     21.663
REMARK  3 active torsions:
REMARK  status: ('A' for Active; 'I' for Inactive)
REMARK    1  A    between atoms: O_2  and  C_3 
REMARK    2  A    between atoms: C_6  and  C_9 
REMARK    3  A    between atoms: C_9  and  O_10 
ROOT
HETATM    1  C   UNK N   1      26.570  26.460  -7.568  0.00  0.00     0.068 A 
HETATM    2  C   UNK N   1      25.525  26.037  -6.736  0.00  0.00     0.038 A 
HETATM    3  C   UNK N   1      25.275  26.699  -5.529  0.00  0.00     0.021 A 
HETATM    4  C   UNK N   1      26.069  27.788  -5.145  0.00  0.00     0.037 A 
HETATM    5  C   UNK N   1      27.113  28.210  -5.976  0.00  0.00     0.021 A 
HETATM    6  C   UNK N   1      27.362  27.552  -7.178  0.00  0.00     0.038 A 
ENDROOT
BRANCH   4   7
HETATM    7  C   UNK N   1      25.817  28.494  -3.876  0.00  0.00     0.176 C 
HETATM    8  O   UNK N   1      25.473  27.873  -2.886  0.00  0.00    -0.646 OA
BRANCH   7   9
HETATM    9  O   UNK N   1      25.966  29.832  -3.803  0.00  0.00    -0.773 OA
HETATM   10  H   UNK N   1      26.334  30.221  -3.034  0.00  0.00     0.167 HD
ENDBRANCH   7   9
ENDBRANCH   4   7
BRANCH   1  11
HETATM   11  O   UNK N   1      26.797  25.809  -8.731  0.00  0.00    -0.356 OA
HETATM   12  C   UNK N   1      26.165  26.144  -9.908  0.00  0.00     0.210 C 
ENDBRANCH   1  11
TORSDOF 3
ENDMDL
MODEL 9
REMARK VINA RESULT:      -4.4      5.894      9.938
REMARK  3 active torsions:
REMARK  status: ('A' for Active; 'I' for Inactive)
REMARK    1  A    between atoms: O_2  and  C_3 
REMARK    2  A    between atoms: C_6  and  C_9 
REMARK    3  A    between atoms: C_9  and  O_10 
ROOT
HETATM    1  C   UNK N   1      34.850  12.612  16.016  0.00  0.00     0.068 A 
HETATM    2  C   UNK N   1      35.096  11.250  16.233  0.00  0.00     0.038 A 
HETATM    3  C   UNK N   1      35.363  10.781  17.524  0.00  0.00     0.021 A 
HETATM    4  C   UNK N   1      35.385  11.671  18.607  0.00  0.00     0.037 A 
HETATM    5  C   UNK N   1      35.139  13.031  18.388  0.00  0.00     0.021 A 
HETATM    6  C   UNK N   1      34.873  13.499  17.104  0.00  0.00     0.038 A 
ENDROOT
BRANCH   4   7
HETATM    7  C   UNK N   1      35.664  11.191  19.971  0.00  0.00     0.176 C 
HETATM    8  O   UNK N   1      36.736  10.673  20.233  0.00  0.00    -0.646 OA
BRANCH   7   9
HETATM    9  O   UNK N   1      34.735  11.321  20.940  0.00  0.00    -0.773 OA
HETATM   10  H   UNK N   1      34.785  10.790  21.711  0.00  0.00     0.167 HD
ENDBRANCH   7   9
ENDBRANCH   4   7
BRANCH   1  11
HETATM   11  O   UNK N   1      34.594  13.048  14.762  0.00  0.00    -0.356 OA
HETATM   12  C   UNK N   1      35.567  13.580  13.945  0.00  0.00     0.210 C 
ENDBRANCH   1  11
TORSDOF 3
ENDMDL
