REMARK  3 active torsions:
REMARK  status: ('A' for Active; 'I' for Inactive)
REMARK    1  A    between atoms: C_3  and  C_2 
REMARK    2  A    between atoms: C_4  and  C_3 
REMARK    3  A    between atoms: C_8  and  C_4 
ROOT
HETATM    1  C   UNK N   1      -0.280   0.182  -0.640  0.00  0.00     0.018 C 
HETATM    2  C   UNK N   1      -0.000  -1.293  -0.446  0.00  0.00     0.109 C 
HETATM    3  C   UNK N   1       2.107   0.244  -0.272  0.00  0.00     0.113 C 
HETATM    4  C   UNK N   1       0.804   0.912   0.122  0.00  0.00    -0.002 C 
HETATM    5  O   UNK N   1       1.956  -1.891   0.891  0.00  0.00    -0.258 OA
HETATM    6  S   UNK N   1       1.798  -1.524  -0.600  0.00  0.00     0.015 S 
ENDROOT
BRANCH   4   7
HETATM    7  C   UNK N   1       0.873   2.386  -0.252  0.00  0.00     0.005 C 
BRANCH   7   8
HETATM    8  C   UNK N   1      -0.391   3.147   0.109  0.00  0.00     0.000 C 
BRANCH   8   9
HETATM    9  C   UNK N   1      -0.183   4.613  -0.210  0.00  0.00    -0.005 C 
HETATM   10  C   UNK N   1      -1.449   5.389   0.083  0.00  0.00     0.005 C 
ENDBRANCH   8   9
ENDBRANCH   7   8
ENDBRANCH   4   7
TORSDOF 3
