MODEL 1
REMARK VINA RESULT:      -5.4      0.000      0.000
REMARK  11 active torsions:
REMARK  status: ('A' for Active; 'I' for Inactive)
REMARK    1  A    between atoms: C_6  and  C_7 
REMARK    2  A    between atoms: C_7  and  O_8 
REMARK    3  A    between atoms: O_8  and  P_9 
REMARK    4  A    between atoms: P_9  and  O_10 
REMARK    5  A    between atoms: P_9  and  O_11 
REMARK    6  A    between atoms: C_13  and  C_14 
REMARK    7  A    between atoms: C_14  and  N_15 
REMARK    8  A    between atoms: N_15  and  C_16 
REMARK    9  A    between atoms: C_16  and  C_19 
REMARK   10  A    between atoms: C_19  and  O_20 
REMARK   11  A    between atoms: C_22  and  O_23 
ROOT
HETATM    1  C   UNK N   1      33.876  15.063   3.547  0.00  0.00     0.071 C 
HETATM    2  C   UNK N   1      32.925  15.780   4.443  0.00  0.00     0.039 A 
HETATM    3  N   UNK N   1      31.597  15.773   4.148  0.00  0.00    -0.367 N 
ATOM      4  HN  UNK N   1      31.276  15.280   3.315  1.00  0.00     0.165 HD
HETATM    5  C   UNK N   1      30.689  16.405   4.935  0.00  0.00     0.098 A 
HETATM    6  C   UNK N   1      31.096  17.084   6.086  0.00  0.00    -0.008 A 
HETATM    7  C   UNK N   1      32.467  17.109   6.417  0.00  0.00     0.004 A 
HETATM    8  C   UNK N   1      33.384  16.450   5.584  0.00  0.00     0.096 A 
ENDROOT
BRANCH   7   9
HETATM    9  C   UNK N   1      32.955  17.787   7.659  0.00  0.00     0.157 C 
BRANCH   9  10
HETATM   10  N   UNK N   1      32.493  17.099   8.861  0.00  0.00    -0.400 N 
HETATM   11  H   UNK N   1      31.678  17.358   9.416  0.00  0.00     0.154 HD
BRANCH  10  12
HETATM   12  C   UNK N   1      33.388  15.973   9.140  0.00  0.00     0.112 A 
HETATM   13  C   UNK N   1      32.857  15.051  10.230  0.00  0.00     0.045 A 
HETATM   14  C   UNK N   1      32.871  14.593   8.784  0.00  0.00     0.045 A 
BRANCH  12  15
HETATM   15  C   UNK N   1      34.865  16.223   9.268  0.00  0.00     0.169 C 
HETATM   16  O   UNK N   1      35.659  15.518   8.668  0.00  0.00    -0.648 OA
BRANCH  15  17
HETATM   17  O   UNK N   1      35.323  17.222  10.048  0.00  0.00    -0.775 OA
HETATM   18  H   UNK N   1      35.615  17.042  10.920  0.00  0.00     0.167 HD
ENDBRANCH  15  17
ENDBRANCH  12  15
ENDBRANCH  10  12
ENDBRANCH   9  10
ENDBRANCH   7   9
BRANCH   6  19
HETATM   19  C   UNK N   1      30.066  17.748   6.945  0.00  0.00     0.221 C 
BRANCH  19  20
HETATM   20  O   UNK N   1      29.512  16.812   7.823  0.00  0.00    -0.292 OA
BRANCH  20  21
HETATM   21  P   UNK N   1      29.158  17.659   9.304  0.00  0.00     0.391 P 
HETATM   22  O   UNK N   1      29.995  18.966   9.297  0.00  0.00    -0.632 OA
BRANCH  21  23
HETATM   23  O   UNK N   1      27.490  18.123   9.468  0.00  0.00    -0.307 OA
HETATM   24  H   UNK N   1      26.603  17.819   9.714  0.00  0.00     0.222 HD
ENDBRANCH  21  23
BRANCH  21  25
HETATM   25  O   UNK N   1      29.677  16.744  10.685  0.00  0.00    -0.307 OA
HETATM   26  H   UNK N   1      29.905  15.807  10.587  0.00  0.00     0.222 HD
ENDBRANCH  21  25
ENDBRANCH  20  21
ENDBRANCH  19  20
ENDBRANCH   6  19
BRANCH   8  27
HETATM   27  O   UNK N   1      34.700  16.459   5.881  0.00  0.00    -0.358 OA
HETATM   28  H   UNK N   1      35.037  16.130   6.691  0.00  0.00     0.217 HD
ENDBRANCH   8  27
TORSDOF 11
ENDMDL
MODEL 2
REMARK VINA RESULT:      -5.4      2.688      5.016
REMARK  11 active torsions:
REMARK  status: ('A' for Active; 'I' for Inactive)
REMARK    1  A    between atoms: C_6  and  C_7 
REMARK    2  A    between atoms: C_7  and  O_8 
REMARK    3  A    between atoms: O_8  and  P_9 
REMARK    4  A    between atoms: P_9  and  O_10 
REMARK    5  A    between atoms: P_9  and  O_11 
REMARK    6  A    between atoms: C_13  and  C_14 
REMARK    7  A    between atoms: C_14  and  N_15 
REMARK    8  A    between atoms: N_15  and  C_16 
REMARK    9  A    between atoms: C_16  and  C_19 
REMARK   10  A    between atoms: C_19  and  O_20 
REMARK   11  A    between atoms: C_22  and  O_23 
ROOT
HETATM    1  C   UNK N   1      28.126  18.924   8.205  0.00  0.00     0.071 C 
HETATM    2  C   UNK N   1      29.141  18.017   7.601  0.00  0.00     0.039 A 
HETATM    3  N   UNK N   1      29.124  17.796   6.259  0.00  0.00    -0.367 N 
ATOM      4  HN  UNK N   1      28.411  18.253   5.689  1.00  0.00     0.165 HD
HETATM    5  C   UNK N   1      30.030  16.983   5.658  0.00  0.00     0.098 A 
HETATM    6  C   UNK N   1      31.022  16.347   6.409  0.00  0.00    -0.008 A 
HETATM    7  C   UNK N   1      31.064  16.556   7.803  0.00  0.00     0.004 A 
HETATM    8  C   UNK N   1      30.113  17.398   8.398  0.00  0.00     0.096 A 
ENDROOT
BRANCH   7   9
HETATM    9  C   UNK N   1      32.129  15.931   8.650  0.00  0.00     0.157 C 
BRANCH   9  10
HETATM   10  N   UNK N   1      32.853  16.934   9.425  0.00  0.00    -0.400 N 
HETATM   11  H   UNK N   1      32.460  17.501  10.176  0.00  0.00     0.154 HD
BRANCH  10  12
HETATM   12  C   UNK N   1      34.239  16.994   8.951  0.00  0.00     0.112 A 
HETATM   13  C   UNK N   1      35.254  16.748  10.060  0.00  0.00     0.045 A 
HETATM   14  C   UNK N   1      35.024  15.698   8.989  0.00  0.00     0.045 A 
BRANCH  12  15
HETATM   15  C   UNK N   1      34.652  18.108   8.030  0.00  0.00     0.169 C 
HETATM   16  O   UNK N   1      35.154  19.123   8.483  0.00  0.00    -0.648 OA
BRANCH  15  17
HETATM   17  O   UNK N   1      34.467  17.997   6.700  0.00  0.00    -0.775 OA
HETATM   18  H   UNK N   1      33.654  18.260   6.314  0.00  0.00     0.167 HD
ENDBRANCH  15  17
ENDBRANCH  12  15
ENDBRANCH  10  12
ENDBRANCH   9  10
ENDBRANCH   7   9
BRANCH   6  19
HETATM   19  C   UNK N   1      32.021  15.478   5.711  0.00  0.00     0.221 C 
BRANCH  19  20
HETATM   20  O   UNK N   1      31.799  15.520   4.332  0.00  0.00    -0.292 OA
BRANCH  20  21
HETATM   21  P   UNK N   1      33.257  14.945   3.570  0.00  0.00     0.391 P 
HETATM   22  O   UNK N   1      32.987  13.490   3.101  0.00  0.00    -0.632 OA
BRANCH  21  23
HETATM   23  O   UNK N   1      33.723  15.855   2.164  0.00  0.00    -0.307 OA
HETATM   24  H   UNK N   1      34.396  15.958   1.473  0.00  0.00     0.222 HD
ENDBRANCH  21  23
BRANCH  21  25
HETATM   25  O   UNK N   1      34.565  14.865   4.708  0.00  0.00    -0.307 OA
HETATM   26  H   UNK N   1      35.287  14.231   4.574  0.00  0.00     0.222 HD
ENDBRANCH  21  25
ENDBRANCH  20  21
ENDBRANCH  19  20
ENDBRANCH   6  19
BRANCH   8  27
HETATM   27  O   UNK N   1      30.135  17.615   9.729  0.00  0.00    -0.358 OA
HETATM   28  H   UNK N   1      29.833  16.981  10.349  0.00  0.00     0.217 HD
ENDBRANCH   8  27
TORSDOF 11
ENDMDL
MODEL 3
REMARK VINA RESULT:      -5.4     11.030     12.814
REMARK  11 active torsions:
REMARK  status: ('A' for Active; 'I' for Inactive)
REMARK    1  A    between atoms: C_6  and  C_7 
REMARK    2  A    between atoms: C_7  and  O_8 
REMARK    3  A    between atoms: O_8  and  P_9 
REMARK    4  A    between atoms: P_9  and  O_10 
REMARK    5  A    between atoms: P_9  and  O_11 
REMARK    6  A    between atoms: C_13  and  C_14 
REMARK    7  A    between atoms: C_14  and  N_15 
REMARK    8  A    between atoms: N_15  and  C_16 
REMARK    9  A    between atoms: C_16  and  C_19 
REMARK   10  A    between atoms: C_19  and  O_20 
REMARK   11  A    between atoms: C_22  and  O_23 
ROOT
HETATM    1  C   UNK N   1      20.639  20.603   1.125  0.00  0.00     0.071 C 
HETATM    2  C   UNK N   1      20.927  19.692   2.268  0.00  0.00     0.039 A 
HETATM    3  N   UNK N   1      22.032  19.908   3.031  0.00  0.00    -0.367 N 
ATOM      4  HN  UNK N   1      22.648  20.689   2.803  1.00  0.00     0.165 HD
HETATM    5  C   UNK N   1      22.337  19.110   4.087  0.00  0.00     0.098 A 
HETATM    6  C   UNK N   1      21.512  18.036   4.427  0.00  0.00    -0.008 A 
HETATM    7  C   UNK N   1      20.359  17.787   3.654  0.00  0.00     0.004 A 
HETATM    8  C   UNK N   1      20.070  18.625   2.566  0.00  0.00     0.096 A 
ENDROOT
BRANCH   7   9
HETATM    9  C   UNK N   1      19.419  16.674   3.998  0.00  0.00     0.157 C 
BRANCH   9  10
HETATM   10  N   UNK N   1      19.471  15.603   3.007  0.00  0.00    -0.400 N 
HETATM   11  H   UNK N   1      19.201  15.689   2.027  0.00  0.00     0.154 HD
BRANCH  10  12
HETATM   12  C   UNK N   1      19.978  14.386   3.646  0.00  0.00     0.112 A 
HETATM   13  C   UNK N   1      20.472  13.352   2.641  0.00  0.00     0.045 A 
HETATM   14  C   UNK N   1      21.463  14.114   3.502  0.00  0.00     0.045 A 
BRANCH  12  15
HETATM   15  C   UNK N   1      19.197  13.767   4.770  0.00  0.00     0.169 C 
HETATM   16  O   UNK N   1      19.745  13.512   5.830  0.00  0.00    -0.648 OA
BRANCH  15  17
HETATM   17  O   UNK N   1      17.888  13.483   4.617  0.00  0.00    -0.775 OA
HETATM   18  H   UNK N   1      17.402  13.868   3.914  0.00  0.00     0.167 HD
ENDBRANCH  15  17
ENDBRANCH  12  15
ENDBRANCH  10  12
ENDBRANCH   9  10
ENDBRANCH   7   9
BRANCH   6  19
HETATM   19  C   UNK N   1      21.863  17.193   5.613  0.00  0.00     0.221 C 
BRANCH  19  20
HETATM   20  O   UNK N   1      21.334  17.768   6.772  0.00  0.00    -0.292 OA
BRANCH  20  21
HETATM   21  P   UNK N   1      20.616  16.474   7.693  0.00  0.00     0.391 P 
HETATM   22  O   UNK N   1      20.610  16.918   9.180  0.00  0.00    -0.632 OA
BRANCH  21  23
HETATM   23  O   UNK N   1      18.969  16.129   7.257  0.00  0.00    -0.307 OA
HETATM   24  H   UNK N   1      18.146  16.504   6.905  0.00  0.00     0.222 HD
ENDBRANCH  21  23
BRANCH  21  25
HETATM   25  O   UNK N   1      21.586  15.037   7.608  0.00  0.00    -0.307 OA
HETATM   26  H   UNK N   1      22.411  15.038   7.098  0.00  0.00     0.222 HD
ENDBRANCH  21  25
ENDBRANCH  20  21
ENDBRANCH  19  20
ENDBRANCH   6  19
BRANCH   8  27
HETATM   27  O   UNK N   1      18.972  18.407   1.814  0.00  0.00    -0.358 OA
HETATM   28  H   UNK N   1      18.994  17.909   1.020  0.00  0.00     0.217 HD
ENDBRANCH   8  27
TORSDOF 11
ENDMDL
MODEL 4
REMARK VINA RESULT:      -5.4      2.499      4.908
REMARK  11 active torsions:
REMARK  status: ('A' for Active; 'I' for Inactive)
REMARK    1  A    between atoms: C_6  and  C_7 
REMARK    2  A    between atoms: C_7  and  O_8 
REMARK    3  A    between atoms: O_8  and  P_9 
REMARK    4  A    between atoms: P_9  and  O_10 
REMARK    5  A    between atoms: P_9  and  O_11 
REMARK    6  A    between atoms: C_13  and  C_14 
REMARK    7  A    between atoms: C_14  and  N_15 
REMARK    8  A    between atoms: N_15  and  C_16 
REMARK    9  A    between atoms: C_16  and  C_19 
REMARK   10  A    between atoms: C_19  and  O_20 
REMARK   11  A    between atoms: C_22  and  O_23 
ROOT
HETATM    1  C   UNK N   1      33.203  15.995   3.479  0.00  0.00     0.071 C 
HETATM    2  C   UNK N   1      33.455  16.193   4.934  0.00  0.00     0.039 A 
HETATM    3  N   UNK N   1      34.624  15.756   5.473  0.00  0.00    -0.367 N 
ATOM      4  HN  UNK N   1      35.307  15.295   4.872  1.00  0.00     0.165 HD
HETATM    5  C   UNK N   1      34.906  15.917   6.792  0.00  0.00     0.098 A 
HETATM    6  C   UNK N   1      33.993  16.549   7.641  0.00  0.00    -0.008 A 
HETATM    7  C   UNK N   1      32.772  17.012   7.110  0.00  0.00     0.004 A 
HETATM    8  C   UNK N   1      32.505  16.829   5.745  0.00  0.00     0.096 A 
ENDROOT
BRANCH   7   9
HETATM    9  C   UNK N   1      31.775  17.730   7.965  0.00  0.00     0.157 C 
BRANCH   9  10
HETATM   10  N   UNK N   1      30.546  16.958   8.119  0.00  0.00    -0.400 N 
HETATM   11  H   UNK N   1      30.460  15.950   7.991  0.00  0.00     0.154 HD
BRANCH  10  12
HETATM   12  C   UNK N   1      29.456  17.865   8.490  0.00  0.00     0.112 A 
HETATM   13  C   UNK N   1      28.665  17.376   9.696  0.00  0.00     0.045 A 
HETATM   14  C   UNK N   1      29.589  18.572   9.824  0.00  0.00     0.045 A 
BRANCH  12  15
HETATM   15  C   UNK N   1      28.572  18.429   7.413  0.00  0.00     0.169 C 
HETATM   16  O   UNK N   1      28.748  18.114   6.248  0.00  0.00    -0.648 OA
BRANCH  15  17
HETATM   17  O   UNK N   1      27.584  19.292   7.724  0.00  0.00    -0.775 OA
HETATM   18  H   UNK N   1      27.555  20.139   7.324  0.00  0.00     0.167 HD
ENDBRANCH  15  17
ENDBRANCH  12  15
ENDBRANCH  10  12
ENDBRANCH   9  10
ENDBRANCH   7   9
BRANCH   6  19
HETATM   19  C   UNK N   1      34.346  16.733   9.084  0.00  0.00     0.221 C 
BRANCH  19  20
HETATM   20  O   UNK N   1      35.044  15.613   9.544  0.00  0.00    -0.292 OA
BRANCH  20  21
HETATM   21  P   UNK N   1      33.875  14.573  10.311  0.00  0.00     0.391 P 
HETATM   22  O   UNK N   1      33.767  13.287   9.448  0.00  0.00    -0.632 OA
BRANCH  21  23
HETATM   23  O   UNK N   1      34.322  14.073  11.915  0.00  0.00    -0.307 OA
HETATM   24  H   UNK N   1      35.049  14.020  12.556  0.00  0.00     0.222 HD
ENDBRANCH  21  23
BRANCH  21  25
HETATM   25  O   UNK N   1      32.299  15.302  10.315  0.00  0.00    -0.307 OA
HETATM   26  H   UNK N   1      32.132  16.093  10.851  0.00  0.00     0.222 HD
ENDBRANCH  21  25
ENDBRANCH  20  21
ENDBRANCH  19  20
ENDBRANCH   6  19
BRANCH   8  27
HETATM   27  O   UNK N   1      31.345  17.265   5.214  0.00  0.00    -0.358 OA
HETATM   28  H   UNK N   1      30.531  16.820   5.345  0.00  0.00     0.217 HD
ENDBRANCH   8  27
TORSDOF 11
ENDMDL
MODEL 5
REMARK VINA RESULT:      -5.3      4.020      6.310
REMARK  11 active torsions:
REMARK  status: ('A' for Active; 'I' for Inactive)
REMARK    1  A    between atoms: C_6  and  C_7 
REMARK    2  A    between atoms: C_7  and  O_8 
REMARK    3  A    between atoms: O_8  and  P_9 
REMARK    4  A    between atoms: P_9  and  O_10 
REMARK    5  A    between atoms: P_9  and  O_11 
REMARK    6  A    between atoms: C_13  and  C_14 
REMARK    7  A    between atoms: C_14  and  N_15 
REMARK    8  A    between atoms: N_15  and  C_16 
REMARK    9  A    between atoms: C_16  and  C_19 
REMARK   10  A    between atoms: C_19  and  O_20 
REMARK   11  A    between atoms: C_22  and  O_23 
ROOT
HETATM    1  C   UNK N   1      36.285  12.324   6.752  0.00  0.00     0.071 C 
HETATM    2  C   UNK N   1      35.958  12.901   8.086  0.00  0.00     0.039 A 
HETATM    3  N   UNK N   1      36.107  12.134   9.199  0.00  0.00    -0.367 N 
ATOM      4  HN  UNK N   1      36.437  11.174   9.100  1.00  0.00     0.165 HD
HETATM    5  C   UNK N   1      35.828  12.614  10.439  0.00  0.00     0.098 A 
HETATM    6  C   UNK N   1      35.379  13.926  10.608  0.00  0.00    -0.008 A 
HETATM    7  C   UNK N   1      35.214  14.745   9.472  0.00  0.00     0.004 A 
HETATM    8  C   UNK N   1      35.506  14.223   8.203  0.00  0.00     0.096 A 
ENDROOT
BRANCH   7   9
HETATM    9  C   UNK N   1      34.775  16.170   9.599  0.00  0.00     0.157 C 
BRANCH   9  10
HETATM   10  N   UNK N   1      33.338  16.309   9.379  0.00  0.00    -0.400 N 
HETATM   11  H   UNK N   1      32.615  15.728   9.801  0.00  0.00     0.154 HD
BRANCH  10  12
HETATM   12  C   UNK N   1      33.102  17.422   8.455  0.00  0.00     0.112 A 
HETATM   13  C   UNK N   1      31.972  17.146   7.472  0.00  0.00     0.045 A 
HETATM   14  C   UNK N   1      31.779  18.148   8.594  0.00  0.00     0.045 A 
BRANCH  12  15
HETATM   15  C   UNK N   1      34.277  18.099   7.805  0.00  0.00     0.169 C 
HETATM   16  O   UNK N   1      34.671  17.726   6.712  0.00  0.00    -0.648 OA
BRANCH  15  17
HETATM   17  O   UNK N   1      34.907  19.116   8.425  0.00  0.00    -0.775 OA
HETATM   18  H   UNK N   1      34.441  19.663   9.026  0.00  0.00     0.167 HD
ENDBRANCH  15  17
ENDBRANCH  12  15
ENDBRANCH  10  12
ENDBRANCH   9  10
ENDBRANCH   7   9
BRANCH   6  19
HETATM   19  C   UNK N   1      35.106  14.431  11.990  0.00  0.00     0.221 C 
BRANCH  19  20
HETATM   20  O   UNK N   1      36.313  14.738  12.625  0.00  0.00    -0.292 OA
BRANCH  20  21
HETATM   21  P   UNK N   1      36.399  13.741  14.052  0.00  0.00     0.391 P 
HETATM   22  O   UNK N   1      37.031  12.388  13.630  0.00  0.00    -0.632 OA
BRANCH  21  23
HETATM   23  O   UNK N   1      37.398  14.399  15.312  0.00  0.00    -0.307 OA
HETATM   24  H   UNK N   1      37.953  14.184  16.079  0.00  0.00     0.222 HD
ENDBRANCH  21  23
BRANCH  21  25
HETATM   25  O   UNK N   1      34.812  13.380  14.656  0.00  0.00    -0.307 OA
HETATM   26  H   UNK N   1      34.028  13.668  14.162  0.00  0.00     0.222 HD
ENDBRANCH  21  25
ENDBRANCH  20  21
ENDBRANCH  19  20
ENDBRANCH   6  19
BRANCH   8  27
HETATM   27  O   UNK N   1      35.358  14.987   7.102  0.00  0.00    -0.358 OA
HETATM   28  H   UNK N   1      34.743  14.784   6.426  0.00  0.00     0.217 HD
ENDBRANCH   8  27
TORSDOF 11
ENDMDL
MODEL 6
REMARK VINA RESULT:      -5.3      7.092      9.218
REMARK  11 active torsions:
REMARK  status: ('A' for Active; 'I' for Inactive)
REMARK    1  A    between atoms: C_6  and  C_7 
REMARK    2  A    between atoms: C_7  and  O_8 
REMARK    3  A    between atoms: O_8  and  P_9 
REMARK    4  A    between atoms: P_9  and  O_10 
REMARK    5  A    between atoms: P_9  and  O_11 
REMARK    6  A    between atoms: C_13  and  C_14 
REMARK    7  A    between atoms: C_14  and  N_15 
REMARK    8  A    between atoms: N_15  and  C_16 
REMARK    9  A    between atoms: C_16  and  C_19 
REMARK   10  A    between atoms: C_19  and  O_20 
REMARK   11  A    between atoms: C_22  and  O_23 
ROOT
HETATM    1  C   UNK N   1      25.771  14.384   2.664  0.00  0.00     0.071 C 
HETATM    2  C   UNK N   1      24.864  15.498   3.058  0.00  0.00     0.039 A 
HETATM    3  N   UNK N   1      23.518  15.314   3.000  0.00  0.00    -0.367 N 
ATOM      4  HN  UNK N   1      23.152  14.415   2.684  1.00  0.00     0.165 HD
HETATM    5  C   UNK N   1      22.647  16.295   3.354  0.00  0.00     0.098 A 
HETATM    6  C   UNK N   1      23.116  17.534   3.796  0.00  0.00    -0.008 A 
HETATM    7  C   UNK N   1      24.507  17.755   3.865  0.00  0.00     0.004 A 
HETATM    8  C   UNK N   1      25.383  16.725   3.491  0.00  0.00     0.096 A 
ENDROOT
BRANCH   7   9
HETATM    9  C   UNK N   1      25.064  19.050   4.370  0.00  0.00     0.157 C 
BRANCH   9  10
HETATM   10  N   UNK N   1      25.683  18.891   5.682  0.00  0.00    -0.400 N 
HETATM   11  H   UNK N   1      25.386  18.232   6.401  0.00  0.00     0.154 HD
BRANCH  10  12
HETATM   12  C   UNK N   1      26.803  19.828   5.799  0.00  0.00     0.112 A 
HETATM   13  C   UNK N   1      28.150  19.128   5.925  0.00  0.00     0.045 A 
HETATM   14  C   UNK N   1      27.786  19.856   4.645  0.00  0.00     0.045 A 
BRANCH  12  15
HETATM   15  C   UNK N   1      26.680  21.008   6.722  0.00  0.00     0.169 C 
HETATM   16  O   UNK N   1      27.217  22.066   6.438  0.00  0.00    -0.648 OA
BRANCH  15  17
HETATM   17  O   UNK N   1      25.982  20.906   7.870  0.00  0.00    -0.775 OA
HETATM   18  H   UNK N   1      25.938  21.632   8.461  0.00  0.00     0.167 HD
ENDBRANCH  15  17
ENDBRANCH  12  15
ENDBRANCH  10  12
ENDBRANCH   9  10
ENDBRANCH   7   9
BRANCH   6  19
HETATM   19  C   UNK N   1      22.130  18.584   4.202  0.00  0.00     0.221 C 
BRANCH  19  20
HETATM   20  O   UNK N   1      21.097  18.648   3.262  0.00  0.00    -0.292 OA
BRANCH  20  21
HETATM   21  P   UNK N   1      20.997  20.307   2.738  0.00  0.00     0.391 P 
HETATM   22  O   UNK N   1      22.441  20.877   2.736  0.00  0.00    -0.632 OA
BRANCH  21  23
HETATM   23  O   UNK N   1      20.371  20.500   1.128  0.00  0.00    -0.307 OA
HETATM   24  H   UNK N   1      19.675  20.228   0.509  0.00  0.00     0.222 HD
ENDBRANCH  21  23
BRANCH  21  25
HETATM   25  O   UNK N   1      20.087  21.263   3.866  0.00  0.00    -0.307 OA
HETATM   26  H   UNK N   1      19.197  21.571   3.634  0.00  0.00     0.222 HD
ENDBRANCH  21  25
ENDBRANCH  20  21
ENDBRANCH  19  20
ENDBRANCH   6  19
BRANCH   8  27
HETATM   27  O   UNK N   1      26.717  16.913   3.550  0.00  0.00    -0.358 OA
HETATM   28  H   UNK N   1      27.195  17.361   2.880  0.00  0.00     0.217 HD
ENDBRANCH   8  27
TORSDOF 11
ENDMDL
MODEL 7
REMARK VINA RESULT:      -5.2      2.672      4.737
REMARK  11 active torsions:
REMARK  status: ('A' for Active; 'I' for Inactive)
REMARK    1  A    between atoms: C_6  and  C_7 
REMARK    2  A    between atoms: C_7  and  O_8 
REMARK    3  A    between atoms: O_8  and  P_9 
REMARK    4  A    between atoms: P_9  and  O_10 
REMARK    5  A    between atoms: P_9  and  O_11 
REMARK    6  A    between atoms: C_13  and  C_14 
REMARK    7  A    between atoms: C_14  and  N_15 
REMARK    8  A    between atoms: N_15  and  C_16 
REMARK    9  A    between atoms: C_16  and  C_19 
REMARK   10  A    between atoms: C_19  and  O_20 
REMARK   11  A    between atoms: C_22  and  O_23 
ROOT
HETATM    1  C   UNK N   1      28.322  18.429   8.396  0.00  0.00     0.071 C 
HETATM    2  C   UNK N   1      29.454  17.722   7.733  0.00  0.00     0.039 A 
HETATM    3  N   UNK N   1      29.239  17.075   6.556  0.00  0.00    -0.367 N 
ATOM      4  HN  UNK N   1      28.303  17.081   6.150  1.00  0.00     0.165 HD
HETATM    5  C   UNK N   1      30.237  16.421   5.909  0.00  0.00     0.098 A 
HETATM    6  C   UNK N   1      31.531  16.398   6.437  0.00  0.00    -0.008 A 
HETATM    7  C   UNK N   1      31.784  17.060   7.656  0.00  0.00     0.004 A 
HETATM    8  C   UNK N   1      30.733  17.725   8.305  0.00  0.00     0.096 A 
ENDROOT
BRANCH   7   9
HETATM    9  C   UNK N   1      33.159  17.102   8.246  0.00  0.00     0.157 C 
BRANCH   9  10
HETATM   10  N   UNK N   1      33.247  16.289   9.455  0.00  0.00    -0.400 N 
HETATM   11  H   UNK N   1      32.484  16.113  10.108  0.00  0.00     0.154 HD
BRANCH  10  12
HETATM   12  C   UNK N   1      34.610  15.763   9.579  0.00  0.00     0.112 A 
HETATM   13  C   UNK N   1      34.656  14.241   9.609  0.00  0.00     0.045 A 
HETATM   14  C   UNK N   1      35.149  14.995   8.389  0.00  0.00     0.045 A 
BRANCH  12  15
HETATM   15  C   UNK N   1      35.550  16.387  10.572  0.00  0.00     0.169 C 
HETATM   16  O   UNK N   1      35.145  17.235  11.350  0.00  0.00    -0.648 OA
BRANCH  15  17
HETATM   17  O   UNK N   1      36.846  16.020  10.607  0.00  0.00    -0.775 OA
HETATM   18  H   UNK N   1      37.079  15.114  10.648  0.00  0.00     0.167 HD
ENDBRANCH  15  17
ENDBRANCH  12  15
ENDBRANCH  10  12
ENDBRANCH   9  10
ENDBRANCH   7   9
BRANCH   6  19
HETATM   19  C   UNK N   1      32.613  15.690   5.684  0.00  0.00     0.221 C 
BRANCH  19  20
HETATM   20  O   UNK N   1      33.161  16.551   4.729  0.00  0.00    -0.292 OA
BRANCH  20  21
HETATM   21  P   UNK N   1      32.641  15.968   3.171  0.00  0.00     0.391 P 
HETATM   22  O   UNK N   1      33.918  15.622   2.360  0.00  0.00    -0.632 OA
BRANCH  21  23
HETATM   23  O   UNK N   1      31.678  14.523   3.245  0.00  0.00    -0.307 OA
HETATM   24  H   UNK N   1      31.160  13.887   2.726  0.00  0.00     0.222 HD
ENDBRANCH  21  23
BRANCH  21  25
HETATM   25  O   UNK N   1      31.812  17.210   2.286  0.00  0.00    -0.307 OA
HETATM   26  H   UNK N   1      30.863  17.354   2.425  0.00  0.00     0.222 HD
ENDBRANCH  21  25
ENDBRANCH  20  21
ENDBRANCH  19  20
ENDBRANCH   6  19
BRANCH   8  27
HETATM   27  O   UNK N   1      30.952  18.367   9.471  0.00  0.00    -0.358 OA
HETATM   28  H   UNK N   1      31.808  18.620   9.755  0.00  0.00     0.217 HD
ENDBRANCH   8  27
TORSDOF 11
ENDMDL
MODEL 8
REMARK VINA RESULT:      -5.2      8.953     11.935
REMARK  11 active torsions:
REMARK  status: ('A' for Active; 'I' for Inactive)
REMARK    1  A    between atoms: C_6  and  C_7 
REMARK    2  A    between atoms: C_7  and  O_8 
REMARK    3  A    between atoms: O_8  and  P_9 
REMARK    4  A    between atoms: P_9  and  O_10 
REMARK    5  A    between atoms: P_9  and  O_11 
REMARK    6  A    between atoms: C_13  and  C_14 
REMARK    7  A    between atoms: C_14  and  N_15 
REMARK    8  A    between atoms: N_15  and  C_16 
REMARK    9  A    between atoms: C_16  and  C_19 
REMARK   10  A    between atoms: C_19  and  O_20 
REMARK   11  A    between atoms: C_22  and  O_23 
ROOT
HETATM    1  C   UNK N   1      20.305  12.039  11.859  0.00  0.00     0.071 C 
HETATM    2  C   UNK N   1      21.301  12.313  10.786  0.00  0.00     0.039 A 
HETATM    3  N   UNK N   1      22.539  11.755  10.865  0.00  0.00    -0.367 N 
ATOM      4  HN  UNK N   1      22.765  11.160  11.663  1.00  0.00     0.165 HD
HETATM    5  C   UNK N   1      23.481  11.968   9.911  0.00  0.00     0.098 A 
HETATM    6  C   UNK N   1      23.200  12.773   8.803  0.00  0.00    -0.008 A 
HETATM    7  C   UNK N   1      21.926  13.366   8.694  0.00  0.00     0.004 A 
HETATM    8  C   UNK N   1      20.973  13.132   9.697  0.00  0.00     0.096 A 
ENDROOT
BRANCH   7   9
HETATM    9  C   UNK N   1      21.558  14.204   7.510  0.00  0.00     0.157 C 
BRANCH   9  10
HETATM   10  N   UNK N   1      21.592  15.628   7.831  0.00  0.00    -0.400 N 
HETATM   11  H   UNK N   1      22.176  16.061   8.545  0.00  0.00     0.154 HD
BRANCH  10  12
HETATM   12  C   UNK N   1      20.652  16.337   6.958  0.00  0.00     0.112 A 
HETATM   13  C   UNK N   1      21.081  17.769   6.665  0.00  0.00     0.045 A 
HETATM   14  C   UNK N   1      21.160  16.712   5.579  0.00  0.00     0.045 A 
BRANCH  12  15
HETATM   15  C   UNK N   1      19.176  16.221   7.220  0.00  0.00     0.169 C 
HETATM   16  O   UNK N   1      18.756  16.218   8.365  0.00  0.00    -0.648 OA
BRANCH  15  17
HETATM   17  O   UNK N   1      18.308  16.114   6.195  0.00  0.00    -0.775 OA
HETATM   18  H   UNK N   1      17.544  15.578   6.279  0.00  0.00     0.167 HD
ENDBRANCH  15  17
ENDBRANCH  12  15
ENDBRANCH  10  12
ENDBRANCH   9  10
ENDBRANCH   7   9
BRANCH   6  19
HETATM   19  C   UNK N   1      24.252  12.966   7.757  0.00  0.00     0.221 C 
BRANCH  19  20
HETATM   20  O   UNK N   1      25.258  13.802   8.249  0.00  0.00    -0.292 OA
BRANCH  20  21
HETATM   21  P   UNK N   1      25.686  14.889   6.956  0.00  0.00     0.391 P 
HETATM   22  O   UNK N   1      24.369  15.522   6.433  0.00  0.00    -0.632 OA
BRANCH  21  23
HETATM   23  O   UNK N   1      26.720  16.197   7.448  0.00  0.00    -0.307 OA
HETATM   24  H   UNK N   1      26.809  16.956   8.046  0.00  0.00     0.222 HD
ENDBRANCH  21  23
BRANCH  21  25
HETATM   25  O   UNK N   1      26.386  14.025   5.623  0.00  0.00    -0.307 OA
HETATM   26  H   UNK N   1      27.345  14.049   5.479  0.00  0.00     0.222 HD
ENDBRANCH  21  25
ENDBRANCH  20  21
ENDBRANCH  19  20
ENDBRANCH   6  19
BRANCH   8  27
HETATM   27  O   UNK N   1      19.747  13.687   9.613  0.00  0.00    -0.358 OA
HETATM   28  H   UNK N   1      19.299  13.802   8.798  0.00  0.00     0.217 HD
ENDBRANCH   8  27
TORSDOF 11
ENDMDL
MODEL 9
REMARK VINA RESULT:      -5.2      1.364      2.020
REMARK  11 active torsions:
REMARK  status: ('A' for Active; 'I' for Inactive)
REMARK    1  A    between atoms: C_6  and  C_7 
REMARK    2  A    between atoms: C_7  and  O_8 
REMARK    3  A    between atoms: O_8  and  P_9 
REMARK    4  A    between atoms: P_9  and  O_10 
REMARK    5  A    between atoms: P_9  and  O_11 
REMARK    6  A    between atoms: C_13  and  C_14 
REMARK    7  A    between atoms: C_14  and  N_15 
REMARK    8  A    between atoms: N_15  and  C_16 
REMARK    9  A    between atoms: C_16  and  C_19 
REMARK   10  A    between atoms: C_19  and  O_20 
REMARK   11  A    between atoms: C_22  and  O_23 
ROOT
HETATM    1  C   UNK N   1      33.108  14.753   3.294  0.00  0.00     0.071 C 
HETATM    2  C   UNK N   1      32.411  15.513   4.370  0.00  0.00     0.039 A 
HETATM    3  N   UNK N   1      31.533  16.495   4.031  0.00  0.00    -0.367 N 
ATOM      4  HN  UNK N   1      31.370  16.697   3.044  1.00  0.00     0.165 HD
HETATM    5  C   UNK N   1      30.867  17.213   4.973  0.00  0.00     0.098 A 
HETATM    6  C   UNK N   1      31.065  16.956   6.332  0.00  0.00    -0.008 A 
HETATM    7  C   UNK N   1      31.970  15.944   6.713  0.00  0.00     0.004 A 
HETATM    8  C   UNK N   1      32.646  15.220   5.719  0.00  0.00     0.096 A 
ENDROOT
BRANCH   7   9
HETATM    9  C   UNK N   1      32.189  15.600   8.153  0.00  0.00     0.157 C 
BRANCH   9  10
HETATM   10  N   UNK N   1      32.607  16.767   8.925  0.00  0.00    -0.400 N 
HETATM   11  H   UNK N   1      31.992  17.361   9.481  0.00  0.00     0.154 HD
BRANCH  10  12
HETATM   12  C   UNK N   1      34.053  16.947   8.774  0.00  0.00     0.112 A 
HETATM   13  C   UNK N   1      34.809  16.789  10.087  0.00  0.00     0.045 A 
HETATM   14  C   UNK N   1      34.916  15.723   9.012  0.00  0.00     0.045 A 
BRANCH  12  15
HETATM   15  C   UNK N   1      34.569  18.092   7.949  0.00  0.00     0.169 C 
HETATM   16  O   UNK N   1      35.117  19.038   8.489  0.00  0.00    -0.648 OA
BRANCH  15  17
HETATM   17  O   UNK N   1      34.424  18.088   6.609  0.00  0.00    -0.775 OA
HETATM   18  H   UNK N   1      34.164  18.868   6.160  0.00  0.00     0.167 HD
ENDBRANCH  15  17
ENDBRANCH  12  15
ENDBRANCH  10  12
ENDBRANCH   9  10
ENDBRANCH   7   9
BRANCH   6  19
HETATM   19  C   UNK N   1      30.296  17.748   7.343  0.00  0.00     0.221 C 
BRANCH  19  20
HETATM   20  O   UNK N   1      29.339  16.930   7.951  0.00  0.00    -0.292 OA
BRANCH  20  21
HETATM   21  P   UNK N   1      28.925  17.683   9.467  0.00  0.00     0.391 P 
HETATM   22  O   UNK N   1      28.881  16.563  10.540  0.00  0.00    -0.632 OA
BRANCH  21  23
HETATM   23  O   UNK N   1      30.084  18.861  10.008  0.00  0.00    -0.307 OA
HETATM   24  H   UNK N   1      30.866  19.007  10.565  0.00  0.00     0.222 HD
ENDBRANCH  21  23
BRANCH  21  25
HETATM   25  O   UNK N   1      27.334  18.375   9.405  0.00  0.00    -0.307 OA
HETATM   26  H   UNK N   1      26.985  18.714   8.566  0.00  0.00     0.222 HD
ENDBRANCH  21  25
ENDBRANCH  20  21
ENDBRANCH  19  20
ENDBRANCH   6  19
BRANCH   8  27
HETATM   27  O   UNK N   1      33.515  14.247   6.060  0.00  0.00    -0.358 OA
HETATM   28  H   UNK N   1      33.334  13.338   5.924  0.00  0.00     0.217 HD
ENDBRANCH   8  27
TORSDOF 11
ENDMDL
