MODEL 1
REMARK VINA RESULT:      -3.1      0.000      0.000
REMARK  4 active torsions:
REMARK  status: ('A' for Active; 'I' for Inactive)
REMARK    1  A    between atoms: C_2  and  N_3 
REMARK    2  A    between atoms: N_3  and  C_4 
REMARK    3  A    between atoms: N_3  and  C_6 
REMARK    4  A    between atoms: C_6  and  S_7 
ROOT
HETATM    1  N   UNK N   1      23.189  12.091  10.431  0.00  0.00    -0.367 N 
ENDROOT
BRANCH   1   2
HETATM    2  C   UNK N   1      23.930  11.929  11.690  0.00  0.00     0.120 C 
HETATM    3  C   UNK N   1      23.210  11.888  13.029  0.00  0.00     0.026 C 
ENDBRANCH   1   2
BRANCH   1   4
HETATM    4  C   UNK N   1      21.760  12.278  10.697  0.00  0.00     0.120 C 
HETATM    5  C   UNK N   1      20.984  13.395  10.029  0.00  0.00     0.026 C 
ENDBRANCH   1   4
BRANCH   1   6
HETATM    6  C   UNK N   1      23.785  12.071   9.084  0.00  0.00     0.133 C 
HETATM    7  S   UNK N   1      23.582  10.977   8.169  0.00  0.00    -0.053 SA
BRANCH   6   8
HETATM    8  S   UNK N   1      24.822  13.396   8.442  0.00  0.00    -0.114 SA
HETATM    9  H   UNK N   1      24.278  14.367   7.661  0.00  0.00     0.109 HD
ENDBRANCH   6   8
ENDBRANCH   1   6
TORSDOF 4
ENDMDL
MODEL 2
REMARK VINA RESULT:      -2.8     12.470     13.435
REMARK  4 active torsions:
REMARK  status: ('A' for Active; 'I' for Inactive)
REMARK    1  A    between atoms: C_2  and  N_3 
REMARK    2  A    between atoms: N_3  and  C_4 
REMARK    3  A    between atoms: N_3  and  C_6 
REMARK    4  A    between atoms: C_6  and  S_7 
ROOT
HETATM    1  N   UNK N   1      35.422  12.710  15.274  0.00  0.00    -0.367 N 
ENDROOT
BRANCH   1   2
HETATM    2  C   UNK N   1      36.802  13.214  15.247  0.00  0.00     0.120 C 
HETATM    3  C   UNK N   1      37.113  14.676  15.527  0.00  0.00     0.026 C 
ENDBRANCH   1   2
BRANCH   1   4
HETATM    4  C   UNK N   1      34.743  13.139  16.500  0.00  0.00     0.120 C 
HETATM    5  C   UNK N   1      35.168  12.603  17.853  0.00  0.00     0.026 C 
ENDBRANCH   1   4
BRANCH   1   6
HETATM    6  C   UNK N   1      34.795  11.889  14.224  0.00  0.00     0.133 C 
HETATM    7  S   UNK N   1      33.943  10.769  14.529  0.00  0.00    -0.053 SA
BRANCH   6   8
HETATM    8  S   UNK N   1      35.024  12.192  12.463  0.00  0.00    -0.114 SA
HETATM    9  H   UNK N   1      34.853  11.180  11.571  0.00  0.00     0.109 HD
ENDBRANCH   6   8
ENDBRANCH   1   6
TORSDOF 4
ENDMDL
MODEL 3
REMARK VINA RESULT:      -2.8     12.669     13.693
REMARK  4 active torsions:
REMARK  status: ('A' for Active; 'I' for Inactive)
REMARK    1  A    between atoms: C_2  and  N_3 
REMARK    2  A    between atoms: N_3  and  C_4 
REMARK    3  A    between atoms: N_3  and  C_6 
REMARK    4  A    between atoms: C_6  and  S_7 
ROOT
HETATM    1  N   UNK N   1      35.515  12.754  15.734  0.00  0.00    -0.367 N 
ENDROOT
BRANCH   1   2
HETATM    2  C   UNK N   1      34.994  12.904  17.100  0.00  0.00     0.120 C 
HETATM    3  C   UNK N   1      35.306  11.880  18.179  0.00  0.00     0.026 C 
ENDBRANCH   1   2
BRANCH   1   4
HETATM    4  C   UNK N   1      35.227  11.413  15.219  0.00  0.00     0.120 C 
HETATM    5  C   UNK N   1      33.833  11.042  14.752  0.00  0.00     0.026 C 
ENDBRANCH   1   4
BRANCH   1   6
HETATM    6  C   UNK N   1      36.229  13.797  14.977  0.00  0.00     0.133 C 
HETATM    7  S   UNK N   1      36.211  13.852  13.537  0.00  0.00    -0.053 SA
BRANCH   6   8
HETATM    8  S   UNK N   1      37.192  15.103  15.759  0.00  0.00    -0.114 SA
HETATM    9  H   UNK N   1      38.446  14.842  16.216  0.00  0.00     0.109 HD
ENDBRANCH   6   8
ENDBRANCH   1   6
TORSDOF 4
ENDMDL
MODEL 4
REMARK VINA RESULT:      -2.8     12.434     13.412
REMARK  4 active torsions:
REMARK  status: ('A' for Active; 'I' for Inactive)
REMARK    1  A    between atoms: C_2  and  N_3 
REMARK    2  A    between atoms: N_3  and  C_4 
REMARK    3  A    between atoms: N_3  and  C_6 
REMARK    4  A    between atoms: C_6  and  S_7 
ROOT
HETATM    1  N   UNK N   1      35.424  13.067  14.982  0.00  0.00    -0.367 N 
ENDROOT
BRANCH   1   2
HETATM    2  C   UNK N   1      34.992  13.260  16.374  0.00  0.00     0.120 C 
HETATM    3  C   UNK N   1      35.307  12.229  17.446  0.00  0.00     0.026 C 
ENDBRANCH   1   2
BRANCH   1   4
HETATM    4  C   UNK N   1      36.536  13.964  14.661  0.00  0.00     0.120 C 
HETATM    5  C   UNK N   1      37.132  14.874  15.717  0.00  0.00     0.026 C 
ENDBRANCH   1   4
BRANCH   1   6
HETATM    6  C   UNK N   1      34.831  12.110  14.032  0.00  0.00     0.133 C 
HETATM    7  S   UNK N   1      35.083  12.174  12.616  0.00  0.00    -0.053 SA
BRANCH   6   8
HETATM    8  S   UNK N   1      33.738  10.768  14.533  0.00  0.00    -0.114 SA
HETATM    9  H   UNK N   1      34.062   9.481  14.237  0.00  0.00     0.109 HD
ENDBRANCH   6   8
ENDBRANCH   1   6
TORSDOF 4
ENDMDL
MODEL 5
REMARK VINA RESULT:      -2.8     12.170     13.242
REMARK  4 active torsions:
REMARK  status: ('A' for Active; 'I' for Inactive)
REMARK    1  A    between atoms: C_2  and  N_3 
REMARK    2  A    between atoms: N_3  and  C_4 
REMARK    3  A    between atoms: N_3  and  C_6 
REMARK    4  A    between atoms: C_6  and  S_7 
ROOT
HETATM    1  N   UNK N   1      35.382  12.755  14.823  0.00  0.00    -0.367 N 
ENDROOT
BRANCH   1   2
HETATM    2  C   UNK N   1      34.185  11.944  15.091  0.00  0.00     0.120 C 
HETATM    3  C   UNK N   1      33.868  10.710  14.260  0.00  0.00     0.026 C 
ENDBRANCH   1   2
BRANCH   1   4
HETATM    4  C   UNK N   1      35.895  13.338  16.066  0.00  0.00     0.120 C 
HETATM    5  C   UNK N   1      35.073  13.305  17.338  0.00  0.00     0.026 C 
ENDBRANCH   1   4
BRANCH   1   6
HETATM    6  C   UNK N   1      35.991  12.961  13.498  0.00  0.00     0.133 C 
HETATM    7  S   UNK N   1      35.634  14.070  12.651  0.00  0.00    -0.053 SA
BRANCH   6   8
HETATM    8  S   UNK N   1      37.233  11.860  12.798  0.00  0.00    -0.114 SA
HETATM    9  H   UNK N   1      37.981  11.072  13.616  0.00  0.00     0.109 HD
ENDBRANCH   6   8
ENDBRANCH   1   6
TORSDOF 4
ENDMDL
MODEL 6
REMARK VINA RESULT:      -2.8     13.155     14.225
REMARK  4 active torsions:
REMARK  status: ('A' for Active; 'I' for Inactive)
REMARK    1  A    between atoms: C_2  and  N_3 
REMARK    2  A    between atoms: N_3  and  C_4 
REMARK    3  A    between atoms: N_3  and  C_6 
REMARK    4  A    between atoms: C_6  and  S_7 
ROOT
HETATM    1  N   UNK N   1      36.548  14.129  14.764  0.00  0.00    -0.367 N 
ENDROOT
BRANCH   1   2
HETATM    2  C   UNK N   1      36.075  13.284  15.870  0.00  0.00     0.120 C 
HETATM    3  C   UNK N   1      34.608  12.906  16.001  0.00  0.00     0.026 C 
ENDBRANCH   1   2
BRANCH   1   4
HETATM    4  C   UNK N   1      37.188  15.341  15.281  0.00  0.00     0.120 C 
HETATM    5  C   UNK N   1      37.249  15.614  16.771  0.00  0.00     0.026 C 
ENDBRANCH   1   4
BRANCH   1   6
HETATM    6  C   UNK N   1      36.405  13.813  13.332  0.00  0.00     0.133 C 
HETATM    7  S   UNK N   1      35.866  14.756  12.386  0.00  0.00    -0.053 SA
BRANCH   6   8
HETATM    8  S   UNK N   1      36.884  12.232  12.615  0.00  0.00    -0.114 SA
HETATM    9  H   UNK N   1      36.370  11.076  13.113  0.00  0.00     0.109 HD
ENDBRANCH   6   8
ENDBRANCH   1   6
TORSDOF 4
ENDMDL
MODEL 7
REMARK VINA RESULT:      -2.8     10.239     11.544
REMARK  4 active torsions:
REMARK  status: ('A' for Active; 'I' for Inactive)
REMARK    1  A    between atoms: C_2  and  N_3 
REMARK    2  A    between atoms: N_3  and  C_4 
REMARK    3  A    between atoms: N_3  and  C_6 
REMARK    4  A    between atoms: C_6  and  S_7 
ROOT
HETATM    1  N   UNK N   1      32.467  17.292   6.825  0.00  0.00    -0.367 N 
ENDROOT
BRANCH   1   2
HETATM    2  C   UNK N   1      33.406  17.456   5.706  0.00  0.00     0.120 C 
HETATM    3  C   UNK N   1      32.908  17.628   4.280  0.00  0.00     0.026 C 
ENDBRANCH   1   2
BRANCH   1   4
HETATM    4  C   UNK N   1      32.979  17.955   8.027  0.00  0.00     0.120 C 
HETATM    5  C   UNK N   1      34.441  18.337   8.142  0.00  0.00     0.026 C 
ENDBRANCH   1   4
BRANCH   1   6
HETATM    6  C   UNK N   1      31.187  16.564   6.761  0.00  0.00     0.133 C 
HETATM    7  S   UNK N   1      29.959  17.121   7.268  0.00  0.00    -0.053 SA
BRANCH   6   8
HETATM    8  S   UNK N   1      31.020  14.917   6.052  0.00  0.00    -0.114 SA
HETATM    9  H   UNK N   1      30.897  13.835   6.866  0.00  0.00     0.109 HD
ENDBRANCH   6   8
ENDBRANCH   1   6
TORSDOF 4
ENDMDL
MODEL 8
REMARK VINA RESULT:      -2.7     12.286     13.309
REMARK  4 active torsions:
REMARK  status: ('A' for Active; 'I' for Inactive)
REMARK    1  A    between atoms: C_2  and  N_3 
REMARK    2  A    between atoms: N_3  and  C_4 
REMARK    3  A    between atoms: N_3  and  C_6 
REMARK    4  A    between atoms: C_6  and  S_7 
ROOT
HETATM    1  N   UNK N   1      35.650  12.461  15.037  0.00  0.00    -0.367 N 
ENDROOT
BRANCH   1   2
HETATM    2  C   UNK N   1      35.826  13.328  16.210  0.00  0.00     0.120 C 
HETATM    3  C   UNK N   1      34.986  13.138  17.463  0.00  0.00     0.026 C 
ENDBRANCH   1   2
BRANCH   1   4
HETATM    4  C   UNK N   1      34.903  11.253  15.399  0.00  0.00     0.120 C 
HETATM    5  C   UNK N   1      33.709  10.803  14.582  0.00  0.00     0.026 C 
ENDBRANCH   1   4
BRANCH   1   6
HETATM    6  C   UNK N   1      36.148  12.752  13.681  0.00  0.00     0.133 C 
HETATM    7  S   UNK N   1      35.958  14.033  13.050  0.00  0.00    -0.053 SA
BRANCH   6   8
HETATM    8  S   UNK N   1      37.039  11.552  12.676  0.00  0.00    -0.114 SA
HETATM    9  H   UNK N   1      36.771  11.446  11.347  0.00  0.00     0.109 HD
ENDBRANCH   6   8
ENDBRANCH   1   6
TORSDOF 4
ENDMDL
MODEL 9
REMARK VINA RESULT:      -2.7      8.992      9.937
REMARK  4 active torsions:
REMARK  status: ('A' for Active; 'I' for Inactive)
REMARK    1  A    between atoms: C_2  and  N_3 
REMARK    2  A    between atoms: N_3  and  C_4 
REMARK    3  A    between atoms: N_3  and  C_6 
REMARK    4  A    between atoms: C_6  and  S_7 
ROOT
HETATM    1  N   UNK N   1      27.627  19.732   5.569  0.00  0.00    -0.367 N 
ENDROOT
BRANCH   1   2
HETATM    2  C   UNK N   1      27.511  21.117   6.047  0.00  0.00     0.120 C 
HETATM    3  C   UNK N   1      26.361  21.547   6.943  0.00  0.00     0.026 C 
ENDBRANCH   1   2
BRANCH   1   4
HETATM    4  C   UNK N   1      27.523  19.681   4.109  0.00  0.00     0.120 C 
HETATM    5  C   UNK N   1      26.390  20.382   3.385  0.00  0.00     0.026 C 
ENDBRANCH   1   4
BRANCH   1   6
HETATM    6  C   UNK N   1      27.820  18.550   6.428  0.00  0.00     0.133 C 
HETATM    7  S   UNK N   1      27.436  17.225   6.012  0.00  0.00    -0.053 SA
BRANCH   6   8
HETATM    8  S   UNK N   1      28.551  18.630   8.072  0.00  0.00    -0.114 SA
HETATM    9  H   UNK N   1      29.525  17.751   8.427  0.00  0.00     0.109 HD
ENDBRANCH   6   8
ENDBRANCH   1   6
TORSDOF 4
ENDMDL
