MODEL 1
REMARK VINA RESULT:      -5.8      0.000      0.000
REMARK  5 active torsions:
REMARK  status: ('A' for Active; 'I' for Inactive)
REMARK    1  A    between atoms: C_2  and  C_1 
REMARK    2  A    between atoms: O_11  and  C_1 
REMARK    3  A    between atoms: C_3  and  O_12 
REMARK    4  A    between atoms: C_4  and  O_13 
REMARK    5  A    between atoms: C_5  and  O_14 
ROOT
HETATM    1  C   UNK N   1      34.029  14.701   9.040  0.00  0.00     0.144 C 
HETATM    2  C   UNK N   1      32.533  14.354   8.828  0.00  0.00     0.174 C 
HETATM    3  C   UNK N   1      32.102  14.620   7.361  0.00  0.00     0.181 C 
HETATM    4  C   UNK N   1      32.393  16.090   6.966  0.00  0.00     0.192 C 
HETATM    5  C   UNK N   1      33.883  16.394   7.172  0.00  0.00     0.222 A 
HETATM    6  C   UNK N   1      34.681  18.244   8.250  0.00  0.00     0.311 A 
HETATM    7  C   UNK N   1      34.713  17.151   9.174  0.00  0.00     0.313 A 
HETATM    8  N   UNK N   1      34.187  17.821   7.074  0.00  0.00    -0.329 N 
HETATM    9  N   UNK N   1      34.241  16.057   8.543  0.00  0.00    -0.311 N 
HETATM   10  O   UNK N   1      35.035  19.392   8.466  0.00  0.00    -0.262 OA
HETATM   11  O   UNK N   1      35.089  17.194  10.333  0.00  0.00    -0.262 OA
HETATM   12  H   UNK N   1      34.053  18.380   6.275  0.00  0.00     0.165 HD
ENDROOT
BRANCH   1  13
HETATM   13  C   UNK N   1      34.479  14.461  10.490  0.00  0.00     0.192 C 
BRANCH  13  14
HETATM   14  O   UNK N   1      33.482  14.795  11.409  0.00  0.00    -0.399 OA
HETATM   15  H   UNK N   1      32.972  14.828  12.233  0.00  0.00     0.209 HD
ENDBRANCH  13  14
ENDBRANCH   1  13
BRANCH   2  16
HETATM   16  O   UNK N   1      32.293  13.018   9.160  0.00  0.00    -0.391 OA
HETATM   17  H   UNK N   1      31.410  12.621   9.106  0.00  0.00     0.210 HD
ENDBRANCH   2  16
BRANCH   3  18
HETATM   18  O   UNK N   1      32.779  13.750   6.500  0.00  0.00    -0.390 OA
HETATM   19  H   UNK N   1      33.540  13.320   6.079  0.00  0.00     0.210 HD
ENDBRANCH   3  18
BRANCH   4  20
HETATM   20  O   UNK N   1      32.035  16.316   5.634  0.00  0.00    -0.389 OA
HETATM   21  H   UNK N   1      31.152  16.072   5.318  0.00  0.00     0.210 HD
ENDBRANCH   4  20
TORSDOF 5
ENDMDL
MODEL 2
REMARK VINA RESULT:      -5.8      1.403      3.342
REMARK  5 active torsions:
REMARK  status: ('A' for Active; 'I' for Inactive)
REMARK    1  A    between atoms: C_2  and  C_1 
REMARK    2  A    between atoms: O_11  and  C_1 
REMARK    3  A    between atoms: C_3  and  O_12 
REMARK    4  A    between atoms: C_4  and  O_13 
REMARK    5  A    between atoms: C_5  and  O_14 
ROOT
HETATM    1  C   UNK N   1      32.828  15.193   6.912  0.00  0.00     0.144 C 
HETATM    2  C   UNK N   1      33.392  13.862   7.469  0.00  0.00     0.174 C 
HETATM    3  C   UNK N   1      33.219  13.784   9.009  0.00  0.00     0.181 C 
HETATM    4  C   UNK N   1      33.888  15.000   9.695  0.00  0.00     0.192 C 
HETATM    5  C   UNK N   1      33.294  16.300   9.133  0.00  0.00     0.222 A 
HETATM    6  C   UNK N   1      34.538  18.085   8.434  0.00  0.00     0.311 A 
HETATM    7  C   UNK N   1      34.156  17.337   7.275  0.00  0.00     0.313 A 
HETATM    8  N   UNK N   1      34.050  17.486   9.533  0.00  0.00    -0.329 N 
HETATM    9  N   UNK N   1      33.423  16.281   7.683  0.00  0.00    -0.311 N 
HETATM   10  O   UNK N   1      35.204  19.108   8.454  0.00  0.00    -0.262 OA
HETATM   11  O   UNK N   1      34.446  17.594   6.118  0.00  0.00    -0.262 OA
HETATM   12  H   UNK N   1      34.180  17.796  10.459  0.00  0.00     0.165 HD
ENDROOT
BRANCH   1  13
HETATM   13  C   UNK N   1      33.001  15.303   5.389  0.00  0.00     0.192 C 
BRANCH  13  14
HETATM   14  O   UNK N   1      34.191  14.718   4.954  0.00  0.00    -0.399 OA
HETATM   15  H   UNK N   1      34.893  14.402   4.363  0.00  0.00     0.209 HD
ENDBRANCH  13  14
ENDBRANCH   1  13
BRANCH   2  16
HETATM   16  O   UNK N   1      32.759  12.774   6.862  0.00  0.00    -0.391 OA
HETATM   17  H   UNK N   1      32.332  12.070   7.375  0.00  0.00     0.210 HD
ENDBRANCH   2  16
BRANCH   3  18
HETATM   18  O   UNK N   1      31.859  13.739   9.333  0.00  0.00    -0.390 OA
HETATM   19  H   UNK N   1      30.919  13.976   9.286  0.00  0.00     0.210 HD
ENDBRANCH   3  18
BRANCH   4  20
HETATM   20  O   UNK N   1      33.700  14.945  11.078  0.00  0.00    -0.389 OA
HETATM   21  H   UNK N   1      32.815  14.796  11.445  0.00  0.00     0.210 HD
ENDBRANCH   4  20
TORSDOF 5
ENDMDL
MODEL 3
REMARK VINA RESULT:      -5.5     11.986     13.989
REMARK  5 active torsions:
REMARK  status: ('A' for Active; 'I' for Inactive)
REMARK    1  A    between atoms: C_2  and  C_1 
REMARK    2  A    between atoms: O_11  and  C_1 
REMARK    3  A    between atoms: C_3  and  O_12 
REMARK    4  A    between atoms: C_4  and  O_13 
REMARK    5  A    between atoms: C_5  and  O_14 
ROOT
HETATM    1  C   UNK N   1      22.424  18.995   3.863  0.00  0.00     0.144 C 
HETATM    2  C   UNK N   1      22.036  19.981   2.732  0.00  0.00     0.174 C 
HETATM    3  C   UNK N   1      20.498  20.169   2.661  0.00  0.00     0.181 C 
HETATM    4  C   UNK N   1      19.789  18.804   2.475  0.00  0.00     0.192 C 
HETATM    5  C   UNK N   1      20.182  17.859   3.620  0.00  0.00     0.222 A 
HETATM    6  C   UNK N   1      20.863  15.698   3.327  0.00  0.00     0.311 A 
HETATM    7  C   UNK N   1      22.031  16.503   3.509  0.00  0.00     0.313 A 
HETATM    8  N   UNK N   1      19.769  16.478   3.379  0.00  0.00    -0.329 N 
HETATM    9  N   UNK N   1      21.635  17.781   3.679  0.00  0.00    -0.311 N 
HETATM   10  O   UNK N   1      20.830  14.490   3.148  0.00  0.00    -0.262 OA
HETATM   11  O   UNK N   1      23.188  16.115   3.501  0.00  0.00    -0.262 OA
HETATM   12  H   UNK N   1      18.840  16.169   3.273  0.00  0.00     0.165 HD
ENDROOT
BRANCH   1  13
HETATM   13  C   UNK N   1      23.944  18.779   3.946  0.00  0.00     0.192 C 
BRANCH  13  14
HETATM   14  O   UNK N   1      24.354  18.439   5.237  0.00  0.00    -0.399 OA
HETATM   15  H   UNK N   1      24.771  17.954   5.966  0.00  0.00     0.209 HD
ENDBRANCH  13  14
ENDBRANCH   1  13
BRANCH   2  16
HETATM   16  O   UNK N   1      22.659  21.216   2.930  0.00  0.00    -0.391 OA
HETATM   17  H   UNK N   1      23.247  21.386   3.682  0.00  0.00     0.210 HD
ENDBRANCH   2  16
BRANCH   3  18
HETATM   18  O   UNK N   1      20.039  20.791   3.827  0.00  0.00    -0.390 OA
HETATM   19  H   UNK N   1      19.471  20.937   4.599  0.00  0.00     0.210 HD
ENDBRANCH   3  18
BRANCH   4  20
HETATM   20  O   UNK N   1      18.403  18.973   2.446  0.00  0.00    -0.389 OA
HETATM   21  H   UNK N   1      17.863  18.474   1.813  0.00  0.00     0.210 HD
ENDBRANCH   4  20
TORSDOF 5
ENDMDL
MODEL 4
REMARK VINA RESULT:      -5.5     11.873     13.832
REMARK  5 active torsions:
REMARK  status: ('A' for Active; 'I' for Inactive)
REMARK    1  A    between atoms: C_2  and  C_1 
REMARK    2  A    between atoms: O_11  and  C_1 
REMARK    3  A    between atoms: C_3  and  O_12 
REMARK    4  A    between atoms: C_4  and  O_13 
REMARK    5  A    between atoms: C_5  and  O_14 
ROOT
HETATM    1  C   UNK N   1      20.568  19.228   2.558  0.00  0.00     0.144 C 
HETATM    2  C   UNK N   1      20.256  17.827   1.973  0.00  0.00     0.174 C 
HETATM    3  C   UNK N   1      20.227  16.750   3.089  0.00  0.00     0.181 C 
HETATM    4  C   UNK N   1      21.565  16.740   3.871  0.00  0.00     0.192 C 
HETATM    5  C   UNK N   1      21.834  18.136   4.451  0.00  0.00     0.222 A 
HETATM    6  C   UNK N   1      23.829  19.236   4.280  0.00  0.00     0.311 A 
HETATM    7  C   UNK N   1      22.955  19.756   3.273  0.00  0.00     0.313 A 
HETATM    8  N   UNK N   1      23.191  18.278   4.974  0.00  0.00    -0.329 N 
HETATM    9  N   UNK N   1      21.777  19.108   3.368  0.00  0.00    -0.311 N 
HETATM   10  O   UNK N   1      24.979  19.585   4.499  0.00  0.00    -0.262 OA
HETATM   11  O   UNK N   1      23.223  20.624   2.459  0.00  0.00    -0.262 OA
HETATM   12  H   UNK N   1      23.576  17.757   5.716  0.00  0.00     0.165 HD
ENDROOT
BRANCH   1  13
HETATM   13  C   UNK N   1      20.617  20.313   1.470  0.00  0.00     0.192 C 
BRANCH  13  14
HETATM   14  O   UNK N   1      20.633  19.765   0.186  0.00  0.00    -0.399 OA
HETATM   15  H   UNK N   1      20.929  19.547  -0.712  0.00  0.00     0.209 HD
ENDBRANCH  13  14
ENDBRANCH   1  13
BRANCH   2  16
HETATM   16  O   UNK N   1      19.033  17.845   1.296  0.00  0.00    -0.391 OA
HETATM   17  H   UNK N   1      18.389  17.124   1.371  0.00  0.00     0.210 HD
ENDBRANCH   2  16
BRANCH   3  18
HETATM   18  O   UNK N   1      19.164  16.998   3.963  0.00  0.00    -0.390 OA
HETATM   19  H   UNK N   1      18.700  17.064   4.813  0.00  0.00     0.210 HD
ENDBRANCH   3  18
BRANCH   4  20
HETATM   20  O   UNK N   1      21.523  15.793   4.897  0.00  0.00    -0.389 OA
HETATM   21  H   UNK N   1      22.236  15.142   4.991  0.00  0.00     0.210 HD
ENDBRANCH   4  20
TORSDOF 5
ENDMDL
MODEL 5
REMARK VINA RESULT:      -5.4     11.705     13.369
REMARK  5 active torsions:
REMARK  status: ('A' for Active; 'I' for Inactive)
REMARK    1  A    between atoms: C_2  and  C_1 
REMARK    2  A    between atoms: O_11  and  C_1 
REMARK    3  A    between atoms: C_3  and  O_12 
REMARK    4  A    between atoms: C_4  and  O_13 
REMARK    5  A    between atoms: C_5  and  O_14 
ROOT
HETATM    1  C   UNK N   1      22.984  18.485   4.039  0.00  0.00     0.144 C 
HETATM    2  C   UNK N   1      22.142  18.029   5.258  0.00  0.00     0.174 C 
HETATM    3  C   UNK N   1      20.894  17.227   4.806  0.00  0.00     0.181 C 
HETATM    4  C   UNK N   1      20.037  18.061   3.821  0.00  0.00     0.192 C 
HETATM    5  C   UNK N   1      20.895  18.481   2.619  0.00  0.00     0.222 A 
HETATM    6  C   UNK N   1      20.981  20.605   1.780  0.00  0.00     0.311 A 
HETATM    7  C   UNK N   1      22.131  20.416   2.612  0.00  0.00     0.313 A 
HETATM    8  N   UNK N   1      20.240  19.484   1.780  0.00  0.00    -0.329 N 
HETATM    9  N   UNK N   1      22.083  19.164   3.112  0.00  0.00    -0.311 N 
HETATM   10  O   UNK N   1      20.690  21.613   1.156  0.00  0.00    -0.262 OA
HETATM   11  O   UNK N   1      23.000  21.239   2.844  0.00  0.00    -0.262 OA
HETATM   12  H   UNK N   1      19.393  19.357   1.294  0.00  0.00     0.165 HD
ENDROOT
BRANCH   1  13
HETATM   13  C   UNK N   1      24.220  19.296   4.458  0.00  0.00     0.192 C 
BRANCH  13  14
HETATM   14  O   UNK N   1      25.118  18.532   5.204  0.00  0.00    -0.399 OA
HETATM   15  H   UNK N   1      25.501  17.783   5.688  0.00  0.00     0.209 HD
ENDBRANCH  13  14
ENDBRANCH   1  13
BRANCH   2  16
HETATM   16  O   UNK N   1      22.921  17.254   6.121  0.00  0.00    -0.391 OA
HETATM   17  H   UNK N   1      22.695  16.336   6.340  0.00  0.00     0.210 HD
ENDBRANCH   2  16
BRANCH   3  18
HETATM   18  O   UNK N   1      21.291  16.030   4.200  0.00  0.00    -0.390 OA
HETATM   19  H   UNK N   1      21.410  15.072   4.104  0.00  0.00     0.210 HD
ENDBRANCH   3  18
BRANCH   4  20
HETATM   20  O   UNK N   1      18.933  17.323   3.389  0.00  0.00    -0.389 OA
HETATM   21  H   UNK N   1      18.660  17.351   2.459  0.00  0.00     0.210 HD
ENDBRANCH   4  20
TORSDOF 5
ENDMDL
MODEL 6
REMARK VINA RESULT:      -5.4     12.105     13.934
REMARK  5 active torsions:
REMARK  status: ('A' for Active; 'I' for Inactive)
REMARK    1  A    between atoms: C_2  and  C_1 
REMARK    2  A    between atoms: O_11  and  C_1 
REMARK    3  A    between atoms: C_3  and  O_12 
REMARK    4  A    between atoms: C_4  and  O_13 
REMARK    5  A    between atoms: C_5  and  O_14 
ROOT
HETATM    1  C   UNK N   1      20.435  17.726   2.684  0.00  0.00     0.144 C 
HETATM    2  C   UNK N   1      19.453  18.903   2.913  0.00  0.00     0.174 C 
HETATM    3  C   UNK N   1      20.066  20.243   2.427  0.00  0.00     0.181 C 
HETATM    4  C   UNK N   1      21.423  20.508   3.126  0.00  0.00     0.192 C 
HETATM    5  C   UNK N   1      22.376  19.332   2.865  0.00  0.00     0.222 A 
HETATM    6  C   UNK N   1      23.604  18.289   4.484  0.00  0.00     0.311 A 
HETATM    7  C   UNK N   1      22.447  17.487   4.228  0.00  0.00     0.313 A 
HETATM    8  N   UNK N   1      23.574  19.380   3.700  0.00  0.00    -0.329 N 
HETATM    9  N   UNK N   1      21.716  18.100   3.275  0.00  0.00    -0.311 N 
HETATM   10  O   UNK N   1      24.496  18.049   5.282  0.00  0.00    -0.262 OA
HETATM   11  O   UNK N   1      22.156  16.438   4.779  0.00  0.00    -0.262 OA
HETATM   12  H   UNK N   1      24.250  20.096   3.689  0.00  0.00     0.165 HD
ENDROOT
BRANCH   1  13
HETATM   13  C   UNK N   1      19.858  16.387   3.171  0.00  0.00     0.192 C 
BRANCH  13  14
HETATM   14  O   UNK N   1      18.949  16.559   4.216  0.00  0.00    -0.399 OA
HETATM   15  H   UNK N   1      18.428  16.379   5.014  0.00  0.00     0.209 HD
ENDBRANCH  13  14
ENDBRANCH   1  13
BRANCH   2  16
HETATM   16  O   UNK N   1      18.246  18.663   2.252  0.00  0.00    -0.391 OA
HETATM   17  H   UNK N   1      17.935  17.767   2.048  0.00  0.00     0.210 HD
ENDBRANCH   2  16
BRANCH   3  18
HETATM   18  O   UNK N   1      20.241  20.211   1.039  0.00  0.00    -0.390 OA
HETATM   19  H   UNK N   1      20.699  20.329   0.192  0.00  0.00     0.210 HD
ENDBRANCH   3  18
BRANCH   4  20
HETATM   20  O   UNK N   1      21.988  21.697   2.660  0.00  0.00    -0.389 OA
HETATM   21  H   UNK N   1      22.180  21.810   1.716  0.00  0.00     0.210 HD
ENDBRANCH   4  20
TORSDOF 5
ENDMDL
MODEL 7
REMARK VINA RESULT:      -5.3      1.789      5.224
REMARK  5 active torsions:
REMARK  status: ('A' for Active; 'I' for Inactive)
REMARK    1  A    between atoms: C_2  and  C_1 
REMARK    2  A    between atoms: O_11  and  C_1 
REMARK    3  A    between atoms: C_3  and  O_12 
REMARK    4  A    between atoms: C_4  and  O_13 
REMARK    5  A    between atoms: C_5  and  O_14 
ROOT
HETATM    1  C   UNK N   1      35.006  15.939   8.473  0.00  0.00     0.144 C 
HETATM    2  C   UNK N   1      34.754  16.910   9.655  0.00  0.00     0.174 C 
HETATM    3  C   UNK N   1      35.275  16.312  10.988  0.00  0.00     0.181 C 
HETATM    4  C   UNK N   1      34.628  14.931  11.256  0.00  0.00     0.192 C 
HETATM    5  C   UNK N   1      34.911  13.990  10.076  0.00  0.00     0.222 A 
HETATM    6  C   UNK N   1      33.327  12.706   9.046  0.00  0.00     0.311 A 
HETATM    7  C   UNK N   1      33.533  13.874   8.244  0.00  0.00     0.313 A 
HETATM    8  N   UNK N   1      34.120  12.762  10.129  0.00  0.00    -0.329 N 
HETATM    9  N   UNK N   1      34.465  14.637   8.849  0.00  0.00    -0.311 N 
HETATM   10  O   UNK N   1      32.559  11.787   8.812  0.00  0.00    -0.262 OA
HETATM   11  O   UNK N   1      32.962  14.146   7.201  0.00  0.00    -0.262 OA
HETATM   12  H   UNK N   1      34.162  12.086  10.844  0.00  0.00     0.165 HD
ENDROOT
BRANCH   1  13
HETATM   13  C   UNK N   1      34.485  16.501   7.140  0.00  0.00     0.192 C 
BRANCH  13  14
HETATM   14  O   UNK N   1      35.194  15.998   6.048  0.00  0.00    -0.399 OA
HETATM   15  H   UNK N   1      35.407  15.730   5.140  0.00  0.00     0.209 HD
ENDBRANCH  13  14
ENDBRANCH   1  13
BRANCH   2  16
HETATM   16  O   UNK N   1      35.368  18.141   9.411  0.00  0.00    -0.391 OA
HETATM   17  H   UNK N   1      36.328  18.228   9.299  0.00  0.00     0.210 HD
ENDBRANCH   2  16
BRANCH   3  18
HETATM   18  O   UNK N   1      36.667  16.188  10.942  0.00  0.00    -0.390 OA
HETATM   19  H   UNK N   1      37.579  16.417  10.702  0.00  0.00     0.210 HD
ENDBRANCH   3  18
BRANCH   4  20
HETATM   20  O   UNK N   1      35.125  14.380  12.440  0.00  0.00    -0.389 OA
HETATM   21  H   UNK N   1      34.533  13.906  13.044  0.00  0.00     0.210 HD
ENDBRANCH   4  20
TORSDOF 5
ENDMDL
MODEL 8
REMARK VINA RESULT:      -5.2      4.270      5.637
REMARK  5 active torsions:
REMARK  status: ('A' for Active; 'I' for Inactive)
REMARK    1  A    between atoms: C_2  and  C_1 
REMARK    2  A    between atoms: O_11  and  C_1 
REMARK    3  A    between atoms: C_3  and  O_12 
REMARK    4  A    between atoms: C_4  and  O_13 
REMARK    5  A    between atoms: C_5  and  O_14 
ROOT
HETATM    1  C   UNK N   1      30.095  17.072   8.401  0.00  0.00     0.144 C 
HETATM    2  C   UNK N   1      29.778  18.491   8.939  0.00  0.00     0.174 C 
HETATM    3  C   UNK N   1      28.343  18.928   8.547  0.00  0.00     0.181 C 
HETATM    4  C   UNK N   1      28.153  18.862   7.011  0.00  0.00     0.192 C 
HETATM    5  C   UNK N   1      28.457  17.442   6.515  0.00  0.00     0.222 A 
HETATM    6  C   UNK N   1      29.797  16.964   4.727  0.00  0.00     0.311 A 
HETATM    7  C   UNK N   1      30.573  16.781   5.916  0.00  0.00     0.313 A 
HETATM    8  N   UNK N   1      28.557  17.362   5.058  0.00  0.00    -0.329 N 
HETATM    9  N   UNK N   1      29.787  17.064   6.974  0.00  0.00    -0.311 N 
HETATM   10  O   UNK N   1      30.174  16.797   3.577  0.00  0.00    -0.262 OA
HETATM   11  O   UNK N   1      31.742  16.439   5.972  0.00  0.00    -0.262 OA
HETATM   12  H   UNK N   1      27.832  17.565   4.424  0.00  0.00     0.165 HD
ENDROOT
BRANCH   1  13
HETATM   13  C   UNK N   1      31.519  16.619   8.763  0.00  0.00     0.192 C 
BRANCH  13  14
HETATM   14  O   UNK N   1      32.406  17.695   8.839  0.00  0.00    -0.399 OA
HETATM   15  H   UNK N   1      33.099  18.287   9.170  0.00  0.00     0.209 HD
ENDBRANCH  13  14
ENDBRANCH   1  13
BRANCH   2  16
HETATM   16  O   UNK N   1      29.926  18.526  10.329  0.00  0.00    -0.391 OA
HETATM   17  H   UNK N   1      29.794  17.742  10.884  0.00  0.00     0.210 HD
ENDBRANCH   2  16
BRANCH   3  18
HETATM   18  O   UNK N   1      27.405  18.106   9.181  0.00  0.00    -0.390 OA
HETATM   19  H   UNK N   1      26.766  17.835   9.860  0.00  0.00     0.210 HD
ENDBRANCH   3  18
BRANCH   4  20
HETATM   20  O   UNK N   1      26.849  19.224   6.665  0.00  0.00    -0.389 OA
HETATM   21  H   UNK N   1      26.684  19.757   5.872  0.00  0.00     0.210 HD
ENDBRANCH   4  20
TORSDOF 5
ENDMDL
MODEL 9
REMARK VINA RESULT:      -5.2      1.413      4.411
REMARK  5 active torsions:
REMARK  status: ('A' for Active; 'I' for Inactive)
REMARK    1  A    between atoms: C_2  and  C_1 
REMARK    2  A    between atoms: O_11  and  C_1 
REMARK    3  A    between atoms: C_3  and  O_12 
REMARK    4  A    between atoms: C_4  and  O_13 
REMARK    5  A    between atoms: C_5  and  O_14 
ROOT
HETATM    1  C   UNK N   1      34.517  16.830   8.398  0.00  0.00     0.144 C 
HETATM    2  C   UNK N   1      34.574  16.634   9.934  0.00  0.00     0.174 C 
HETATM    3  C   UNK N   1      34.830  15.148  10.297  0.00  0.00     0.181 C 
HETATM    4  C   UNK N   1      33.751  14.237   9.660  0.00  0.00     0.192 C 
HETATM    5  C   UNK N   1      33.734  14.443   8.139  0.00  0.00     0.222 A 
HETATM    6  C   UNK N   1      31.839  14.779   6.908  0.00  0.00     0.311 A 
HETATM    7  C   UNK N   1      32.444  16.056   7.136  0.00  0.00     0.313 A 
HETATM    8  N   UNK N   1      32.577  13.823   7.497  0.00  0.00    -0.329 N 
HETATM    9  N   UNK N   1      33.562  15.863   7.865  0.00  0.00    -0.311 N 
HETATM   10  O   UNK N   1      30.813  14.559   6.283  0.00  0.00    -0.262 OA
HETATM   11  O   UNK N   1      32.024  17.135   6.754  0.00  0.00    -0.262 OA
HETATM   12  H   UNK N   1      32.371  12.860   7.497  0.00  0.00     0.165 HD
ENDROOT
BRANCH   1  13
HETATM   13  C   UNK N   1      34.249  18.293   8.010  0.00  0.00     0.192 C 
BRANCH  13  14
HETATM   14  O   UNK N   1      35.282  19.140   8.414  0.00  0.00    -0.399 OA
HETATM   15  H   UNK N   1      35.756  19.850   8.875  0.00  0.00     0.209 HD
ENDBRANCH  13  14
ENDBRANCH   1  13
BRANCH   2  16
HETATM   16  O   UNK N   1      35.571  17.440  10.490  0.00  0.00    -0.391 OA
HETATM   17  H   UNK N   1      35.554  17.719  11.419  0.00  0.00     0.210 HD
ENDBRANCH   2  16
BRANCH   3  18
HETATM   18  O   UNK N   1      36.102  14.763   9.858  0.00  0.00    -0.390 OA
HETATM   19  H   UNK N   1      36.949  14.290   9.874  0.00  0.00     0.210 HD
ENDBRANCH   3  18
BRANCH   4  20
HETATM   20  O   UNK N   1      34.005  12.896   9.961  0.00  0.00    -0.389 OA
HETATM   21  H   UNK N   1      33.962  12.223   9.264  0.00  0.00     0.210 HD
ENDBRANCH   4  20
TORSDOF 5
ENDMDL
