MODEL 1
REMARK VINA RESULT:      -4.1      0.000      0.000
REMARK  2 active torsions:
REMARK  status: ('A' for Active; 'I' for Inactive)
REMARK    1  A    between atoms: C_3  and  O_5 
REMARK    2  A    between atoms: C_4  and  O_6 
ROOT
HETATM    1  C   UNK N   1      21.626  19.413   3.735  0.00  0.00     0.120 A 
HETATM    2  C   UNK N   1      20.323  18.573   0.931  0.00  0.00     0.120 A 
HETATM    3  C   UNK N   1      21.515  20.416   2.584  0.00  0.00     0.157 A 
HETATM    4  C   UNK N   1      20.858  19.961   1.224  0.00  0.00     0.157 A 
HETATM    5  S   UNK N   1      21.127  17.652   3.858  0.00  0.00    -0.095 SA
HETATM    6  S   UNK N   1      20.262  17.108   1.997  0.00  0.00    -0.095 SA
ENDROOT
BRANCH   3   7
HETATM    7  O   UNK N   1      21.974  21.742   2.726  0.00  0.00    -0.392 OA
HETATM    8  H   UNK N   1      22.781  22.027   2.269  0.00  0.00     0.210 HD
ENDBRANCH   3   7
BRANCH   4   9
HETATM    9  O   UNK N   1      20.602  20.583   0.004  0.00  0.00    -0.392 OA
HETATM   10  H   UNK N   1      20.646  21.549  -0.067  0.00  0.00     0.210 HD
ENDBRANCH   4   9
TORSDOF 2
ENDMDL
MODEL 2
REMARK VINA RESULT:      -4.0      0.313      2.646
REMARK  2 active torsions:
REMARK  status: ('A' for Active; 'I' for Inactive)
REMARK    1  A    between atoms: C_3  and  O_5 
REMARK    2  A    between atoms: C_4  and  O_6 
ROOT
HETATM    1  C   UNK N   1      20.272  18.277   1.084  0.00  0.00     0.120 A 
HETATM    2  C   UNK N   1      21.428  19.632   3.748  0.00  0.00     0.120 A 
HETATM    3  C   UNK N   1      20.703  19.746   1.099  0.00  0.00     0.157 A 
HETATM    4  C   UNK N   1      21.275  20.368   2.431  0.00  0.00     0.157 A 
HETATM    5  S   UNK N   1      20.271  17.002   2.402  0.00  0.00    -0.095 SA
HETATM    6  S   UNK N   1      21.042  17.910   4.160  0.00  0.00    -0.095 SA
ENDROOT
BRANCH   3   7
HETATM    7  O   UNK N   1      20.613  20.545  -0.060  0.00  0.00    -0.392 OA
HETATM    8  H   UNK N   1      20.205  21.424  -0.012  0.00  0.00     0.210 HD
ENDBRANCH   3   7
BRANCH   4   9
HETATM    9  O   UNK N   1      21.746  21.627   2.801  0.00  0.00    -0.392 OA
HETATM   10  H   UNK N   1      22.081  22.237   2.126  0.00  0.00     0.210 HD
ENDBRANCH   4   9
TORSDOF 2
ENDMDL
MODEL 3
REMARK VINA RESULT:      -3.9     14.189     15.020
REMARK  2 active torsions:
REMARK  status: ('A' for Active; 'I' for Inactive)
REMARK    1  A    between atoms: C_3  and  O_5 
REMARK    2  A    between atoms: C_4  and  O_6 
ROOT
HETATM    1  C   UNK N   1      33.903  17.680   6.989  0.00  0.00     0.120 A 
HETATM    2  C   UNK N   1      33.805  15.665   9.478  0.00  0.00     0.120 A 
HETATM    3  C   UNK N   1      34.581  18.031   8.315  0.00  0.00     0.157 A 
HETATM    4  C   UNK N   1      34.515  17.004   9.511  0.00  0.00     0.157 A 
HETATM    5  S   UNK N   1      32.944  16.204   6.473  0.00  0.00    -0.095 SA
HETATM    6  S   UNK N   1      32.889  14.875   8.128  0.00  0.00    -0.095 SA
ENDROOT
BRANCH   3   7
HETATM    7  O   UNK N   1      35.277  19.247   8.479  0.00  0.00    -0.392 OA
HETATM    8  H   UNK N   1      35.153  19.966   7.841  0.00  0.00     0.210 HD
ENDBRANCH   3   7
BRANCH   4   9
HETATM    9  O   UNK N   1      34.999  16.991  10.818  0.00  0.00    -0.392 OA
HETATM   10  H   UNK N   1      35.906  16.698  10.996  0.00  0.00     0.210 HD
ENDBRANCH   4   9
TORSDOF 2
ENDMDL
MODEL 4
REMARK VINA RESULT:      -3.8     11.946     12.269
REMARK  2 active torsions:
REMARK  status: ('A' for Active; 'I' for Inactive)
REMARK    1  A    between atoms: C_3  and  O_5 
REMARK    2  A    between atoms: C_4  and  O_6 
ROOT
HETATM    1  C   UNK N   1      29.776  22.857  -3.838  0.00  0.00     0.120 A 
HETATM    2  C   UNK N   1      32.309  20.921  -4.159  0.00  0.00     0.120 A 
HETATM    3  C   UNK N   1      30.682  22.539  -2.645  0.00  0.00     0.157 A 
HETATM    4  C   UNK N   1      31.923  21.588  -2.853  0.00  0.00     0.157 A 
HETATM    5  S   UNK N   1      29.836  22.305  -5.585  0.00  0.00    -0.095 SA
HETATM    6  S   UNK N   1      31.519  21.027  -5.787  0.00  0.00    -0.095 SA
ENDROOT
BRANCH   3   7
HETATM    7  O   UNK N   1      30.435  23.093  -1.373  0.00  0.00    -0.392 OA
HETATM    8  H   UNK N   1      30.440  22.525  -0.586  0.00  0.00     0.210 HD
ENDBRANCH   3   7
BRANCH   4   9
HETATM    9  O   UNK N   1      32.927  21.093  -2.022  0.00  0.00    -0.392 OA
HETATM   10  H   UNK N   1      32.792  21.063  -1.063  0.00  0.00     0.210 HD
ENDBRANCH   4   9
TORSDOF 2
ENDMDL
MODEL 5
REMARK VINA RESULT:      -3.8     11.952     12.283
REMARK  2 active torsions:
REMARK  status: ('A' for Active; 'I' for Inactive)
REMARK    1  A    between atoms: C_3  and  O_5 
REMARK    2  A    between atoms: C_4  and  O_6 
ROOT
HETATM    1  C   UNK N   1      32.193  21.080  -4.445  0.00  0.00     0.120 A 
HETATM    2  C   UNK N   1      29.793  23.021  -3.583  0.00  0.00     0.120 A 
HETATM    3  C   UNK N   1      32.029  21.535  -2.993  0.00  0.00     0.157 A 
HETATM    4  C   UNK N   1      30.827  22.483  -2.613  0.00  0.00     0.157 A 
HETATM    5  S   UNK N   1      31.212  21.453  -5.949  0.00  0.00    -0.095 SA
HETATM    6  S   UNK N   1      29.624  22.736  -5.365  0.00  0.00    -0.095 SA
ENDROOT
BRANCH   3   7
HETATM    7  O   UNK N   1      32.922  21.108  -1.989  0.00  0.00    -0.392 OA
HETATM    8  H   UNK N   1      33.166  21.710  -1.268  0.00  0.00     0.210 HD
ENDBRANCH   3   7
BRANCH   4   9
HETATM    9  O   UNK N   1      30.384  23.078  -1.433  0.00  0.00    -0.392 OA
HETATM   10  H   UNK N   1      29.594  22.738  -0.985  0.00  0.00     0.210 HD
ENDBRANCH   4   9
TORSDOF 2
ENDMDL
MODEL 6
REMARK VINA RESULT:      -3.8     14.219     14.935
REMARK  2 active torsions:
REMARK  status: ('A' for Active; 'I' for Inactive)
REMARK    1  A    between atoms: C_3  and  O_5 
REMARK    2  A    between atoms: C_4  and  O_6 
ROOT
HETATM    1  C   UNK N   1      33.700  15.539   9.368  0.00  0.00     0.120 A 
HETATM    2  C   UNK N   1      33.978  17.829   7.143  0.00  0.00     0.120 A 
HETATM    3  C   UNK N   1      34.492  16.819   9.647  0.00  0.00     0.157 A 
HETATM    4  C   UNK N   1      34.594  17.923   8.525  0.00  0.00     0.157 A 
HETATM    5  S   UNK N   1      32.789  14.980   7.877  0.00  0.00    -0.095 SA
HETATM    6  S   UNK N   1      32.977  16.505   6.413  0.00  0.00    -0.095 SA
ENDROOT
BRANCH   3   7
HETATM    7  O   UNK N   1      35.117  17.033  10.893  0.00  0.00    -0.392 OA
HETATM    8  H   UNK N   1      34.870  16.491  11.659  0.00  0.00     0.210 HD
ENDBRANCH   3   7
BRANCH   4   9
HETATM    9  O   UNK N   1      35.213  19.168   8.430  0.00  0.00    -0.392 OA
HETATM   10  H   UNK N   1      34.677  19.976   8.417  0.00  0.00     0.210 HD
ENDBRANCH   4   9
TORSDOF 2
ENDMDL
MODEL 7
REMARK VINA RESULT:      -3.6     22.297     22.906
REMARK  2 active torsions:
REMARK  status: ('A' for Active; 'I' for Inactive)
REMARK    1  A    between atoms: C_3  and  O_5 
REMARK    2  A    between atoms: C_4  and  O_6 
ROOT
HETATM    1  C   UNK N   1      44.648  20.180   3.243  0.00  0.00     0.120 A 
HETATM    2  C   UNK N   1      42.294  22.300   2.763  0.00  0.00     0.120 A 
HETATM    3  C   UNK N   1      44.799  21.639   3.681  0.00  0.00     0.157 A 
HETATM    4  C   UNK N   1      43.610  22.646   3.433  0.00  0.00     0.157 A 
HETATM    5  S   UNK N   1      43.268  19.302   2.413  0.00  0.00    -0.095 SA
HETATM    6  S   UNK N   1      41.714  20.715   2.104  0.00  0.00    -0.095 SA
ENDROOT
BRANCH   3   7
HETATM    7  O   UNK N   1      45.974  22.092   4.316  0.00  0.00    -0.392 OA
HETATM    8  H   UNK N   1      46.682  22.499   3.792  0.00  0.00     0.210 HD
ENDBRANCH   3   7
BRANCH   4   9
HETATM    9  O   UNK N   1      43.404  24.000   3.688  0.00  0.00    -0.392 OA
HETATM   10  H   UNK N   1      44.159  24.609   3.713  0.00  0.00     0.210 HD
ENDBRANCH   4   9
TORSDOF 2
ENDMDL
MODEL 8
REMARK VINA RESULT:      -3.5      9.390     10.511
REMARK  2 active torsions:
REMARK  status: ('A' for Active; 'I' for Inactive)
REMARK    1  A    between atoms: C_3  and  O_5 
REMARK    2  A    between atoms: C_4  and  O_6 
ROOT
HETATM    1  C   UNK N   1      30.873  17.534   8.503  0.00  0.00     0.120 A 
HETATM    2  C   UNK N   1      28.269  18.254   6.779  0.00  0.00     0.120 A 
HETATM    3  C   UNK N   1      29.722  18.341   9.110  0.00  0.00     0.157 A 
HETATM    4  C   UNK N   1      28.456  18.664   8.226  0.00  0.00     0.157 A 
HETATM    5  S   UNK N   1      31.102  16.827   6.826  0.00  0.00    -0.095 SA
HETATM    6  S   UNK N   1      29.371  17.306   5.695  0.00  0.00    -0.095 SA
ENDROOT
BRANCH   3   7
HETATM    7  O   UNK N   1      29.769  18.784  10.448  0.00  0.00    -0.392 OA
HETATM    8  H   UNK N   1      28.956  18.821  10.975  0.00  0.00     0.210 HD
ENDBRANCH   3   7
BRANCH   4   9
HETATM    9  O   UNK N   1      27.263  19.352   8.439  0.00  0.00    -0.392 OA
HETATM   10  H   UNK N   1      26.689  19.109   9.182  0.00  0.00     0.210 HD
ENDBRANCH   4   9
TORSDOF 2
ENDMDL
MODEL 9
REMARK VINA RESULT:      -3.3     17.321     18.382
REMARK  2 active torsions:
REMARK  status: ('A' for Active; 'I' for Inactive)
REMARK    1  A    between atoms: C_3  and  O_5 
REMARK    2  A    between atoms: C_4  and  O_6 
ROOT
HETATM    1  C   UNK N   1      36.765  12.946  12.378  0.00  0.00     0.120 A 
HETATM    2  C   UNK N   1      35.248  14.522  10.037  0.00  0.00     0.120 A 
HETATM    3  C   UNK N   1      35.366  13.529  12.597  0.00  0.00     0.157 A 
HETATM    4  C   UNK N   1      34.654  14.290  11.412  0.00  0.00     0.157 A 
HETATM    5  S   UNK N   1      37.869  12.965  10.914  0.00  0.00    -0.095 SA
HETATM    6  S   UNK N   1      36.853  14.008   9.370  0.00  0.00    -0.095 SA
ENDROOT
BRANCH   3   7
HETATM    7  O   UNK N   1      34.700  13.384  13.831  0.00  0.00    -0.392 OA
HETATM    8  H   UNK N   1      35.115  13.704  14.647  0.00  0.00     0.210 HD
ENDBRANCH   3   7
BRANCH   4   9
HETATM    9  O   UNK N   1      33.426  14.931  11.258  0.00  0.00    -0.392 OA
HETATM   10  H   UNK N   1      32.871  14.735  10.488  0.00  0.00     0.210 HD
ENDBRANCH   4   9
TORSDOF 2
ENDMDL
