MODEL 1
REMARK VINA RESULT:      -4.9      0.000      0.000
REMARK  4 active torsions:
REMARK  status: ('A' for Active; 'I' for Inactive)
REMARK    1  A    between atoms: O_1  and  C_2 
REMARK    2  A    between atoms: C_2  and  C_4 
REMARK    3  A    between atoms: C_4  and  C_6 
REMARK    4  A    between atoms: C_6  and  C_7 
ROOT
HETATM    1  C   UNK N   1      34.736  16.603  10.003  0.00  0.00     0.231 C 
HETATM    2  O   UNK N   1      35.695  17.142  10.540  0.00  0.00    -0.285 OA
ENDROOT
BRANCH   1   3
HETATM    3  C   UNK N   1      34.386  15.214  10.354  0.00  0.00     0.214 C 
HETATM    4  O   UNK N   1      35.027  14.285   9.885  0.00  0.00    -0.644 OA
BRANCH   3   5
HETATM    5  O   UNK N   1      33.363  14.959  11.190  0.00  0.00    -0.771 OA
HETATM    6  H   UNK N   1      33.360  14.172  11.701  0.00  0.00     0.167 HD
ENDBRANCH   3   5
ENDBRANCH   1   3
BRANCH   1   7
HETATM    7  C   UNK N   1      33.892  17.327   8.982  0.00  0.00     0.203 C 
BRANCH   7   8
HETATM    8  C   UNK N   1      34.568  18.253   8.006  0.00  0.00     0.180 C 
HETATM    9  O   UNK N   1      35.271  19.296   8.484  0.00  0.00    -0.648 OA
HETATM   10  O   UNK N   1      34.492  18.081   6.800  0.00  0.00    -0.648 OA
ENDBRANCH   7   8
ENDBRANCH   1   7
TORSDOF 4
ENDMDL
MODEL 2
REMARK VINA RESULT:      -4.7      1.192      2.270
REMARK  4 active torsions:
REMARK  status: ('A' for Active; 'I' for Inactive)
REMARK    1  A    between atoms: O_1  and  C_2 
REMARK    2  A    between atoms: C_2  and  C_4 
REMARK    3  A    between atoms: C_4  and  C_6 
REMARK    4  A    between atoms: C_6  and  C_7 
ROOT
HETATM    1  C   UNK N   1      34.909  16.105   9.479  0.00  0.00     0.231 C 
HETATM    2  O   UNK N   1      34.988  14.999   8.961  0.00  0.00    -0.285 OA
ENDROOT
BRANCH   1   3
HETATM    3  C   UNK N   1      35.718  16.414  10.672  0.00  0.00     0.214 C 
HETATM    4  O   UNK N   1      35.230  17.054  11.593  0.00  0.00    -0.644 OA
BRANCH   3   5
HETATM    5  O   UNK N   1      36.994  15.995  10.759  0.00  0.00    -0.771 OA
HETATM    6  H   UNK N   1      37.678  16.489  10.350  0.00  0.00     0.167 HD
ENDBRANCH   3   5
ENDBRANCH   1   3
BRANCH   1   7
HETATM    7  C   UNK N   1      33.997  17.173   8.924  0.00  0.00     0.203 C 
BRANCH   7   8
HETATM    8  C   UNK N   1      34.583  18.243   8.043  0.00  0.00     0.180 C 
HETATM    9  O   UNK N   1      34.380  18.170   6.714  0.00  0.00    -0.648 OA
HETATM   10  O   UNK N   1      35.232  19.168   8.503  0.00  0.00    -0.648 OA
ENDBRANCH   7   8
ENDBRANCH   1   7
TORSDOF 4
ENDMDL
MODEL 3
REMARK VINA RESULT:      -4.6     12.018     13.341
REMARK  4 active torsions:
REMARK  status: ('A' for Active; 'I' for Inactive)
REMARK    1  A    between atoms: O_1  and  C_2 
REMARK    2  A    between atoms: C_2  and  C_4 
REMARK    3  A    between atoms: C_4  and  C_6 
REMARK    4  A    between atoms: C_6  and  C_7 
ROOT
HETATM    1  C   UNK N   1      22.649  11.823  10.804  0.00  0.00     0.231 C 
HETATM    2  O   UNK N   1      23.044  11.258   9.793  0.00  0.00    -0.285 OA
ENDROOT
BRANCH   1   3
HETATM    3  C   UNK N   1      23.564  12.000  11.947  0.00  0.00     0.214 C 
HETATM    4  O   UNK N   1      23.141  11.901  13.090  0.00  0.00    -0.644 OA
BRANCH   3   5
HETATM    5  O   UNK N   1      24.866  12.272  11.743  0.00  0.00    -0.771 OA
HETATM    6  H   UNK N   1      25.428  12.449  12.472  0.00  0.00     0.167 HD
ENDBRANCH   3   5
ENDBRANCH   1   3
BRANCH   1   7
HETATM    7  C   UNK N   1      21.238  12.349  10.917  0.00  0.00     0.203 C 
BRANCH   7   8
HETATM    8  C   UNK N   1      20.842  13.548  10.097  0.00  0.00     0.180 C 
HETATM    9  O   UNK N   1      19.534  13.791   9.896  0.00  0.00    -0.648 OA
HETATM   10  O   UNK N   1      21.675  14.298   9.615  0.00  0.00    -0.648 OA
ENDBRANCH   7   8
ENDBRANCH   1   7
TORSDOF 4
ENDMDL
MODEL 4
REMARK VINA RESULT:      -4.6      1.487      2.643
REMARK  4 active torsions:
REMARK  status: ('A' for Active; 'I' for Inactive)
REMARK    1  A    between atoms: O_1  and  C_2 
REMARK    2  A    between atoms: C_2  and  C_4 
REMARK    3  A    between atoms: C_4  and  C_6 
REMARK    4  A    between atoms: C_6  and  C_7 
ROOT
HETATM    1  C   UNK N   1      34.556  18.211   8.446  0.00  0.00     0.231 C 
HETATM    2  O   UNK N   1      35.296  19.185   8.425  0.00  0.00    -0.285 OA
ENDROOT
BRANCH   1   3
HETATM    3  C   UNK N   1      34.687  17.215   9.527  0.00  0.00     0.214 C 
HETATM    4  O   UNK N   1      35.630  17.276  10.303  0.00  0.00    -0.644 OA
BRANCH   3   5
HETATM    5  O   UNK N   1      33.774  16.237   9.667  0.00  0.00    -0.771 OA
HETATM    6  H   UNK N   1      33.275  15.951   8.927  0.00  0.00     0.167 HD
ENDBRANCH   3   5
ENDBRANCH   1   3
BRANCH   1   7
HETATM    7  C   UNK N   1      33.502  17.995   7.387  0.00  0.00     0.203 C 
BRANCH   7   8
HETATM    8  C   UNK N   1      33.889  17.308   6.105  0.00  0.00     0.180 C 
HETATM    9  O   UNK N   1      33.210  17.603   4.981  0.00  0.00    -0.648 OA
HETATM   10  O   UNK N   1      34.799  16.496   6.063  0.00  0.00    -0.648 OA
ENDBRANCH   7   8
ENDBRANCH   1   7
TORSDOF 4
ENDMDL
MODEL 5
REMARK VINA RESULT:      -4.5      1.223      3.909
REMARK  4 active torsions:
REMARK  status: ('A' for Active; 'I' for Inactive)
REMARK    1  A    between atoms: O_1  and  C_2 
REMARK    2  A    between atoms: C_2  and  C_4 
REMARK    3  A    between atoms: C_4  and  C_6 
REMARK    4  A    between atoms: C_6  and  C_7 
ROOT
HETATM    1  C   UNK N   1      33.454  17.339   8.581  0.00  0.00     0.231 C 
HETATM    2  O   UNK N   1      32.273  17.630   8.719  0.00  0.00    -0.285 OA
ENDROOT
BRANCH   1   3
HETATM    3  C   UNK N   1      34.334  18.213   7.783  0.00  0.00     0.214 C 
HETATM    4  O   UNK N   1      34.402  18.069   6.571  0.00  0.00    -0.644 OA
BRANCH   3   5
HETATM    5  O   UNK N   1      35.067  19.171   8.380  0.00  0.00    -0.771 OA
HETATM    6  H   UNK N   1      35.131  19.197   9.315  0.00  0.00     0.167 HD
ENDBRANCH   3   5
ENDBRANCH   1   3
BRANCH   1   7
HETATM    7  C   UNK N   1      34.041  16.099   9.211  0.00  0.00     0.203 C 
BRANCH   7   8
HETATM    8  C   UNK N   1      34.876  16.241  10.455  0.00  0.00     0.180 C 
HETATM    9  O   UNK N   1      35.730  17.278  10.546  0.00  0.00    -0.648 OA
HETATM   10  O   UNK N   1      34.797  15.443  11.375  0.00  0.00    -0.648 OA
ENDBRANCH   7   8
ENDBRANCH   1   7
TORSDOF 4
ENDMDL
MODEL 6
REMARK VINA RESULT:      -4.4     13.808     15.204
REMARK  4 active torsions:
REMARK  status: ('A' for Active; 'I' for Inactive)
REMARK    1  A    between atoms: O_1  and  C_2 
REMARK    2  A    between atoms: C_2  and  C_4 
REMARK    3  A    between atoms: C_4  and  C_6 
REMARK    4  A    between atoms: C_6  and  C_7 
ROOT
HETATM    1  C   UNK N   1      20.988  20.263   2.890  0.00  0.00     0.231 C 
HETATM    2  O   UNK N   1      20.234  20.744   3.726  0.00  0.00    -0.285 OA
ENDROOT
BRANCH   1   3
HETATM    3  C   UNK N   1      20.748  20.516   1.457  0.00  0.00     0.214 C 
HETATM    4  O   UNK N   1      20.704  21.663   1.037  0.00  0.00    -0.644 OA
BRANCH   3   5
HETATM    5  O   UNK N   1      20.577  19.490   0.603  0.00  0.00    -0.771 OA
HETATM    6  H   UNK N   1      21.314  18.977   0.333  0.00  0.00     0.167 HD
ENDBRANCH   3   5
ENDBRANCH   1   3
BRANCH   1   7
HETATM    7  C   UNK N   1      22.168  19.409   3.289  0.00  0.00     0.203 C 
BRANCH   7   8
HETATM    8  C   UNK N   1      23.544  20.019   3.274  0.00  0.00     0.180 C 
HETATM    9  O   UNK N   1      23.670  21.325   2.978  0.00  0.00    -0.648 OA
HETATM   10  O   UNK N   1      24.540  19.359   3.523  0.00  0.00    -0.648 OA
ENDBRANCH   7   8
ENDBRANCH   1   7
TORSDOF 4
ENDMDL
MODEL 7
REMARK VINA RESULT:      -4.4     15.742     16.803
REMARK  4 active torsions:
REMARK  status: ('A' for Active; 'I' for Inactive)
REMARK    1  A    between atoms: O_1  and  C_2 
REMARK    2  A    between atoms: C_2  and  C_4 
REMARK    3  A    between atoms: C_4  and  C_6 
REMARK    4  A    between atoms: C_6  and  C_7 
ROOT
HETATM    1  C   UNK N   1      20.170  19.120   2.152  0.00  0.00     0.231 C 
HETATM    2  O   UNK N   1      19.190  19.443   2.810  0.00  0.00    -0.285 OA
ENDROOT
BRANCH   1   3
HETATM    3  C   UNK N   1      20.903  20.142   1.381  0.00  0.00     0.214 C 
HETATM    4  O   UNK N   1      21.664  20.909   1.952  0.00  0.00    -0.644 OA
BRANCH   3   5
HETATM    5  O   UNK N   1      20.740  20.238   0.049  0.00  0.00    -0.771 OA
HETATM    6  H   UNK N   1      19.984  19.864  -0.360  0.00  0.00     0.167 HD
ENDBRANCH   3   5
ENDBRANCH   1   3
BRANCH   1   7
HETATM    7  C   UNK N   1      20.655  17.691   2.105  0.00  0.00     0.203 C 
BRANCH   7   8
HETATM    8  C   UNK N   1      20.205  16.808   0.972  0.00  0.00     0.180 C 
HETATM    9  O   UNK N   1      20.334  17.257  -0.290  0.00  0.00    -0.648 OA
HETATM   10  O   UNK N   1      19.730  15.701   1.171  0.00  0.00    -0.648 OA
ENDBRANCH   7   8
ENDBRANCH   1   7
TORSDOF 4
ENDMDL
MODEL 8
REMARK VINA RESULT:      -4.3      2.167      3.907
REMARK  4 active torsions:
REMARK  status: ('A' for Active; 'I' for Inactive)
REMARK    1  A    between atoms: O_1  and  C_2 
REMARK    2  A    between atoms: C_2  and  C_4 
REMARK    3  A    between atoms: C_4  and  C_6 
REMARK    4  A    between atoms: C_6  and  C_7 
ROOT
HETATM    1  C   UNK N   1      33.797  17.801   7.269  0.00  0.00     0.231 C 
HETATM    2  O   UNK N   1      34.377  17.768   6.191  0.00  0.00    -0.285 OA
ENDROOT
BRANCH   1   3
HETATM    3  C   UNK N   1      34.537  18.186   8.485  0.00  0.00     0.214 C 
HETATM    4  O   UNK N   1      35.271  19.164   8.471  0.00  0.00    -0.644 OA
BRANCH   3   5
HETATM    5  O   UNK N   1      34.411  17.468   9.616  0.00  0.00    -0.771 OA
HETATM    6  H   UNK N   1      33.604  17.482  10.093  0.00  0.00     0.167 HD
ENDBRANCH   3   5
ENDBRANCH   1   3
BRANCH   1   7
HETATM    7  C   UNK N   1      32.332  17.456   7.390  0.00  0.00     0.203 C 
BRANCH   7   8
HETATM    8  C   UNK N   1      31.940  16.020   7.610  0.00  0.00     0.180 C 
HETATM    9  O   UNK N   1      32.422  15.375   8.688  0.00  0.00    -0.648 OA
HETATM   10  O   UNK N   1      31.199  15.432   6.838  0.00  0.00    -0.648 OA
ENDBRANCH   7   8
ENDBRANCH   1   7
TORSDOF 4
ENDMDL
MODEL 9
REMARK VINA RESULT:      -4.3     15.317     16.194
REMARK  4 active torsions:
REMARK  status: ('A' for Active; 'I' for Inactive)
REMARK    1  A    between atoms: O_1  and  C_2 
REMARK    2  A    between atoms: C_2  and  C_4 
REMARK    3  A    between atoms: C_4  and  C_6 
REMARK    4  A    between atoms: C_6  and  C_7 
ROOT
HETATM    1  C   UNK N   1      20.633  19.478   3.351  0.00  0.00     0.231 C 
HETATM    2  O   UNK N   1      20.646  19.942   4.483  0.00  0.00    -0.285 OA
ENDROOT
BRANCH   1   3
HETATM    3  C   UNK N   1      19.716  18.369   3.025  0.00  0.00     0.214 C 
HETATM    4  O   UNK N   1      19.882  17.269   3.532  0.00  0.00    -0.644 OA
BRANCH   3   5
HETATM    5  O   UNK N   1      18.693  18.559   2.171  0.00  0.00    -0.771 OA
HETATM    6  H   UNK N   1      18.808  18.387   1.257  0.00  0.00     0.167 HD
ENDBRANCH   3   5
ENDBRANCH   1   3
BRANCH   1   7
HETATM    7  C   UNK N   1      21.538  20.012   2.267  0.00  0.00     0.203 C 
BRANCH   7   8
HETATM    8  C   UNK N   1      20.919  20.639   1.046  0.00  0.00     0.180 C 
HETATM    9  O   UNK N   1      20.654  19.859  -0.018  0.00  0.00    -0.648 OA
HETATM   10  O   UNK N   1      20.655  21.830   1.001  0.00  0.00    -0.648 OA
ENDBRANCH   7   8
ENDBRANCH   1   7
TORSDOF 4
ENDMDL
