MODEL 1
REMARK VINA RESULT:      -7.8      0.000      0.000
REMARK  9 active torsions:
REMARK  status: ('A' for Active; 'I' for Inactive)
REMARK    1  A    between atoms: C_42  and  C_6 
REMARK    2  A    between atoms: C_43  and  C_7 
REMARK    3  A    between atoms: C_20  and  C_16 
REMARK    4  A    between atoms: N_52  and  C_20 
REMARK    5  A    between atoms: C_45  and  C_32 
REMARK    6  A    between atoms: O_57  and  C_35 
REMARK    7  A    between atoms: C_45  and  C_40 
REMARK    8  A    between atoms: O_58  and  C_40 
REMARK    9  A    between atoms: C_43  and  O_56 
ROOT
HETATM    1  C   UNK N   1      24.134  18.775   3.818  0.00  0.00     0.150 C 
HETATM    2  C   UNK N   1      28.881  13.106   2.942  0.00  0.00    -0.000 C 
HETATM    3  C   UNK N   1      29.112  14.327   3.422  0.00  0.00    -0.017 C 
HETATM    4  C   UNK N   1      25.649  15.337   2.166  0.00  0.00     0.049 C 
HETATM    5  C   UNK N   1      27.589  12.409   3.218  0.00  0.00     0.300 C 
HETATM    6  C   UNK N   1      26.181  13.924   1.920  0.00  0.00     0.274 C 
HETATM    7  C   UNK N   1      23.445  14.030   4.529  0.00  0.00     0.022 A 
HETATM    8  C   UNK N   1      22.389  16.574   5.125  0.00  0.00     0.067 A 
HETATM    9  C   UNK N   1      28.125  16.587   3.589  0.00  0.00     0.067 C 
HETATM   10  C   UNK N   1      24.098  15.199   4.141  0.00  0.00    -0.018 A 
HETATM   11  C   UNK N   1      22.221  14.116   5.255  0.00  0.00     0.000 A 
HETATM   12  C   UNK N   1      23.542  16.422   4.412  0.00  0.00     0.040 A 
HETATM   13  C   UNK N   1      21.744  15.435   5.611  0.00  0.00     0.078 A 
HETATM   14  C   UNK N   1      26.621  14.456   4.169  0.00  0.00     0.250 C 
HETATM   15  C   UNK N   1      25.749  16.807   4.314  0.00  0.00     0.144 C 
HETATM   16  C   UNK N   1      27.374  18.326   5.379  0.00  0.00     0.266 A 
HETATM   17  C   UNK N   1      27.045  19.824   3.892  0.00  0.00     0.370 A 
HETATM   18  C   UNK N   1      28.086  15.135   4.188  0.00  0.00     0.012 C 
HETATM   19  C   UNK N   1      25.544  15.419   3.681  0.00  0.00     0.046 C 
HETATM   20  C   UNK N   1      27.041  17.576   4.093  0.00  0.00     0.175 A 
HETATM   21  N   UNK N   1      24.462  17.428   4.216  0.00  0.00    -0.375 N 
HETATM   22  N   UNK N   1      26.463  13.339   3.233  0.00  0.00     0.098 N 
HETATM   23  N   UNK N   1      27.322  19.638   5.185  0.00  0.00    -0.260 N 
HETATM   24  O   UNK N   1      27.602  17.818   6.471  0.00  0.00    -0.269 OA
HETATM   25  O   UNK N   1      26.911  20.926   3.379  0.00  0.00    -0.238 OA
HETATM   26  O   UNK N   1      26.886  18.657   3.216  0.00  0.00    -0.280 OA
ENDROOT
BRANCH  11  27
HETATM   27  C   UNK N   1      21.595  12.794   5.795  0.00  0.00     0.121 C 
HETATM   28  C   UNK N   1      20.071  12.625   5.454  0.00  0.00     0.038 C 
HETATM   29  C   UNK N   1      19.511  12.740   4.001  0.00  0.00     0.018 C 
HETATM   30  C   UNK N   1      20.545  13.076   2.913  0.00  0.00     0.046 C 
HETATM   31  C   UNK N   1      18.611  11.567   3.599  0.00  0.00     0.277 C 
HETATM   32  C   UNK N   1      19.957  12.875   1.518  0.00  0.00     0.084 C 
HETATM   33  C   UNK N   1      19.609  11.385   1.347  0.00  0.00     0.310 C 
HETATM   34  N   UNK N   1      19.227  10.682   2.592  0.00  0.00     0.092 N 
HETATM   35  C   UNK N   1      20.399   9.943   3.073  0.00  0.00     0.277 C 
HETATM   36  C   UNK N   1      20.506   9.878   4.593  0.00  0.00     0.072 C 
HETATM   37  C   UNK N   1      21.887  10.276   4.965  0.00  0.00    -0.020 A 
HETATM   38  C   UNK N   1      22.943   9.407   4.982  0.00  0.00    -0.001 A 
HETATM   39  C   UNK N   1      22.382  11.510   5.435  0.00  0.00     0.040 A 
HETATM   40  C   UNK N   1      23.002   8.049   4.673  0.00  0.00     0.014 A 
HETATM   41  C   UNK N   1      24.029  10.098   5.429  0.00  0.00     0.043 A 
HETATM   42  C   UNK N   1      24.234   7.394   4.838  0.00  0.00     0.001 A 
HETATM   43  C   UNK N   1      25.363   8.108   5.300  0.00  0.00     0.002 A 
HETATM   44  C   UNK N   1      25.266   9.481   5.602  0.00  0.00     0.030 A 
HETATM   45  N   UNK N   1      23.712  11.378   5.708  0.00  0.00    -0.357 N 
HETATM   46  H   UNK N   1      24.319  12.077   6.042  0.00  0.00     0.166 HD
BRANCH  32  47
HETATM   47  C   UNK N   1      18.694  13.715   1.281  0.00  0.00     0.035 C 
HETATM   48  C   UNK N   1      17.793  13.137   0.200  0.00  0.00     0.008 C 
ENDBRANCH  32  47
BRANCH  32  49
HETATM   49  O   UNK N   1      20.917  13.226   0.565  0.00  0.00    -0.388 OA
HETATM   50  H   UNK N   1      21.290  13.478  -0.294  0.00  0.00     0.210 HD
ENDBRANCH  32  49
BRANCH  27  51
HETATM   51  C   UNK N   1      21.734  12.879   7.318  0.00  0.00     0.278 C 
HETATM   52  O   UNK N   1      20.763  12.649   8.033  0.00  0.00    -0.264 OA
BRANCH  51  53
HETATM   53  O   UNK N   1      22.915  13.226   7.886  0.00  0.00    -0.325 OA
HETATM   54  C   UNK N   1      23.200  12.942   9.202  0.00  0.00     0.213 C 
ENDBRANCH  51  53
ENDBRANCH  27  51
ENDBRANCH  11  27
BRANCH  13  55
HETATM   55  O   UNK N   1      20.746  15.607   6.504  0.00  0.00    -0.355 OA
HETATM   56  C   UNK N   1      20.725  16.602   7.459  0.00  0.00     0.210 C 
ENDBRANCH  13  55
BRANCH  18  57
HETATM   57  C   UNK N   1      28.569  15.197   5.650  0.00  0.00     0.011 C 
HETATM   58  C   UNK N   1      30.074  15.403   5.804  0.00  0.00     0.006 C 
ENDBRANCH  18  57
BRANCH  23  59
HETATM   59  C   UNK N   1      27.547  20.635   6.213  0.00  0.00     0.152 C 
BRANCH  59  60
HETATM   60  C   UNK N   1      26.378  21.589   6.374  0.00  0.00     0.135 C 
HETATM   61 Cl   UNK N   1      25.877  21.503   8.079  0.00  0.00    -0.129 Cl
ENDBRANCH  59  60
ENDBRANCH  23  59
TORSDOF 9
ENDMDL
MODEL 2
REMARK VINA RESULT:      -7.6     13.949     17.113
REMARK  9 active torsions:
REMARK  status: ('A' for Active; 'I' for Inactive)
REMARK    1  A    between atoms: C_42  and  C_6 
REMARK    2  A    between atoms: C_43  and  C_7 
REMARK    3  A    between atoms: C_20  and  C_16 
REMARK    4  A    between atoms: N_52  and  C_20 
REMARK    5  A    between atoms: C_45  and  C_32 
REMARK    6  A    between atoms: O_57  and  C_35 
REMARK    7  A    between atoms: C_45  and  C_40 
REMARK    8  A    between atoms: O_58  and  C_40 
REMARK    9  A    between atoms: C_43  and  O_56 
ROOT
HETATM    1  C   UNK N   1      27.710  24.429  -2.961  0.00  0.00     0.150 C 
HETATM    2  C   UNK N   1      25.427  25.183 -10.008  0.00  0.00    -0.000 C 
HETATM    3  C   UNK N   1      25.560  26.114  -9.065  0.00  0.00    -0.017 C 
HETATM    4  C   UNK N   1      26.022  23.297  -6.527  0.00  0.00     0.049 C 
HETATM    5  C   UNK N   1      26.389  24.044 -10.097  0.00  0.00     0.300 C 
HETATM    6  C   UNK N   1      25.746  22.979  -7.997  0.00  0.00     0.274 C 
HETATM    7  C   UNK N   1      29.314  22.243  -6.979  0.00  0.00     0.022 A 
HETATM    8  C   UNK N   1      29.991  22.819  -4.304  0.00  0.00     0.067 A 
HETATM    9  C   UNK N   1      25.872  26.409  -6.631  0.00  0.00     0.067 C 
HETATM   10  C   UNK N   1      28.500  23.043  -6.177  0.00  0.00    -0.018 A 
HETATM   11  C   UNK N   1      30.523  21.711  -6.444  0.00  0.00     0.000 A 
HETATM   12  C   UNK N   1      28.836  23.275  -4.869  0.00  0.00     0.040 A 
HETATM   13  C   UNK N   1      30.881  22.087  -5.093  0.00  0.00     0.078 A 
HETATM   14  C   UNK N   1      27.399  24.652  -7.943  0.00  0.00     0.250 C 
HETATM   15  C   UNK N   1      27.624  25.061  -5.475  0.00  0.00     0.144 C 
HETATM   16  C   UNK N   1      27.542  27.466  -4.932  0.00  0.00     0.266 A 
HETATM   17  C   UNK N   1      26.212  27.116  -3.296  0.00  0.00     0.370 A 
HETATM   18  C   UNK N   1      26.608  26.059  -7.973  0.00  0.00     0.012 C 
HETATM   19  C   UNK N   1      27.368  24.003  -6.563  0.00  0.00     0.046 C 
HETATM   20  C   UNK N   1      26.698  26.258  -5.326  0.00  0.00     0.175 A 
HETATM   21  N   UNK N   1      28.080  24.302  -4.349  0.00  0.00    -0.375 N 
HETATM   22  N   UNK N   1      26.822  23.594  -8.778  0.00  0.00     0.098 N 
HETATM   23  N   UNK N   1      27.219  27.888  -3.715  0.00  0.00    -0.260 N 
HETATM   24  O   UNK N   1      28.442  27.964  -5.597  0.00  0.00    -0.269 OA
HETATM   25  O   UNK N   1      25.683  27.228  -2.199  0.00  0.00    -0.238 OA
HETATM   26  O   UNK N   1      25.867  26.166  -4.201  0.00  0.00    -0.280 OA
ENDROOT
BRANCH  11  27
HETATM   27  C   UNK N   1      31.477  20.943  -7.410  0.00  0.00     0.121 C 
HETATM   28  C   UNK N   1      31.891  21.767  -8.682  0.00  0.00     0.038 C 
HETATM   29  C   UNK N   1      32.511  23.197  -8.600  0.00  0.00     0.018 C 
HETATM   30  C   UNK N   1      32.655  23.781  -7.185  0.00  0.00     0.046 C 
HETATM   31  C   UNK N   1      33.795  23.355  -9.421  0.00  0.00     0.277 C 
HETATM   32  C   UNK N   1      33.527  25.034  -7.194  0.00  0.00     0.084 C 
HETATM   33  C   UNK N   1      34.943  24.637  -7.649  0.00  0.00     0.310 C 
HETATM   34  N   UNK N   1      35.005  23.493  -8.587  0.00  0.00     0.092 N 
HETATM   35  C   UNK N   1      35.347  22.294  -7.816  0.00  0.00     0.277 C 
HETATM   36  C   UNK N   1      34.684  21.020  -8.329  0.00  0.00     0.072 C 
HETATM   37  C   UNK N   1      34.062  20.336  -7.168  0.00  0.00    -0.020 A 
HETATM   38  C   UNK N   1      34.745  19.491  -6.336  0.00  0.00    -0.001 A 
HETATM   39  C   UNK N   1      32.721  20.320  -6.732  0.00  0.00     0.040 A 
HETATM   40  C   UNK N   1      36.082  19.094  -6.350  0.00  0.00     0.014 A 
HETATM   41  C   UNK N   1      33.852  19.003  -5.431  0.00  0.00     0.043 A 
HETATM   42  C   UNK N   1      36.496  18.158  -5.388  0.00  0.00     0.001 A 
HETATM   43  C   UNK N   1      35.572  17.650  -4.446  0.00  0.00     0.002 A 
HETATM   44  C   UNK N   1      34.227  18.075  -4.463  0.00  0.00     0.030 A 
HETATM   45  N   UNK N   1      32.616  19.495  -5.651  0.00  0.00    -0.357 N 
HETATM   46  H   UNK N   1      31.802  19.297  -5.135  0.00  0.00     0.166 HD
BRANCH  32  47
HETATM   47  C   UNK N   1      32.987  26.124  -8.130  0.00  0.00     0.035 C 
HETATM   48  C   UNK N   1      32.203  27.201  -7.394  0.00  0.00     0.008 C 
ENDBRANCH  32  47
BRANCH  32  49
HETATM   49  O   UNK N   1      33.599  25.549  -5.896  0.00  0.00    -0.388 OA
HETATM   50  H   UNK N   1      33.993  25.850  -5.063  0.00  0.00     0.210 HD
ENDBRANCH  32  49
BRANCH  27  51
HETATM   51  C   UNK N   1      30.677  19.723  -7.875  0.00  0.00     0.278 C 
HETATM   52  O   UNK N   1      29.972  19.114  -7.075  0.00  0.00    -0.264 OA
BRANCH  51  53
HETATM   53  O   UNK N   1      30.756  19.293  -9.158  0.00  0.00    -0.325 OA
HETATM   54  C   UNK N   1      30.516  17.982  -9.502  0.00  0.00     0.213 C 
ENDBRANCH  51  53
ENDBRANCH  27  51
ENDBRANCH  11  27
BRANCH  13  55
HETATM   55  O   UNK N   1      32.113  21.846  -4.596  0.00  0.00    -0.355 OA
HETATM   56  C   UNK N   1      32.416  21.830  -3.250  0.00  0.00     0.210 C 
ENDBRANCH  13  55
BRANCH  18  57
HETATM   57  C   UNK N   1      27.626  27.176  -8.278  0.00  0.00     0.011 C 
HETATM   58  C   UNK N   1      28.903  26.689  -8.957  0.00  0.00     0.006 C 
ENDBRANCH  18  57
BRANCH  23  59
HETATM   59  C   UNK N   1      27.858  28.991  -3.026  0.00  0.00     0.152 C 
BRANCH  59  60
HETATM   60  C   UNK N   1      27.033  30.265  -3.063  0.00  0.00     0.135 C 
HETATM   61 Cl   UNK N   1      27.392  31.062  -4.613  0.00  0.00    -0.129 Cl
ENDBRANCH  59  60
ENDBRANCH  23  59
TORSDOF 9
ENDMDL
MODEL 3
REMARK VINA RESULT:      -7.5     13.579     17.394
REMARK  9 active torsions:
REMARK  status: ('A' for Active; 'I' for Inactive)
REMARK    1  A    between atoms: C_42  and  C_6 
REMARK    2  A    between atoms: C_43  and  C_7 
REMARK    3  A    between atoms: C_20  and  C_16 
REMARK    4  A    between atoms: N_52  and  C_20 
REMARK    5  A    between atoms: C_45  and  C_32 
REMARK    6  A    between atoms: O_57  and  C_35 
REMARK    7  A    between atoms: C_45  and  C_40 
REMARK    8  A    between atoms: O_58  and  C_40 
REMARK    9  A    between atoms: C_43  and  O_56 
ROOT
HETATM    1  C   UNK N   1      26.642  27.401  -3.642  0.00  0.00     0.150 C 
HETATM    2  C   UNK N   1      30.673  29.741  -9.448  0.00  0.00    -0.000 C 
HETATM    3  C   UNK N   1      30.414  30.366  -8.301  0.00  0.00    -0.017 C 
HETATM    4  C   UNK N   1      27.813  27.667  -7.566  0.00  0.00     0.049 C 
HETATM    5  C   UNK N   1      30.882  28.263  -9.481  0.00  0.00     0.300 C 
HETATM    6  C   UNK N   1      28.595  27.653  -8.881  0.00  0.00     0.274 C 
HETATM    7  C   UNK N   1      29.677  24.923  -6.495  0.00  0.00     0.022 A 
HETATM    8  C   UNK N   1      28.354  24.845  -4.008  0.00  0.00     0.067 A 
HETATM    9  C   UNK N   1      28.947  30.286  -6.313  0.00  0.00     0.067 C 
HETATM   10  C   UNK N   1      28.916  26.000  -6.041  0.00  0.00    -0.018 A 
HETATM   11  C   UNK N   1      29.803  23.758  -5.684  0.00  0.00     0.000 A 
HETATM   12  C   UNK N   1      28.254  25.919  -4.844  0.00  0.00     0.040 A 
HETATM   13  C   UNK N   1      29.174  23.779  -4.380  0.00  0.00     0.078 A 
HETATM   14  C   UNK N   1      30.141  28.047  -7.151  0.00  0.00     0.250 C 
HETATM   15  C   UNK N   1      28.640  28.108  -5.137  0.00  0.00     0.144 C 
HETATM   16  C   UNK N   1      29.087  30.077  -3.719  0.00  0.00     0.266 A 
HETATM   17  C   UNK N   1      26.998  30.472  -3.501  0.00  0.00     0.370 A 
HETATM   18  C   UNK N   1      30.218  29.651  -6.981  0.00  0.00     0.012 C 
HETATM   19  C   UNK N   1      28.887  27.459  -6.511  0.00  0.00     0.046 C 
HETATM   20  C   UNK N   1      28.432  29.609  -5.016  0.00  0.00     0.175 A 
HETATM   21  N   UNK N   1      27.814  27.162  -4.447  0.00  0.00    -0.375 N 
HETATM   22  N   UNK N   1      30.016  27.571  -8.532  0.00  0.00     0.098 N 
HETATM   23  N   UNK N   1      28.174  30.537  -2.871  0.00  0.00    -0.260 N 
HETATM   24  O   UNK N   1      30.277  29.995  -3.443  0.00  0.00    -0.269 OA
HETATM   25  O   UNK N   1      25.938  30.809  -2.994  0.00  0.00    -0.238 OA
HETATM   26  O   UNK N   1      27.100  29.953  -4.751  0.00  0.00    -0.280 OA
ENDROOT
BRANCH  11  27
HETATM   27  C   UNK N   1      30.775  22.636  -6.159  0.00  0.00     0.121 C 
HETATM   28  C   UNK N   1      30.108  21.217  -6.261  0.00  0.00     0.038 C 
HETATM   29  C   UNK N   1      28.802  20.953  -7.074  0.00  0.00     0.018 C 
HETATM   30  C   UNK N   1      28.172  22.185  -7.743  0.00  0.00     0.046 C 
HETATM   31  C   UNK N   1      28.912  19.766  -8.038  0.00  0.00     0.277 C 
HETATM   32  C   UNK N   1      27.088  21.775  -8.738  0.00  0.00     0.084 C 
HETATM   33  C   UNK N   1      27.747  20.955  -9.863  0.00  0.00     0.310 C 
HETATM   34  N   UNK N   1      28.936  20.172  -9.457  0.00  0.00     0.092 N 
HETATM   35  C   UNK N   1      30.130  20.925  -9.850  0.00  0.00     0.277 C 
HETATM   36  C   UNK N   1      31.299  20.779  -8.882  0.00  0.00     0.072 C 
HETATM   37  C   UNK N   1      31.800  22.141  -8.571  0.00  0.00    -0.020 A 
HETATM   38  C   UNK N   1      32.700  22.810  -9.354  0.00  0.00    -0.001 A 
HETATM   39  C   UNK N   1      31.563  22.965  -7.451  0.00  0.00     0.040 A 
HETATM   40  C   UNK N   1      33.320  22.432 -10.545  0.00  0.00     0.014 A 
HETATM   41  C   UNK N   1      32.977  23.992  -8.736  0.00  0.00     0.043 A 
HETATM   42  C   UNK N   1      34.257  23.317 -11.104  0.00  0.00     0.001 A 
HETATM   43  C   UNK N   1      34.545  24.544 -10.465  0.00  0.00     0.002 A 
HETATM   44  C   UNK N   1      33.899  24.893  -9.262  0.00  0.00     0.030 A 
HETATM   45  N   UNK N   1      32.295  24.108  -7.578  0.00  0.00    -0.357 N 
HETATM   46  H   UNK N   1      32.322  24.866  -6.951  0.00  0.00     0.166 HD
BRANCH  32  47
HETATM   47  C   UNK N   1      25.977  20.938  -8.091  0.00  0.00     0.035 C 
HETATM   48  C   UNK N   1      24.812  21.782  -7.594  0.00  0.00     0.008 C 
ENDBRANCH  32  47
BRANCH  32  49
HETATM   49  O   UNK N   1      26.522  22.926  -9.293  0.00  0.00    -0.388 OA
HETATM   50  H   UNK N   1      25.949  23.705  -9.374  0.00  0.00     0.210 HD
ENDBRANCH  32  49
BRANCH  27  51
HETATM   51  C   UNK N   1      31.866  22.571  -5.086  0.00  0.00     0.278 C 
HETATM   52  O   UNK N   1      32.453  23.596  -4.750  0.00  0.00    -0.264 OA
BRANCH  51  53
HETATM   53  O   UNK N   1      32.207  21.389  -4.518  0.00  0.00    -0.325 OA
HETATM   54  C   UNK N   1      32.688  21.313  -3.230  0.00  0.00     0.213 C 
ENDBRANCH  51  53
ENDBRANCH  27  51
ENDBRANCH  11  27
BRANCH  13  55
HETATM   55  O   UNK N   1      29.449  22.838  -3.450  0.00  0.00    -0.355 OA
HETATM   56  C   UNK N   1      29.631  23.107  -2.109  0.00  0.00     0.210 C 
ENDBRANCH  13  55
BRANCH  18  57
HETATM   57  C   UNK N   1      31.445  29.982  -6.109  0.00  0.00     0.011 C 
HETATM   58  C   UNK N   1      32.428  28.825  -5.946  0.00  0.00     0.006 C 
ENDBRANCH  18  57
BRANCH  23  59
HETATM   59  C   UNK N   1      28.457  31.022  -1.535  0.00  0.00     0.152 C 
BRANCH  59  60
HETATM   60  C   UNK N   1      28.346  29.938  -0.480  0.00  0.00     0.135 C 
HETATM   61 Cl   UNK N   1      28.546  30.735   1.098  0.00  0.00    -0.129 Cl
ENDBRANCH  59  60
ENDBRANCH  23  59
TORSDOF 9
ENDMDL
MODEL 4
REMARK VINA RESULT:      -7.5      7.311     12.298
REMARK  9 active torsions:
REMARK  status: ('A' for Active; 'I' for Inactive)
REMARK    1  A    between atoms: C_42  and  C_6 
REMARK    2  A    between atoms: C_43  and  C_7 
REMARK    3  A    between atoms: C_20  and  C_16 
REMARK    4  A    between atoms: N_52  and  C_20 
REMARK    5  A    between atoms: C_45  and  C_32 
REMARK    6  A    between atoms: O_57  and  C_35 
REMARK    7  A    between atoms: C_45  and  C_40 
REMARK    8  A    between atoms: O_58  and  C_40 
REMARK    9  A    between atoms: C_43  and  O_56 
ROOT
HETATM    1  C   UNK N   1      31.641  13.522   3.277  0.00  0.00     0.150 C 
HETATM    2  C   UNK N   1      34.235  17.933   8.686  0.00  0.00    -0.000 C 
HETATM    3  C   UNK N   1      33.117  18.051   7.972  0.00  0.00    -0.017 C 
HETATM    4  C   UNK N   1      34.457  15.320   5.661  0.00  0.00     0.049 C 
HETATM    5  C   UNK N   1      34.746  16.589   9.089  0.00  0.00     0.300 C 
HETATM    6  C   UNK N   1      35.296  15.822   6.838  0.00  0.00     0.274 C 
HETATM    7  C   UNK N   1      33.902  12.351   7.402  0.00  0.00     0.022 A 
HETATM    8  C   UNK N   1      32.295  11.303   5.337  0.00  0.00     0.067 A 
HETATM    9  C   UNK N   1      31.988  17.202   5.944  0.00  0.00     0.067 C 
HETATM   10  C   UNK N   1      33.385  13.166   6.395  0.00  0.00    -0.018 A 
HETATM   11  C   UNK N   1      33.605  10.957   7.400  0.00  0.00     0.000 A 
HETATM   12  C   UNK N   1      32.638  12.622   5.384  0.00  0.00     0.040 A 
HETATM   13  C   UNK N   1      32.716  10.462   6.370  0.00  0.00     0.078 A 
HETATM   14  C   UNK N   1      33.112  15.469   7.638  0.00  0.00     0.250 C 
HETATM   15  C   UNK N   1      31.921  14.740   5.550  0.00  0.00     0.144 C 
HETATM   16  C   UNK N   1      29.807  15.970   5.222  0.00  0.00     0.266 A 
HETATM   17  C   UNK N   1      30.233  16.275   3.151  0.00  0.00     0.370 A 
HETATM   18  C   UNK N   1      32.334  16.869   7.439  0.00  0.00     0.012 C 
HETATM   19  C   UNK N   1      33.246  14.692   6.332  0.00  0.00     0.046 C 
HETATM   20  C   UNK N   1      31.326  16.070   5.115  0.00  0.00     0.175 A 
HETATM   21  N   UNK N   1      31.991  13.609   4.674  0.00  0.00    -0.375 N 
HETATM   22  N   UNK N   1      34.513  15.587   8.053  0.00  0.00     0.098 N 
HETATM   23  N   UNK N   1      29.244  16.066   4.024  0.00  0.00    -0.260 N 
HETATM   24  O   UNK N   1      29.170  15.768   6.249  0.00  0.00    -0.269 OA
HETATM   25  O   UNK N   1      30.060  16.395   1.946  0.00  0.00    -0.238 OA
HETATM   26  O   UNK N   1      31.456  16.298   3.739  0.00  0.00    -0.280 OA
ENDROOT
BRANCH  11  27
HETATM   27  C   UNK N   1      34.080  10.105   8.616  0.00  0.00     0.121 C 
HETATM   28  C   UNK N   1      34.890   8.820   8.216  0.00  0.00     0.038 C 
HETATM   29  C   UNK N   1      36.138   8.864   7.278  0.00  0.00     0.018 C 
HETATM   30  C   UNK N   1      36.507  10.251   6.725  0.00  0.00     0.046 C 
HETATM   31  C   UNK N   1      37.355   8.126   7.845  0.00  0.00     0.277 C 
HETATM   32  C   UNK N   1      37.888  10.231   6.073  0.00  0.00     0.084 C 
HETATM   33  C   UNK N   1      38.931   9.899   7.156  0.00  0.00     0.310 C 
HETATM   34  N   UNK N   1      38.445   9.034   8.254  0.00  0.00     0.092 N 
HETATM   35  C   UNK N   1      38.119   9.893   9.397  0.00  0.00     0.277 C 
HETATM   36  C   UNK N   1      36.926   9.408  10.214  0.00  0.00     0.072 C 
HETATM   37  C   UNK N   1      36.009  10.560  10.401  0.00  0.00    -0.020 A 
HETATM   38  C   UNK N   1      36.153  11.484  11.399  0.00  0.00    -0.001 A 
HETATM   39  C   UNK N   1      34.825  10.902   9.715  0.00  0.00     0.040 A 
HETATM   40  C   UNK N   1      37.113  11.586  12.405  0.00  0.00     0.014 A 
HETATM   41  C   UNK N   1      35.107  12.351  11.304  0.00  0.00     0.043 A 
HETATM   42  C   UNK N   1      36.974  12.626  13.339  0.00  0.00     0.001 A 
HETATM   43  C   UNK N   1      35.890  13.528  13.242  0.00  0.00     0.002 A 
HETATM   44  C   UNK N   1      34.938  13.394  12.212  0.00  0.00     0.030 A 
HETATM   45  N   UNK N   1      34.288  12.018  10.286  0.00  0.00    -0.357 N 
HETATM   46  H   UNK N   1      33.468  12.486  10.011  0.00  0.00     0.166 HD
BRANCH  32  47
HETATM   47  C   UNK N   1      37.994   9.200   4.942  0.00  0.00     0.035 C 
HETATM   48  C   UNK N   1      37.171   9.577   3.719  0.00  0.00     0.008 C 
ENDBRANCH  32  47
BRANCH  32  49
HETATM   49  O   UNK N   1      38.165  11.499   5.556  0.00  0.00    -0.388 OA
HETATM   50  H   UNK N   1      38.157  12.466   5.476  0.00  0.00     0.210 HD
ENDBRANCH  32  49
BRANCH  27  51
HETATM   51  C   UNK N   1      32.794   9.655   9.316  0.00  0.00     0.278 C 
HETATM   52  O   UNK N   1      31.937  10.484   9.610  0.00  0.00    -0.264 OA
BRANCH  51  53
HETATM   53  O   UNK N   1      32.599   8.352   9.634  0.00  0.00    -0.325 OA
HETATM   54  C   UNK N   1      31.339   7.826   9.807  0.00  0.00     0.213 C 
ENDBRANCH  51  53
ENDBRANCH  27  51
ENDBRANCH  11  27
BRANCH  13  55
HETATM   55  O   UNK N   1      32.180   9.225   6.436  0.00  0.00    -0.355 OA
HETATM   56  C   UNK N   1      30.860   8.938   6.152  0.00  0.00     0.210 C 
ENDBRANCH  13  55
BRANCH  18  57
HETATM   57  C   UNK N   1      31.020  16.807   8.242  0.00  0.00     0.011 C 
HETATM   58  C   UNK N   1      30.497  18.169   8.692  0.00  0.00     0.006 C 
ENDBRANCH  18  57
BRANCH  23  59
HETATM   59  C   UNK N   1      27.820  15.972   3.770  0.00  0.00     0.152 C 
BRANCH  59  60
HETATM   60  C   UNK N   1      27.399  14.597   3.284  0.00  0.00     0.135 C 
HETATM   61 Cl   UNK N   1      26.038  14.844   2.165  0.00  0.00    -0.129 Cl
ENDBRANCH  59  60
ENDBRANCH  23  59
TORSDOF 9
ENDMDL
MODEL 5
REMARK VINA RESULT:      -7.3      8.393     12.926
REMARK  9 active torsions:
REMARK  status: ('A' for Active; 'I' for Inactive)
REMARK    1  A    between atoms: C_42  and  C_6 
REMARK    2  A    between atoms: C_43  and  C_7 
REMARK    3  A    between atoms: C_20  and  C_16 
REMARK    4  A    between atoms: N_52  and  C_20 
REMARK    5  A    between atoms: C_45  and  C_32 
REMARK    6  A    between atoms: O_57  and  C_35 
REMARK    7  A    between atoms: C_45  and  C_40 
REMARK    8  A    between atoms: O_58  and  C_40 
REMARK    9  A    between atoms: C_43  and  O_56 
ROOT
HETATM    1  C   UNK N   1      33.973  12.988   3.876  0.00  0.00     0.150 C 
HETATM    2  C   UNK N   1      35.027  16.767  10.204  0.00  0.00    -0.000 C 
HETATM    3  C   UNK N   1      34.278  17.088   9.150  0.00  0.00    -0.017 C 
HETATM    4  C   UNK N   1      35.953  14.229   7.250  0.00  0.00     0.049 C 
HETATM    5  C   UNK N   1      35.151  15.347  10.648  0.00  0.00     0.300 C 
HETATM    6  C   UNK N   1      36.368  14.554   8.685  0.00  0.00     0.274 C 
HETATM    7  C   UNK N   1      34.371  11.353   8.421  0.00  0.00     0.022 A 
HETATM    8  C   UNK N   1      33.495  10.640   5.839  0.00  0.00     0.067 A 
HETATM    9  C   UNK N   1      33.857  16.491   6.789  0.00  0.00     0.067 C 
HETATM   10  C   UNK N   1      34.383  12.268   7.369  0.00  0.00    -0.018 A 
HETATM   11  C   UNK N   1      33.894  10.029   8.196  0.00  0.00     0.000 A 
HETATM   12  C   UNK N   1      33.987  11.882   6.116  0.00  0.00     0.040 A 
HETATM   13  C   UNK N   1      33.380   9.716   6.879  0.00  0.00     0.078 A 
HETATM   14  C   UNK N   1      34.016  14.552   8.621  0.00  0.00     0.250 C 
HETATM   15  C   UNK N   1      33.577  14.085   6.192  0.00  0.00     0.144 C 
HETATM   16  C   UNK N   1      31.936  15.659   5.237  0.00  0.00     0.266 A 
HETATM   17  C   UNK N   1      33.129  15.940   3.487  0.00  0.00     0.370 A 
HETATM   18  C   UNK N   1      33.580  16.068   8.276  0.00  0.00     0.012 C 
HETATM   19  C   UNK N   1      34.502  13.796   7.388  0.00  0.00     0.046 C 
HETATM   20  C   UNK N   1      33.386  15.506   5.687  0.00  0.00     0.175 A 
HETATM   21  N   UNK N   1      33.796  12.981   5.307  0.00  0.00    -0.375 N 
HETATM   22  N   UNK N   1      35.169  14.424   9.517  0.00  0.00     0.098 N 
HETATM   23  N   UNK N   1      31.870  15.878   3.929  0.00  0.00    -0.260 N 
HETATM   24  O   UNK N   1      30.945  15.541   5.947  0.00  0.00    -0.269 OA
HETATM   25  O   UNK N   1      33.428  16.118   2.314  0.00  0.00    -0.238 OA
HETATM   26  O   UNK N   1      34.042  15.743   4.472  0.00  0.00    -0.280 OA
ENDROOT
BRANCH  11  27
HETATM   27  C   UNK N   1      33.759   9.079   9.426  0.00  0.00     0.121 C 
HETATM   28  C   UNK N   1      34.235   7.608   9.148  0.00  0.00     0.038 C 
HETATM   29  C   UNK N   1      35.642   7.269   8.563  0.00  0.00     0.018 C 
HETATM   30  C   UNK N   1      36.533   8.477   8.228  0.00  0.00     0.046 C 
HETATM   31  C   UNK N   1      36.395   6.201   9.363  0.00  0.00     0.277 C 
HETATM   32  C   UNK N   1      37.968   8.038   7.947  0.00  0.00     0.084 C 
HETATM   33  C   UNK N   1      38.544   7.412   9.230  0.00  0.00     0.310 C 
HETATM   34  N   UNK N   1      37.554   6.740  10.102  0.00  0.00     0.092 N 
HETATM   35  C   UNK N   1      37.204   7.663  11.185  0.00  0.00     0.277 C 
HETATM   36  C   UNK N   1      35.750   7.565  11.635  0.00  0.00     0.072 C 
HETATM   37  C   UNK N   1      35.195   8.941  11.669  0.00  0.00    -0.020 A 
HETATM   38  C   UNK N   1      35.334   9.783  12.739  0.00  0.00    -0.001 A 
HETATM   39  C   UNK N   1      34.387   9.620  10.734  0.00  0.00     0.040 A 
HETATM   40  C   UNK N   1      35.981   9.595  13.959  0.00  0.00     0.014 A 
HETATM   41  C   UNK N   1      34.651  10.925  12.447  0.00  0.00     0.043 A 
HETATM   42  C   UNK N   1      35.910  10.633  14.903  0.00  0.00     0.001 A 
HETATM   43  C   UNK N   1      35.203  11.821  14.603  0.00  0.00     0.002 A 
HETATM   44  C   UNK N   1      34.561  11.975  13.358  0.00  0.00     0.030 A 
HETATM   45  N   UNK N   1      34.070  10.849  11.233  0.00  0.00    -0.357 N 
HETATM   46  H   UNK N   1      33.525  11.542  10.795  0.00  0.00     0.166 HD
BRANCH  32  47
HETATM   47  C   UNK N   1      38.063   7.017   6.805  0.00  0.00     0.035 C 
HETATM   48  C   UNK N   1      37.595   7.579   5.470  0.00  0.00     0.008 C 
ENDBRANCH  32  47
BRANCH  32  49
HETATM   49  O   UNK N   1      38.730   9.161   7.613  0.00  0.00    -0.388 OA
HETATM   50  H   UNK N   1      39.461   9.799   7.636  0.00  0.00     0.210 HD
ENDBRANCH  32  49
BRANCH  27  51
HETATM   51  C   UNK N   1      32.261   9.043   9.742  0.00  0.00     0.278 C 
HETATM   52  O   UNK N   1      31.570  10.036   9.536  0.00  0.00    -0.264 OA
BRANCH  51  53
HETATM   53  O   UNK N   1      31.693   7.930  10.267  0.00  0.00    -0.325 OA
HETATM   54  C   UNK N   1      30.495   7.436   9.802  0.00  0.00     0.213 C 
ENDBRANCH  51  53
ENDBRANCH  27  51
ENDBRANCH  11  27
BRANCH  13  55
HETATM   55  O   UNK N   1      32.681   8.585   6.645  0.00  0.00    -0.355 OA
HETATM   56  C   UNK N   1      31.372   8.560   6.212  0.00  0.00     0.210 C 
ENDBRANCH  13  55
BRANCH  18  57
HETATM   57  C   UNK N   1      32.069  16.207   8.549  0.00  0.00     0.011 C 
HETATM   58  C   UNK N   1      31.575  17.650   8.614  0.00  0.00     0.006 C 
ENDBRANCH  18  57
BRANCH  23  59
HETATM   59  C   UNK N   1      30.641  16.030   3.177  0.00  0.00     0.152 C 
BRANCH  59  60
HETATM   60  C   UNK N   1      29.979  14.702   2.857  0.00  0.00     0.135 C 
HETATM   61 Cl   UNK N   1      28.501  15.074   1.937  0.00  0.00    -0.129 Cl
ENDBRANCH  59  60
ENDBRANCH  23  59
TORSDOF 9
ENDMDL
MODEL 6
REMARK VINA RESULT:      -7.3      3.944      8.133
REMARK  9 active torsions:
REMARK  status: ('A' for Active; 'I' for Inactive)
REMARK    1  A    between atoms: C_42  and  C_6 
REMARK    2  A    between atoms: C_43  and  C_7 
REMARK    3  A    between atoms: C_20  and  C_16 
REMARK    4  A    between atoms: N_52  and  C_20 
REMARK    5  A    between atoms: C_45  and  C_32 
REMARK    6  A    between atoms: O_57  and  C_35 
REMARK    7  A    between atoms: C_45  and  C_40 
REMARK    8  A    between atoms: O_58  and  C_40 
REMARK    9  A    between atoms: C_43  and  O_56 
ROOT
HETATM    1  C   UNK N   1      23.922  10.456  -0.591  0.00  0.00     0.150 C 
HETATM    2  C   UNK N   1      21.690   7.270   5.758  0.00  0.00    -0.000 C 
HETATM    3  C   UNK N   1      22.509   6.793   4.823  0.00  0.00    -0.017 C 
HETATM    4  C   UNK N   1      21.430   9.689   2.579  0.00  0.00     0.049 C 
HETATM    5  C   UNK N   1      21.692   8.722   6.105  0.00  0.00     0.300 C 
HETATM    6  C   UNK N   1      20.816   9.514   3.969  0.00  0.00     0.274 C 
HETATM    7  C   UNK N   1      23.211  12.435   3.776  0.00  0.00     0.022 A 
HETATM    8  C   UNK N   1      24.459  12.862   1.285  0.00  0.00     0.067 A 
HETATM    9  C   UNK N   1      23.268   7.173   2.502  0.00  0.00     0.067 C 
HETATM   10  C   UNK N   1      23.206  11.458   2.781  0.00  0.00    -0.018 A 
HETATM   11  C   UNK N   1      23.871  13.676   3.539  0.00  0.00     0.000 A 
HETATM   12  C   UNK N   1      23.788  11.708   1.566  0.00  0.00     0.040 A 
HETATM   13  C   UNK N   1      24.567  13.836   2.279  0.00  0.00     0.078 A 
HETATM   14  C   UNK N   1      23.141   9.238   4.192  0.00  0.00     0.250 C 
HETATM   15  C   UNK N   1      23.910   9.482   1.813  0.00  0.00     0.144 C 
HETATM   16  C   UNK N   1      25.443   7.665   1.152  0.00  0.00     0.266 A 
HETATM   17  C   UNK N   1      24.432   7.405  -0.712  0.00  0.00     0.370 A 
HETATM   18  C   UNK N   1      23.424   7.662   3.986  0.00  0.00     0.012 C 
HETATM   19  C   UNK N   1      22.897   9.959   2.870  0.00  0.00     0.046 C 
HETATM   20  C   UNK N   1      23.981   8.017   1.413  0.00  0.00     0.175 A 
HETATM   21  N   UNK N   1      23.932  10.541   0.848  0.00  0.00    -0.375 N 
HETATM   22  N   UNK N   1      21.918   9.561   4.932  0.00  0.00     0.098 N 
HETATM   23  N   UNK N   1      25.630   7.351  -0.124  0.00  0.00    -0.260 N 
HETATM   24  O   UNK N   1      26.353   7.716   1.971  0.00  0.00    -0.269 OA
HETATM   25  O   UNK N   1      24.250   7.184  -1.901  0.00  0.00    -0.238 OA
HETATM   26  O   UNK N   1      23.444   7.775   0.142  0.00  0.00    -0.280 OA
ENDROOT
BRANCH  11  27
HETATM   27  C   UNK N   1      23.980  14.686   4.722  0.00  0.00     0.121 C 
HETATM   28  C   UNK N   1      23.738  16.182   4.306  0.00  0.00     0.038 C 
HETATM   29  C   UNK N   1      22.468  16.649   3.528  0.00  0.00     0.018 C 
HETATM   30  C   UNK N   1      21.473  15.540   3.148  0.00  0.00     0.046 C 
HETATM   31  C   UNK N   1      21.770  17.855   4.166  0.00  0.00     0.277 C 
HETATM   32  C   UNK N   1      20.151  16.131   2.662  0.00  0.00     0.084 C 
HETATM   33  C   UNK N   1      19.513  16.912   3.826  0.00  0.00     0.310 C 
HETATM   34  N   UNK N   1      20.470  17.516   4.778  0.00  0.00     0.092 N 
HETATM   35  C   UNK N   1      20.565  16.636   5.946  0.00  0.00     0.277 C 
HETATM   36  C   UNK N   1      21.954  16.586   6.572  0.00  0.00     0.072 C 
HETATM   37  C   UNK N   1      22.317  15.158   6.752  0.00  0.00    -0.020 A 
HETATM   38  C   UNK N   1      21.942  14.417   7.839  0.00  0.00    -0.001 A 
HETATM   39  C   UNK N   1      23.135  14.320   5.966  0.00  0.00     0.040 A 
HETATM   40  C   UNK N   1      21.184  14.768   8.955  0.00  0.00     0.014 A 
HETATM   41  C   UNK N   1      22.500  13.181   7.700  0.00  0.00     0.043 A 
HETATM   42  C   UNK N   1      21.004  13.798   9.955  0.00  0.00     0.001 A 
HETATM   43  C   UNK N   1      21.581  12.515   9.814  0.00  0.00     0.002 A 
HETATM   44  C   UNK N   1      22.342  12.196   8.671  0.00  0.00     0.030 A 
HETATM   45  N   UNK N   1      23.227  13.100   6.568  0.00  0.00    -0.357 N 
HETATM   46  H   UNK N   1      23.725  12.316   6.242  0.00  0.00     0.166 HD
BRANCH  32  47
HETATM   47  C   UNK N   1      20.329  17.072   1.463  0.00  0.00     0.035 C 
HETATM   48  C   UNK N   1      19.620  16.576   0.211  0.00  0.00     0.008 C 
ENDBRANCH  32  47
BRANCH  32  49
HETATM   49  O   UNK N   1      19.295  15.089   2.295  0.00  0.00    -0.388 OA
HETATM   50  H   UNK N   1      18.791  14.490   1.722  0.00  0.00     0.210 HD
ENDBRANCH  32  49
BRANCH  27  51
HETATM   51  C   UNK N   1      25.421  14.561   5.224  0.00  0.00     0.278 C 
HETATM   52  O   UNK N   1      25.872  13.457   5.517  0.00  0.00    -0.264 OA
BRANCH  51  53
HETATM   53  O   UNK N   1      26.201  15.660   5.368  0.00  0.00    -0.325 OA
HETATM   54  C   UNK N   1      26.835  15.951   6.554  0.00  0.00     0.213 C 
ENDBRANCH  51  53
ENDBRANCH  27  51
ENDBRANCH  11  27
BRANCH  13  55
HETATM   55  O   UNK N   1      25.423  14.859   2.071  0.00  0.00    -0.355 OA
HETATM   56  C   UNK N   1      26.788  14.711   1.937  0.00  0.00     0.210 C 
ENDBRANCH  13  55
BRANCH  18  57
HETATM   57  C   UNK N   1      24.864   7.367   4.448  0.00  0.00     0.011 C 
HETATM   58  C   UNK N   1      25.479   8.463   5.315  0.00  0.00     0.006 C 
ENDBRANCH  18  57
BRANCH  23  59
HETATM   59  C   UNK N   1      26.909   7.006  -0.711  0.00  0.00     0.152 C 
BRANCH  59  60
HETATM   60  C   UNK N   1      27.630   8.205  -1.298  0.00  0.00     0.135 C 
HETATM   61 Cl   UNK N   1      27.586   8.015  -3.067  0.00  0.00    -0.129 Cl
ENDBRANCH  59  60
ENDBRANCH  23  59
TORSDOF 9
ENDMDL
MODEL 7
REMARK VINA RESULT:      -7.0      3.303      5.108
REMARK  9 active torsions:
REMARK  status: ('A' for Active; 'I' for Inactive)
REMARK    1  A    between atoms: C_42  and  C_6 
REMARK    2  A    between atoms: C_43  and  C_7 
REMARK    3  A    between atoms: C_20  and  C_16 
REMARK    4  A    between atoms: N_52  and  C_20 
REMARK    5  A    between atoms: C_45  and  C_32 
REMARK    6  A    between atoms: O_57  and  C_35 
REMARK    7  A    between atoms: C_45  and  C_40 
REMARK    8  A    between atoms: O_58  and  C_40 
REMARK    9  A    between atoms: C_43  and  O_56 
ROOT
HETATM    1  C   UNK N   1      29.436  17.022   6.481  0.00  0.00     0.150 C 
HETATM    2  C   UNK N   1      30.576  12.354   0.793  0.00  0.00    -0.000 C 
HETATM    3  C   UNK N   1      31.402  12.685   1.785  0.00  0.00    -0.017 C 
HETATM    4  C   UNK N   1      28.967  15.481   2.706  0.00  0.00     0.049 C 
HETATM    5  C   UNK N   1      29.109  12.221   1.034  0.00  0.00     0.300 C 
HETATM    6  C   UNK N   1      28.695  14.582   1.499  0.00  0.00     0.274 C 
HETATM    7  C   UNK N   1      26.389  13.871   4.412  0.00  0.00     0.022 A 
HETATM    8  C   UNK N   1      26.796  15.420   6.730  0.00  0.00     0.067 A 
HETATM    9  C   UNK N   1      31.723  14.331   3.600  0.00  0.00     0.067 C 
HETATM   10  C   UNK N   1      27.555  14.612   4.597  0.00  0.00    -0.018 A 
HETATM   11  C   UNK N   1      25.381  13.882   5.419  0.00  0.00     0.000 A 
HETATM   12  C   UNK N   1      27.709  15.386   5.718  0.00  0.00     0.040 A 
HETATM   13  C   UNK N   1      25.652  14.626   6.631  0.00  0.00     0.078 A 
HETATM   14  C   UNK N   1      29.331  13.185   3.282  0.00  0.00     0.250 C 
HETATM   15  C   UNK N   1      29.798  14.860   5.095  0.00  0.00     0.144 C 
HETATM   16  C   UNK N   1      31.967  14.444   6.193  0.00  0.00     0.266 A 
HETATM   17  C   UNK N   1      32.469  16.520   6.129  0.00  0.00     0.370 A 
HETATM   18  C   UNK N   1      30.936  13.039   3.181  0.00  0.00     0.012 C 
HETATM   19  C   UNK N   1      28.909  14.522   3.884  0.00  0.00     0.046 C 
HETATM   20  C   UNK N   1      31.303  14.999   4.936  0.00  0.00     0.175 A 
HETATM   21  N   UNK N   1      29.018  15.795   5.850  0.00  0.00    -0.375 N 
HETATM   22  N   UNK N   1      28.625  13.206   1.997  0.00  0.00     0.098 N 
HETATM   23  N   UNK N   1      32.602  15.405   6.853  0.00  0.00    -0.260 N 
HETATM   24  O   UNK N   1      31.893  13.290   6.597  0.00  0.00    -0.269 OA
HETATM   25  O   UNK N   1      32.927  17.604   6.462  0.00  0.00    -0.238 OA
HETATM   26  O   UNK N   1      31.735  16.330   5.003  0.00  0.00    -0.280 OA
ENDROOT
BRANCH  11  27
HETATM   27  C   UNK N   1      24.158  12.930   5.243  0.00  0.00     0.121 C 
HETATM   28  C   UNK N   1      22.822  13.493   5.846  0.00  0.00     0.038 C 
HETATM   29  C   UNK N   1      22.257  14.902   5.483  0.00  0.00     0.018 C 
HETATM   30  C   UNK N   1      23.117  15.738   4.521  0.00  0.00     0.046 C 
HETATM   31  C   UNK N   1      20.782  14.881   5.066  0.00  0.00     0.277 C 
HETATM   32  C   UNK N   1      22.345  16.952   4.008  0.00  0.00     0.084 C 
HETATM   33  C   UNK N   1      21.139  16.451   3.193  0.00  0.00     0.310 C 
HETATM   34  N   UNK N   1      20.582  15.151   3.628  0.00  0.00     0.092 N 
HETATM   35  C   UNK N   1      21.108  14.111   2.739  0.00  0.00     0.277 C 
HETATM   36  C   UNK N   1      21.360  12.776   3.431  0.00  0.00     0.072 C 
HETATM   37  C   UNK N   1      22.730  12.332   3.071  0.00  0.00    -0.020 A 
HETATM   38  C   UNK N   1      23.023  11.646   1.925  0.00  0.00    -0.001 A 
HETATM   39  C   UNK N   1      23.936  12.422   3.798  0.00  0.00     0.040 A 
HETATM   40  C   UNK N   1      22.195  11.230   0.883  0.00  0.00     0.014 A 
HETATM   41  C   UNK N   1      24.353  11.352   1.957  0.00  0.00     0.043 A 
HETATM   42  C   UNK N   1      22.775  10.483  -0.155  0.00  0.00     0.001 A 
HETATM   43  C   UNK N   1      24.156  10.177  -0.126  0.00  0.00     0.002 A 
HETATM   44  C   UNK N   1      24.962  10.615   0.944  0.00  0.00     0.030 A 
HETATM   45  N   UNK N   1      24.928  11.816   3.085  0.00  0.00    -0.357 N 
HETATM   46  H   UNK N   1      25.874  11.733   3.341  0.00  0.00     0.166 HD
BRANCH  32  47
HETATM   47  C   UNK N   1      21.844  17.857   5.141  0.00  0.00     0.035 C 
HETATM   48  C   UNK N   1      21.045  19.049   4.637  0.00  0.00     0.008 C 
ENDBRANCH  32  47
BRANCH  32  49
HETATM   49  O   UNK N   1      23.177  17.698   3.168  0.00  0.00    -0.388 OA
HETATM   50  H   UNK N   1      23.792  18.395   2.889  0.00  0.00     0.210 HD
ENDBRANCH  32  49
BRANCH  27  51
HETATM   51  C   UNK N   1      24.527  11.658   6.012  0.00  0.00     0.278 C 
HETATM   52  O   UNK N   1      25.533  11.026   5.701  0.00  0.00    -0.264 OA
BRANCH  51  53
HETATM   53  O   UNK N   1      23.743  11.210   7.022  0.00  0.00    -0.325 OA
HETATM   54  C   UNK N   1      23.694   9.879   7.369  0.00  0.00     0.213 C 
ENDBRANCH  51  53
ENDBRANCH  27  51
ENDBRANCH  11  27
BRANCH  13  55
HETATM   55  O   UNK N   1      24.880  14.489   7.730  0.00  0.00    -0.355 OA
HETATM   56  C   UNK N   1      25.225  13.726   8.827  0.00  0.00     0.210 C 
ENDBRANCH  13  55
BRANCH  18  57
HETATM   57  C   UNK N   1      31.371  11.882   4.102  0.00  0.00     0.011 C 
HETATM   58  C   UNK N   1      30.250  10.909   4.456  0.00  0.00     0.006 C 
ENDBRANCH  18  57
BRANCH  23  59
HETATM   59  C   UNK N   1      33.303  15.222   8.108  0.00  0.00     0.152 C 
BRANCH  59  60
HETATM   60  C   UNK N   1      34.780  14.928   7.919  0.00  0.00     0.135 C 
HETATM   61 Cl   UNK N   1      35.062  13.289   8.553  0.00  0.00    -0.129 Cl
ENDBRANCH  59  60
ENDBRANCH  23  59
TORSDOF 9
ENDMDL
MODEL 8
REMARK VINA RESULT:      -7.0      9.147     13.890
REMARK  9 active torsions:
REMARK  status: ('A' for Active; 'I' for Inactive)
REMARK    1  A    between atoms: C_42  and  C_6 
REMARK    2  A    between atoms: C_43  and  C_7 
REMARK    3  A    between atoms: C_20  and  C_16 
REMARK    4  A    between atoms: N_52  and  C_20 
REMARK    5  A    between atoms: C_45  and  C_32 
REMARK    6  A    between atoms: O_57  and  C_35 
REMARK    7  A    between atoms: C_45  and  C_40 
REMARK    8  A    between atoms: O_58  and  C_40 
REMARK    9  A    between atoms: C_43  and  O_56 
ROOT
HETATM    1  C   UNK N   1      34.782  12.350   4.497  0.00  0.00     0.150 C 
HETATM    2  C   UNK N   1      35.179  16.625  10.580  0.00  0.00    -0.000 C 
HETATM    3  C   UNK N   1      34.466  16.809   9.471  0.00  0.00    -0.017 C 
HETATM    4  C   UNK N   1      36.468  13.979   7.866  0.00  0.00     0.049 C 
HETATM    5  C   UNK N   1      35.393  15.254  11.131  0.00  0.00     0.300 C 
HETATM    6  C   UNK N   1      36.776  14.435   9.293  0.00  0.00     0.274 C 
HETATM    7  C   UNK N   1      35.060  11.066   9.162  0.00  0.00     0.022 A 
HETATM    8  C   UNK N   1      34.387  10.108   6.599  0.00  0.00     0.067 A 
HETATM    9  C   UNK N   1      34.225  16.020   7.141  0.00  0.00     0.067 C 
HETATM   10  C   UNK N   1      35.057  11.905   8.049  0.00  0.00    -0.018 A 
HETATM   11  C   UNK N   1      34.704   9.694   9.011  0.00  0.00     0.000 A 
HETATM   12  C   UNK N   1      34.762  11.403   6.809  0.00  0.00     0.040 A 
HETATM   13  C   UNK N   1      34.291   9.251   7.696  0.00  0.00     0.078 A 
HETATM   14  C   UNK N   1      34.439  14.230   9.113  0.00  0.00     0.250 C 
HETATM   15  C   UNK N   1      34.173  13.564   6.706  0.00  0.00     0.144 C 
HETATM   16  C   UNK N   1      32.465  14.926   5.560  0.00  0.00     0.266 A 
HETATM   17  C   UNK N   1      33.726  15.187   3.855  0.00  0.00     0.370 A 
HETATM   18  C   UNK N   1      33.901  15.677   8.639  0.00  0.00     0.012 C 
HETATM   19  C   UNK N   1      35.051  13.436   7.964  0.00  0.00     0.046 C 
HETATM   20  C   UNK N   1      33.896  14.927   6.091  0.00  0.00     0.175 A 
HETATM   21  N   UNK N   1      34.529  12.425   5.915  0.00  0.00    -0.375 N 
HETATM   22  N   UNK N   1      35.548  14.261  10.072  0.00  0.00     0.098 N 
HETATM   23  N   UNK N   1      32.454  15.049   4.238  0.00  0.00    -0.260 N 
HETATM   24  O   UNK N   1      31.449  14.774   6.228  0.00  0.00    -0.269 OA
HETATM   25  O   UNK N   1      34.074  15.309   2.689  0.00  0.00    -0.238 OA
HETATM   26  O   UNK N   1      34.597  15.135   4.896  0.00  0.00    -0.280 OA
ENDROOT
BRANCH  11  27
HETATM   27  C   UNK N   1      34.580   8.822  10.297  0.00  0.00     0.121 C 
HETATM   28  C   UNK N   1      35.330   7.445  10.208  0.00  0.00     0.038 C 
HETATM   29  C   UNK N   1      36.837   7.326   9.817  0.00  0.00     0.018 C 
HETATM   30  C   UNK N   1      37.544   8.649   9.477  0.00  0.00     0.046 C 
HETATM   31  C   UNK N   1      37.655   6.469  10.789  0.00  0.00     0.277 C 
HETATM   32  C   UNK N   1      39.057   8.458   9.400  0.00  0.00     0.084 C 
HETATM   33  C   UNK N   1      39.565   8.035  10.791  0.00  0.00     0.310 C 
HETATM   34  N   UNK N   1      38.602   7.257  11.602  0.00  0.00     0.092 N 
HETATM   35  C   UNK N   1      37.965   8.173  12.552  0.00  0.00     0.277 C 
HETATM   36  C   UNK N   1      36.504   7.846  12.843  0.00  0.00     0.072 C 
HETATM   37  C   UNK N   1      35.722   9.098  12.691  0.00  0.00    -0.020 A 
HETATM   38  C   UNK N   1      35.579  10.022  13.689  0.00  0.00    -0.001 A 
HETATM   39  C   UNK N   1      34.935   9.555  11.614  0.00  0.00     0.040 A 
HETATM   40  C   UNK N   1      36.089  10.039  14.987  0.00  0.00     0.014 A 
HETATM   41  C   UNK N   1      34.753  11.000  13.222  0.00  0.00     0.043 A 
HETATM   42  C   UNK N   1      35.723  11.109  15.820  0.00  0.00     0.001 A 
HETATM   43  C   UNK N   1      34.868  12.126  15.337  0.00  0.00     0.002 A 
HETATM   44  C   UNK N   1      34.371  12.076  14.019  0.00  0.00     0.030 A 
HETATM   45  N   UNK N   1      34.352  10.738  11.962  0.00  0.00    -0.357 N 
HETATM   46  H   UNK N   1      33.757  11.290  11.405  0.00  0.00     0.166 HD
BRANCH  32  47
HETATM   47  C   UNK N   1      39.468   7.395   8.372  0.00  0.00     0.035 C 
HETATM   48  C   UNK N   1      40.823   6.772   8.674  0.00  0.00     0.008 C 
ENDBRANCH  32  47
BRANCH  32  49
HETATM   49  O   UNK N   1      39.652   9.675   9.055  0.00  0.00    -0.388 OA
HETATM   50  H   UNK N   1      40.185  10.480   9.146  0.00  0.00     0.210 HD
ENDBRANCH  32  49
BRANCH  27  51
HETATM   51  C   UNK N   1      33.082   8.538  10.444  0.00  0.00     0.278 C 
HETATM   52  O   UNK N   1      32.285   9.470  10.488  0.00  0.00    -0.264 OA
BRANCH  51  53
HETATM   53  O   UNK N   1      32.628   7.265  10.549  0.00  0.00    -0.325 OA
HETATM   54  C   UNK N   1      31.417   6.879  10.021  0.00  0.00     0.213 C 
ENDBRANCH  51  53
ENDBRANCH  27  51
ENDBRANCH  11  27
BRANCH  13  55
HETATM   55  O   UNK N   1      33.699   8.051   7.510  0.00  0.00    -0.355 OA
HETATM   56  C   UNK N   1      32.647   7.833   6.645  0.00  0.00     0.210 C 
ENDBRANCH  13  55
BRANCH  18  57
HETATM   57  C   UNK N   1      32.372  15.706   8.827  0.00  0.00     0.011 C 
HETATM   58  C   UNK N   1      31.749  17.091   8.668  0.00  0.00     0.006 C 
ENDBRANCH  18  57
BRANCH  23  59
HETATM   59  C   UNK N   1      31.259  15.046   3.417  0.00  0.00     0.152 C 
BRANCH  59  60
HETATM   60  C   UNK N   1      30.785  16.443   3.063  0.00  0.00     0.135 C 
HETATM   61 Cl   UNK N   1      29.517  16.868   4.237  0.00  0.00    -0.129 Cl
ENDBRANCH  59  60
ENDBRANCH  23  59
TORSDOF 9
ENDMDL
MODEL 9
REMARK VINA RESULT:      -6.6      8.561     13.530
REMARK  9 active torsions:
REMARK  status: ('A' for Active; 'I' for Inactive)
REMARK    1  A    between atoms: C_42  and  C_6 
REMARK    2  A    between atoms: C_43  and  C_7 
REMARK    3  A    between atoms: C_20  and  C_16 
REMARK    4  A    between atoms: N_52  and  C_20 
REMARK    5  A    between atoms: C_45  and  C_32 
REMARK    6  A    between atoms: O_57  and  C_35 
REMARK    7  A    between atoms: C_45  and  C_40 
REMARK    8  A    between atoms: O_58  and  C_40 
REMARK    9  A    between atoms: C_43  and  O_56 
ROOT
HETATM    1  C   UNK N   1      34.249  10.396   2.527  0.00  0.00     0.150 C 
HETATM    2  C   UNK N   1      34.002  17.060   5.839  0.00  0.00    -0.000 C 
HETATM    3  C   UNK N   1      33.295  16.611   4.803  0.00  0.00    -0.017 C 
HETATM    4  C   UNK N   1      35.655  13.611   4.655  0.00  0.00     0.049 C 
HETATM    5  C   UNK N   1      34.367  16.150   6.965  0.00  0.00     0.300 C 
HETATM    6  C   UNK N   1      35.876  14.722   5.683  0.00  0.00     0.274 C 
HETATM    7  C   UNK N   1      34.580  11.523   7.230  0.00  0.00     0.022 A 
HETATM    8  C   UNK N   1      34.081   9.393   5.454  0.00  0.00     0.067 A 
HETATM    9  C   UNK N   1      33.200  14.789   3.136  0.00  0.00     0.067 C 
HETATM   10  C   UNK N   1      34.499  11.726   5.853  0.00  0.00    -0.018 A 
HETATM   11  C   UNK N   1      34.394  10.213   7.760  0.00  0.00     0.000 A 
HETATM   12  C   UNK N   1      34.293  10.665   5.010  0.00  0.00     0.040 A 
HETATM   13  C   UNK N   1      34.065   9.154   6.829  0.00  0.00     0.078 A 
HETATM   14  C   UNK N   1      33.585  14.189   5.711  0.00  0.00     0.250 C 
HETATM   15  C   UNK N   1      33.452  12.434   3.919  0.00  0.00     0.144 C 
HETATM   16  C   UNK N   1      31.618  12.881   2.331  0.00  0.00     0.266 A 
HETATM   17  C   UNK N   1      32.875  12.445   0.659  0.00  0.00     0.370 A 
HETATM   18  C   UNK N   1      32.888  15.163   4.629  0.00  0.00     0.012 C 
HETATM   19  C   UNK N   1      34.312  13.021   5.053  0.00  0.00     0.046 C 
HETATM   20  C   UNK N   1      33.027  13.298   2.743  0.00  0.00     0.175 A 
HETATM   21  N   UNK N   1      33.958  11.105   3.749  0.00  0.00    -0.375 N 
HETATM   22  N   UNK N   1      34.661  14.799   6.498  0.00  0.00     0.098 N 
HETATM   23  N   UNK N   1      31.620  12.359   1.110  0.00  0.00    -0.260 N 
HETATM   24  O   UNK N   1      30.613  12.947   3.029  0.00  0.00    -0.269 OA
HETATM   25  O   UNK N   1      33.230  12.038  -0.438  0.00  0.00    -0.238 OA
HETATM   26  O   UNK N   1      33.723  12.994   1.566  0.00  0.00    -0.280 OA
ENDROOT
BRANCH  11  27
HETATM   27  C   UNK N   1      34.347  10.049   9.310  0.00  0.00     0.121 C 
HETATM   28  C   UNK N   1      35.027   8.732   9.830  0.00  0.00     0.038 C 
HETATM   29  C   UNK N   1      36.487   8.327   9.453  0.00  0.00     0.018 C 
HETATM   30  C   UNK N   1      37.217   9.281   8.493  0.00  0.00     0.046 C 
HETATM   31  C   UNK N   1      37.350   7.955  10.663  0.00  0.00     0.277 C 
HETATM   32  C   UNK N   1      38.707   8.956   8.425  0.00  0.00     0.084 C 
HETATM   33  C   UNK N   1      39.318   9.186   9.820  0.00  0.00     0.310 C 
HETATM   34  N   UNK N   1      38.399   8.951  10.955  0.00  0.00     0.092 N 
HETATM   35  C   UNK N   1      37.889  10.251  11.402  0.00  0.00     0.277 C 
HETATM   36  C   UNK N   1      36.448  10.212  11.898  0.00  0.00     0.072 C 
HETATM   37  C   UNK N   1      35.710  11.310  11.224  0.00  0.00    -0.020 A 
HETATM   38  C   UNK N   1      35.696  12.599  11.681  0.00  0.00    -0.001 A 
HETATM   39  C   UNK N   1      34.850  11.277  10.107  0.00  0.00     0.040 A 
HETATM   40  C   UNK N   1      36.320  13.174  12.788  0.00  0.00     0.014 A 
HETATM   41  C   UNK N   1      34.874  13.312  10.860  0.00  0.00     0.043 A 
HETATM   42  C   UNK N   1      36.076  14.534  13.043  0.00  0.00     0.001 A 
HETATM   43  C   UNK N   1      35.225  15.276  12.192  0.00  0.00     0.002 A 
HETATM   44  C   UNK N   1      34.611  14.661  11.082  0.00  0.00     0.030 A 
HETATM   45  N   UNK N   1      34.352  12.529   9.895  0.00  0.00    -0.357 N 
HETATM   46  H   UNK N   1      33.733  12.806   9.181  0.00  0.00     0.166 HD
BRANCH  32  47
HETATM   47  C   UNK N   1      38.979   7.509   7.991  0.00  0.00     0.035 C 
HETATM   48  C   UNK N   1      40.311   6.979   8.500  0.00  0.00     0.008 C 
ENDBRANCH  32  47
BRANCH  32  49
HETATM   49  O   UNK N   1      39.321   9.823   7.516  0.00  0.00    -0.388 OA
HETATM   50  H   UNK N   1      39.772  10.614   7.183  0.00  0.00     0.210 HD
ENDBRANCH  32  49
BRANCH  27  51
HETATM   51  C   UNK N   1      32.858   9.985   9.661  0.00  0.00     0.278 C 
HETATM   52  O   UNK N   1      32.114  10.905   9.335  0.00  0.00    -0.264 OA
BRANCH  51  53
HETATM   53  O   UNK N   1      32.355   8.930  10.348  0.00  0.00    -0.325 OA
HETATM   54  C   UNK N   1      31.367   8.127   9.826  0.00  0.00     0.213 C 
ENDBRANCH  51  53
ENDBRANCH  27  51
ENDBRANCH  11  27
BRANCH  13  55
HETATM   55  O   UNK N   1      33.625   7.951   7.256  0.00  0.00    -0.355 OA
HETATM   56  C   UNK N   1      32.785   7.132   6.531  0.00  0.00     0.210 C 
ENDBRANCH  13  55
BRANCH  18  57
HETATM   57  C   UNK N   1      31.363  15.102   4.839  0.00  0.00     0.011 C 
HETATM   58  C   UNK N   1      30.937  14.971   6.299  0.00  0.00     0.006 C 
ENDBRANCH  18  57
BRANCH  23  59
HETATM   59  C   UNK N   1      30.452  11.829   0.435  0.00  0.00     0.152 C 
BRANCH  59  60
HETATM   60  C   UNK N   1      30.325  10.323   0.576  0.00  0.00     0.135 C 
HETATM   61 Cl   UNK N   1      28.746   9.875  -0.112  0.00  0.00    -0.129 Cl
ENDBRANCH  59  60
ENDBRANCH  23  59
TORSDOF 9
ENDMDL
