REMARK  16 active torsions:
REMARK  status: ('A' for Active; 'I' for Inactive)
REMARK    1  A    between atoms: C_13  and  C_8 
REMARK    2  A    between atoms: C_16  and  C_8 
REMARK    3  A    between atoms: C_20  and  C_13 
REMARK    4  A    between atoms: C_15  and  C_14 
REMARK    5  A    between atoms: C_18  and  C_14 
REMARK    6  A    between atoms: C_21  and  C_15 
REMARK    7  A    between atoms: N_28  and  C_16 
REMARK    8  A    between atoms: C_24  and  C_17 
REMARK    9  A    between atoms: N_29  and  C_17 
REMARK   10  A    between atoms: N_30  and  C_19 
REMARK   11  A    between atoms: C_22  and  C_20 
REMARK   12  A    between atoms: C_20  and  N_32 
REMARK   13  A    between atoms: C_23  and  C_21 
REMARK   14  A    between atoms: C_21  and  N_29 
REMARK   15  A    between atoms: O_34  and  C_22 
REMARK   16  A    between atoms: O_37  and  C_24 
REMARK       I    between atoms: N_27  and  C_25 
REMARK       I    between atoms: N_28  and  C_25 
ROOT
HETATM    1  C   UNK N   1       1.551   1.879  -0.168  0.00  0.00     0.135 C 
HETATM    2  N   UNK N   1       1.738   3.035  -0.732  0.00  0.00    -0.361 N 
ATOM      3  HN  UNK N   1       1.639   3.106  -1.745  1.00  0.00     0.162 HD
HETATM    4  O   UNK N   1       1.568   1.763   1.176  0.00  0.00    -0.348 OA
HETATM    5  H   UNK N   1       1.504   1.712   2.110  0.00  0.00     0.219 HD
ENDROOT
BRANCH   1   6
HETATM    6  C   UNK N   1       1.443   0.643  -1.028  0.00  0.00     0.152 C 
BRANCH   6   7
HETATM    7  C   UNK N   1       0.137  -0.156  -0.887  0.00  0.00     0.038 C 
BRANCH   7   8
HETATM    8  C   UNK N   1      -0.165  -0.742   0.486  0.00  0.00     0.041 C 
BRANCH   8   9
HETATM    9  C   UNK N   1      -1.351  -1.644   0.388  0.00  0.00    -0.058 A 
HETATM   10  C   UNK N   1      -1.194  -3.024   0.561  0.00  0.00     0.007 A 
HETATM   11  C   UNK N   1      -2.300  -3.875   0.448  0.00  0.00     0.001 A 
HETATM   12  C   UNK N   1      -3.563  -3.346   0.165  0.00  0.00     0.000 A 
HETATM   13  C   UNK N   1      -3.723  -1.967  -0.002  0.00  0.00     0.001 A 
HETATM   14  C   UNK N   1      -2.619  -1.117   0.108  0.00  0.00     0.007 A 
ENDBRANCH   8   9
ENDBRANCH   7   8
ENDBRANCH   6   7
BRANCH   6  15
HETATM   15  N   UNK N   1       2.691  -0.152  -0.959  0.00  0.00    -0.397 N 
HETATM   16  H   UNK N   1       3.440   0.026  -1.628  0.00  0.00     0.154 HD
BRANCH  15  17
HETATM   17  C   UNK N   1       2.863  -1.198   0.065  0.00  0.00     0.172 C 
HETATM   18  C   UNK N   1       2.755  -0.667   1.485  0.00  0.00     0.043 C 
BRANCH  17  19
HETATM   19  C   UNK N   1       4.240  -1.780  -0.088  0.00  0.00     0.162 C 
HETATM   20  O   UNK N   1       5.226  -1.069   0.045  0.00  0.00    -0.648 OA
BRANCH  19  21
HETATM   21  O   UNK N   1       4.395  -3.087  -0.369  0.00  0.00    -0.775 OA
HETATM   22  H   UNK N   1       3.661  -3.636  -0.564  0.00  0.00     0.167 HD
ENDBRANCH  19  21
ENDBRANCH  17  19
ENDBRANCH  15  17
ENDBRANCH   6  15
ENDBRANCH   1   6
BRANCH   2  23
HETATM   23  C   UNK N   1       2.085   4.235   0.021  0.00  0.00     0.158 C 
BRANCH  23  24
HETATM   24  C   UNK N   1       3.603   4.471  -0.151  0.00  0.00     0.035 C 
BRANCH  24  25
HETATM   25  C   UNK N   1       4.427   3.241  -0.528  0.00  0.00     0.023 C 
BRANCH  25  26
HETATM   26  C   UNK N   1       4.915   2.512   0.705  0.00  0.00     0.138 C 
BRANCH  26  27
HETATM   27  N   UNK N   1       6.336   2.291   0.595  0.00  0.00    -0.227 N 
HETATM   28  C   UNK N   1       7.269   3.364   0.598  0.00  0.00     0.665 C 
HETATM   29  N   UNK N   1       6.874   4.576   0.736  0.00  0.00    -0.235 N 
HETATM   30  N   UNK N   1       8.644   3.092   0.441  0.00  0.00    -0.235 N 
HETATM   31  H   UNK N   1       7.528   5.304   0.842  0.00  0.00     0.174 HD
HETATM   32  H   UNK N   1       5.910   4.780   0.736  0.00  0.00     0.174 HD
HETATM   33  H   UNK N   1       8.960   2.166   0.331  0.00  0.00     0.174 HD
HETATM   34  H   UNK N   1       9.293   3.833   0.441  0.00  0.00     0.174 HD
HETATM   35  H   UNK N   1       6.671   1.368   0.514  0.00  0.00     0.177 HD
ENDBRANCH  26  27
ENDBRANCH  25  26
ENDBRANCH  24  25
ENDBRANCH  23  24
BRANCH  23  36
HETATM   36  C   UNK N   1       1.369   5.494  -0.479  0.00  0.00     0.139 C 
HETATM   37  N   UNK N   1       0.085   5.664  -0.519  0.00  0.00    -0.339 N 
ATOM     38  HN  UNK N   1      -0.203   6.571  -0.886  1.00  0.00     0.168 HD
BRANCH  37  39
HETATM   39  C   UNK N   1      -0.997   4.821  -0.146  0.00  0.00     0.033 A 
HETATM   40  C   UNK N   1      -0.833   3.614   0.544  0.00  0.00     0.029 A 
HETATM   41  C   UNK N   1      -1.943   2.820   0.853  0.00  0.00     0.002 A 
HETATM   42  C   UNK N   1      -3.225   3.233   0.481  0.00  0.00     0.000 A 
HETATM   43  C   UNK N   1      -3.399   4.444  -0.191  0.00  0.00     0.002 A 
HETATM   44  C   UNK N   1      -2.289   5.232  -0.500  0.00  0.00     0.029 A 
ENDBRANCH  37  39
BRANCH  36  45
HETATM   45  O   UNK N   1       2.130   6.522  -0.912  0.00  0.00    -0.348 OA
HETATM   46  H   UNK N   1       3.012   6.421  -1.213  0.00  0.00     0.219 HD
ENDBRANCH  36  45
ENDBRANCH  23  36
ENDBRANCH   2  23
TORSDOF 16
