MODEL 1
REMARK VINA RESULT:      -4.3      0.000      0.000
REMARK  7 active torsions:
REMARK  status: ('A' for Active; 'I' for Inactive)
REMARK    1  A    between atoms: C_2  and  N_1 
REMARK    2  A    between atoms: C_2  and  C_3 
REMARK    3  A    between atoms: C_2  and  C_8 
REMARK    4  A    between atoms: C_3  and  C_4 
REMARK    5  A    between atoms: C_4  and  C_5 
REMARK    6  A    between atoms: C_5  and  C_6 
REMARK    7  A    between atoms: C_8  and  O_9 
ROOT
HETATM    1  C   UNK N   1      23.577  12.401  11.008  0.00  0.00     0.173 C 
ENDROOT
BRANCH   1   2
HETATM    2  N   UNK N   1      25.032  12.382  11.072  0.00  0.00    -0.418 N 
HETATM    3  H   UNK N   1      25.632  13.183  10.877  0.00  0.00     0.150 HD
HETATM    4  H   UNK N   1      25.483  11.505  11.331  0.00  0.00     0.150 HD
ENDBRANCH   1   2
BRANCH   1   5
HETATM    5  C   UNK N   1      23.086  11.526   9.855  0.00  0.00     0.036 C 
BRANCH   5   6
HETATM    6  C   UNK N   1      22.135  12.312   8.969  0.00  0.00     0.009 C 
BRANCH   6   7
HETATM    7  C   UNK N   1      21.978  13.729   9.475  0.00  0.00     0.069 C 
BRANCH   7   8
HETATM    8  C   UNK N   1      20.551  13.952   9.842  0.00  0.00     0.231 C 
HETATM    9  O   UNK N   1      19.919  13.075  10.407  0.00  0.00    -0.307 OA
ENDBRANCH   7   8
ENDBRANCH   6   7
ENDBRANCH   5   6
ENDBRANCH   1   5
BRANCH   1  10
HETATM   10  C   UNK N   1      23.000  11.981  12.333  0.00  0.00     0.163 C 
HETATM   11  O   UNK N   1      23.697  11.963  13.335  0.00  0.00    -0.648 OA
BRANCH  10  12
HETATM   12  O   UNK N   1      21.726  11.549  12.404  0.00  0.00    -0.775 OA
HETATM   13  H   UNK N   1      21.392  11.195  13.205  0.00  0.00     0.167 HD
ENDBRANCH  10  12
ENDBRANCH   1  10
TORSDOF 7
ENDMDL
MODEL 2
REMARK VINA RESULT:      -4.2      1.562      1.787
REMARK  7 active torsions:
REMARK  status: ('A' for Active; 'I' for Inactive)
REMARK    1  A    between atoms: C_2  and  N_1 
REMARK    2  A    between atoms: C_2  and  C_3 
REMARK    3  A    between atoms: C_2  and  C_8 
REMARK    4  A    between atoms: C_3  and  C_4 
REMARK    5  A    between atoms: C_4  and  C_5 
REMARK    6  A    between atoms: C_5  and  C_6 
REMARK    7  A    between atoms: C_8  and  O_9 
ROOT
HETATM    1  C   UNK N   1      22.832  11.644  10.927  0.00  0.00     0.173 C 
ENDROOT
BRANCH   1   2
HETATM    2  N   UNK N   1      21.491  11.867  11.449  0.00  0.00    -0.418 N 
HETATM    3  H   UNK N   1      21.076  11.351  12.224  0.00  0.00     0.150 HD
HETATM    4  H   UNK N   1      20.926  12.594  11.007  0.00  0.00     0.150 HD
ENDBRANCH   1   2
BRANCH   1   5
HETATM    5  C   UNK N   1      23.032  12.426   9.629  0.00  0.00     0.036 C 
BRANCH   5   6
HETATM    6  C   UNK N   1      21.688  12.843   9.056  0.00  0.00     0.009 C 
BRANCH   6   7
HETATM    7  C   UNK N   1      21.538  14.349   9.085  0.00  0.00     0.069 C 
BRANCH   7   8
HETATM    8  C   UNK N   1      20.105  14.683   9.324  0.00  0.00     0.231 C 
HETATM    9  O   UNK N   1      19.406  13.942   9.995  0.00  0.00    -0.307 OA
ENDBRANCH   7   8
ENDBRANCH   6   7
ENDBRANCH   5   6
ENDBRANCH   1   5
BRANCH   1  10
HETATM   10  C   UNK N   1      23.855  11.998  11.972  0.00  0.00     0.163 C 
HETATM   11  O   UNK N   1      23.560  11.987  13.158  0.00  0.00    -0.648 OA
BRANCH  10  12
HETATM   12  O   UNK N   1      25.084  12.404  11.600  0.00  0.00    -0.775 OA
HETATM   13  H   UNK N   1      25.520  13.085  12.073  0.00  0.00     0.167 HD
ENDBRANCH  10  12
ENDBRANCH   1  10
TORSDOF 7
ENDMDL
MODEL 3
REMARK VINA RESULT:      -4.1     10.848     11.534
REMARK  7 active torsions:
REMARK  status: ('A' for Active; 'I' for Inactive)
REMARK    1  A    between atoms: C_2  and  N_1 
REMARK    2  A    between atoms: C_2  and  C_3 
REMARK    3  A    between atoms: C_2  and  C_8 
REMARK    4  A    between atoms: C_3  and  C_4 
REMARK    5  A    between atoms: C_4  and  C_5 
REMARK    6  A    between atoms: C_5  and  C_6 
REMARK    7  A    between atoms: C_8  and  O_9 
ROOT
HETATM    1  C   UNK N   1      33.302  17.314   8.481  0.00  0.00     0.173 C 
ENDROOT
BRANCH   1   2
HETATM    2  N   UNK N   1      33.859  17.026   9.795  0.00  0.00    -0.418 N 
HETATM    3  H   UNK N   1      34.678  16.442   9.963  0.00  0.00     0.150 HD
HETATM    4  H   UNK N   1      33.397  17.438  10.606  0.00  0.00     0.150 HD
ENDBRANCH   1   2
BRANCH   1   5
HETATM    5  C   UNK N   1      31.909  17.926   8.619  0.00  0.00     0.036 C 
BRANCH   5   6
HETATM    6  C   UNK N   1      30.906  17.139   7.792  0.00  0.00     0.009 C 
BRANCH   6   7
HETATM    7  C   UNK N   1      29.536  17.775   7.862  0.00  0.00     0.069 C 
BRANCH   7   8
HETATM    8  C   UNK N   1      29.082  17.784   9.282  0.00  0.00     0.231 C 
HETATM    9  O   UNK N   1      27.952  17.424   9.567  0.00  0.00    -0.307 OA
ENDBRANCH   7   8
ENDBRANCH   6   7
ENDBRANCH   5   6
ENDBRANCH   1   5
BRANCH   1  10
HETATM   10  C   UNK N   1      34.243  18.198   7.707  0.00  0.00     0.163 C 
HETATM   11  O   UNK N   1      34.363  18.068   6.498  0.00  0.00    -0.648 OA
BRANCH  10  12
HETATM   12  O   UNK N   1      35.016  19.089   8.357  0.00  0.00    -0.775 OA
HETATM   13  H   UNK N   1      34.686  19.540   9.109  0.00  0.00     0.167 HD
ENDBRANCH  10  12
ENDBRANCH   1  10
TORSDOF 7
ENDMDL
MODEL 4
REMARK VINA RESULT:      -4.0     12.233     12.900
REMARK  7 active torsions:
REMARK  status: ('A' for Active; 'I' for Inactive)
REMARK    1  A    between atoms: C_2  and  N_1 
REMARK    2  A    between atoms: C_2  and  C_3 
REMARK    3  A    between atoms: C_2  and  C_8 
REMARK    4  A    between atoms: C_3  and  C_4 
REMARK    5  A    between atoms: C_4  and  C_5 
REMARK    6  A    between atoms: C_5  and  C_6 
REMARK    7  A    between atoms: C_8  and  O_9 
ROOT
HETATM    1  C   UNK N   1      34.466  15.225  10.082  0.00  0.00     0.173 C 
ENDROOT
BRANCH   1   2
HETATM    2  N   UNK N   1      33.156  15.102  10.708  0.00  0.00    -0.418 N 
HETATM    3  H   UNK N   1      32.328  14.722  10.251  0.00  0.00     0.150 HD
HETATM    4  H   UNK N   1      33.062  15.420  11.672  0.00  0.00     0.150 HD
ENDBRANCH   1   2
BRANCH   1   5
HETATM    5  C   UNK N   1      34.328  15.794   8.671  0.00  0.00     0.036 C 
BRANCH   5   6
HETATM    6  C   UNK N   1      32.936  16.369   8.471  0.00  0.00     0.009 C 
BRANCH   6   7
HETATM    7  C   UNK N   1      32.990  17.876   8.346  0.00  0.00     0.069 C 
BRANCH   7   8
HETATM    8  C   UNK N   1      34.324  18.265   7.807  0.00  0.00     0.231 C 
HETATM    9  O   UNK N   1      34.977  19.135   8.356  0.00  0.00    -0.307 OA
ENDBRANCH   7   8
ENDBRANCH   6   7
ENDBRANCH   5   6
ENDBRANCH   1   5
BRANCH   1  10
HETATM   10  C   UNK N   1      35.373  16.055  10.949  0.00  0.00     0.163 C 
HETATM   11  O   UNK N   1      35.770  15.626  12.022  0.00  0.00    -0.648 OA
BRANCH  10  12
HETATM   12  O   UNK N   1      35.691  17.311  10.580  0.00  0.00    -0.775 OA
HETATM   13  H   UNK N   1      35.424  17.640   9.744  0.00  0.00     0.167 HD
ENDBRANCH  10  12
ENDBRANCH   1  10
TORSDOF 7
ENDMDL
MODEL 5
REMARK VINA RESULT:      -4.0     11.161     12.090
REMARK  7 active torsions:
REMARK  status: ('A' for Active; 'I' for Inactive)
REMARK    1  A    between atoms: C_2  and  N_1 
REMARK    2  A    between atoms: C_2  and  C_3 
REMARK    3  A    between atoms: C_2  and  C_8 
REMARK    4  A    between atoms: C_3  and  C_4 
REMARK    5  A    between atoms: C_4  and  C_5 
REMARK    6  A    between atoms: C_5  and  C_6 
REMARK    7  A    between atoms: C_8  and  O_9 
ROOT
HETATM    1  C   UNK N   1      21.475  19.837   2.181  0.00  0.00     0.173 C 
ENDROOT
BRANCH   1   2
HETATM    2  N   UNK N   1      22.638  20.336   2.900  0.00  0.00    -0.418 N 
HETATM    3  H   UNK N   1      23.275  21.051   2.549  0.00  0.00     0.150 HD
HETATM    4  H   UNK N   1      22.829  19.943   3.822  0.00  0.00     0.150 HD
ENDBRANCH   1   2
BRANCH   1   5
HETATM    5  C   UNK N   1      20.354  19.490   3.161  0.00  0.00     0.036 C 
BRANCH   5   6
HETATM    6  C   UNK N   1      19.473  18.395   2.584  0.00  0.00     0.009 C 
BRANCH   6   7
HETATM    7  C   UNK N   1      20.306  17.206   2.157  0.00  0.00     0.069 C 
BRANCH   7   8
HETATM    8  C   UNK N   1      19.894  16.802   0.782  0.00  0.00     0.231 C 
HETATM    9  O   UNK N   1      20.362  17.369  -0.190  0.00  0.00    -0.307 OA
ENDBRANCH   7   8
ENDBRANCH   6   7
ENDBRANCH   5   6
ENDBRANCH   1   5
BRANCH   1  10
HETATM   10  C   UNK N   1      21.041  20.840   1.146  0.00  0.00     0.163 C 
HETATM   11  O   UNK N   1      21.058  20.553  -0.041  0.00  0.00    -0.648 OA
BRANCH  10  12
HETATM   12  O   UNK N   1      20.703  22.089   1.521  0.00  0.00    -0.775 OA
HETATM   13  H   UNK N   1      20.729  22.790   0.900  0.00  0.00     0.167 HD
ENDBRANCH  10  12
ENDBRANCH   1  10
TORSDOF 7
ENDMDL
MODEL 6
REMARK VINA RESULT:      -4.0     10.180     11.133
REMARK  7 active torsions:
REMARK  status: ('A' for Active; 'I' for Inactive)
REMARK    1  A    between atoms: C_2  and  N_1 
REMARK    2  A    between atoms: C_2  and  C_3 
REMARK    3  A    between atoms: C_2  and  C_8 
REMARK    4  A    between atoms: C_3  and  C_4 
REMARK    5  A    between atoms: C_4  and  C_5 
REMARK    6  A    between atoms: C_5  and  C_6 
REMARK    7  A    between atoms: C_8  and  O_9 
ROOT
HETATM    1  C   UNK N   1      29.794  18.295   8.770  0.00  0.00     0.173 C 
ENDROOT
BRANCH   1   2
HETATM    2  N   UNK N   1      29.898  18.756  10.147  0.00  0.00    -0.418 N 
HETATM    3  H   UNK N   1      30.227  19.679  10.427  0.00  0.00     0.150 HD
HETATM    4  H   UNK N   1      29.621  18.108  10.885  0.00  0.00     0.150 HD
ENDBRANCH   1   2
BRANCH   1   5
HETATM    5  C   UNK N   1      30.847  17.223   8.488  0.00  0.00     0.036 C 
BRANCH   5   6
HETATM    6  C   UNK N   1      32.081  17.852   7.865  0.00  0.00     0.009 C 
BRANCH   6   7
HETATM    7  C   UNK N   1      33.323  17.483   8.646  0.00  0.00     0.069 C 
BRANCH   7   8
HETATM    8  C   UNK N   1      34.507  18.099   7.982  0.00  0.00     0.231 C 
HETATM    9  O   UNK N   1      34.979  19.139   8.412  0.00  0.00    -0.307 OA
ENDBRANCH   7   8
ENDBRANCH   6   7
ENDBRANCH   5   6
ENDBRANCH   1   5
BRANCH   1  10
HETATM   10  C   UNK N   1      28.396  17.812   8.494  0.00  0.00     0.163 C 
HETATM   11  O   UNK N   1      28.126  17.266   7.435  0.00  0.00    -0.648 OA
BRANCH  10  12
HETATM   12  O   UNK N   1      27.414  18.049   9.386  0.00  0.00    -0.775 OA
HETATM   13  H   UNK N   1      26.516  17.949   9.137  0.00  0.00     0.167 HD
ENDBRANCH  10  12
ENDBRANCH   1  10
TORSDOF 7
ENDMDL
MODEL 7
REMARK VINA RESULT:      -3.9      9.271     10.895
REMARK  7 active torsions:
REMARK  status: ('A' for Active; 'I' for Inactive)
REMARK    1  A    between atoms: C_2  and  N_1 
REMARK    2  A    between atoms: C_2  and  C_3 
REMARK    3  A    between atoms: C_2  and  C_8 
REMARK    4  A    between atoms: C_3  and  C_4 
REMARK    5  A    between atoms: C_4  and  C_5 
REMARK    6  A    between atoms: C_5  and  C_6 
REMARK    7  A    between atoms: C_8  and  O_9 
ROOT
HETATM    1  C   UNK N   1      20.116  19.265   2.546  0.00  0.00     0.173 C 
ENDROOT
BRANCH   1   2
HETATM    2  N   UNK N   1      18.722  18.936   2.282  0.00  0.00    -0.418 N 
HETATM    3  H   UNK N   1      18.267  19.023   1.374  0.00  0.00     0.150 HD
HETATM    4  H   UNK N   1      18.161  18.595   3.063  0.00  0.00     0.150 HD
ENDBRANCH   1   2
BRANCH   1   5
HETATM    5  C   UNK N   1      20.935  17.988   2.735  0.00  0.00     0.036 C 
BRANCH   5   6
HETATM    6  C   UNK N   1      21.673  18.030   4.062  0.00  0.00     0.009 C 
BRANCH   6   7
HETATM    7  C   UNK N   1      20.856  17.371   5.152  0.00  0.00     0.069 C 
BRANCH   7   8
HETATM    8  C   UNK N   1      21.384  17.805   6.476  0.00  0.00     0.231 C 
HETATM    9  O   UNK N   1      20.933  18.799   7.021  0.00  0.00    -0.307 OA
ENDBRANCH   7   8
ENDBRANCH   6   7
ENDBRANCH   5   6
ENDBRANCH   1   5
BRANCH   1  10
HETATM   10  C   UNK N   1      20.657  20.133   1.442  0.00  0.00     0.163 C 
HETATM   11  O   UNK N   1      21.106  21.242   1.690  0.00  0.00    -0.648 OA
BRANCH  10  12
HETATM   12  O   UNK N   1      20.577  19.722   0.162  0.00  0.00    -0.775 OA
HETATM   13  H   UNK N   1      20.820  20.299  -0.535  0.00  0.00     0.167 HD
ENDBRANCH  10  12
ENDBRANCH   1  10
TORSDOF 7
ENDMDL
MODEL 8
REMARK VINA RESULT:      -3.9     10.604     11.391
REMARK  7 active torsions:
REMARK  status: ('A' for Active; 'I' for Inactive)
REMARK    1  A    between atoms: C_2  and  N_1 
REMARK    2  A    between atoms: C_2  and  C_3 
REMARK    3  A    between atoms: C_2  and  C_8 
REMARK    4  A    between atoms: C_3  and  C_4 
REMARK    5  A    between atoms: C_4  and  C_5 
REMARK    6  A    between atoms: C_5  and  C_6 
REMARK    7  A    between atoms: C_8  and  O_9 
ROOT
HETATM    1  C   UNK N   1      19.909  19.400   2.824  0.00  0.00     0.173 C 
ENDROOT
BRANCH   1   2
HETATM    2  N   UNK N   1      18.709  18.832   2.226  0.00  0.00    -0.418 N 
HETATM    3  H   UNK N   1      18.635  17.881   1.865  0.00  0.00     0.150 HD
HETATM    4  H   UNK N   1      17.884  19.428   2.166  0.00  0.00     0.150 HD
ENDBRANCH   1   2
BRANCH   1   5
HETATM    5  C   UNK N   1      20.624  18.352   3.677  0.00  0.00     0.036 C 
BRANCH   5   6
HETATM    6  C   UNK N   1      21.397  17.392   2.790  0.00  0.00     0.009 C 
BRANCH   6   7
HETATM    7  C   UNK N   1      20.592  16.137   2.529  0.00  0.00     0.069 C 
BRANCH   7   8
HETATM    8  C   UNK N   1      20.558  15.886   1.060  0.00  0.00     0.231 C 
HETATM    9  O   UNK N   1      20.305  16.796   0.288  0.00  0.00    -0.307 OA
ENDBRANCH   7   8
ENDBRANCH   6   7
ENDBRANCH   5   6
ENDBRANCH   1   5
BRANCH   1  10
HETATM   10  C   UNK N   1      20.798  19.968   1.750  0.00  0.00     0.163 C 
HETATM   11  O   UNK N   1      21.689  20.755   2.034  0.00  0.00    -0.648 OA
BRANCH  10  12
HETATM   12  O   UNK N   1      20.566  19.668   0.458  0.00  0.00    -0.775 OA
HETATM   13  H   UNK N   1      20.902  20.220  -0.222  0.00  0.00     0.167 HD
ENDBRANCH  10  12
ENDBRANCH   1  10
TORSDOF 7
ENDMDL
MODEL 9
REMARK VINA RESULT:      -3.9     11.622     12.371
REMARK  7 active torsions:
REMARK  status: ('A' for Active; 'I' for Inactive)
REMARK    1  A    between atoms: C_2  and  N_1 
REMARK    2  A    between atoms: C_2  and  C_3 
REMARK    3  A    between atoms: C_2  and  C_8 
REMARK    4  A    between atoms: C_3  and  C_4 
REMARK    5  A    between atoms: C_4  and  C_5 
REMARK    6  A    between atoms: C_5  and  C_6 
REMARK    7  A    between atoms: C_8  and  O_9 
ROOT
HETATM    1  C   UNK N   1      33.478  17.212   8.544  0.00  0.00     0.173 C 
ENDROOT
BRANCH   1   2
HETATM    2  N   UNK N   1      34.021  17.024   9.882  0.00  0.00    -0.418 N 
HETATM    3  H   UNK N   1      33.970  17.714  10.631  0.00  0.00     0.150 HD
HETATM    4  H   UNK N   1      34.486  16.139  10.084  0.00  0.00     0.150 HD
ENDBRANCH   1   2
BRANCH   1   5
HETATM    5  C   UNK N   1      32.040  17.724   8.622  0.00  0.00     0.036 C 
BRANCH   5   6
HETATM    6  C   UNK N   1      31.230  17.193   7.452  0.00  0.00     0.009 C 
BRANCH   6   7
HETATM    7  C   UNK N   1      31.545  15.735   7.200  0.00  0.00     0.069 C 
BRANCH   7   8
HETATM    8  C   UNK N   1      31.900  15.563   5.762  0.00  0.00     0.231 C 
HETATM    9  O   UNK N   1      32.234  16.526   5.094  0.00  0.00    -0.307 OA
ENDBRANCH   7   8
ENDBRANCH   6   7
ENDBRANCH   5   6
ENDBRANCH   1   5
BRANCH   1  10
HETATM   10  C   UNK N   1      34.370  18.129   7.751  0.00  0.00     0.163 C 
HETATM   11  O   UNK N   1      34.968  19.041   8.302  0.00  0.00    -0.648 OA
BRANCH  10  12
HETATM   12  O   UNK N   1      34.455  17.995   6.414  0.00  0.00    -0.775 OA
HETATM   13  H   UNK N   1      33.888  17.400   5.963  0.00  0.00     0.167 HD
ENDBRANCH  10  12
ENDBRANCH   1  10
TORSDOF 7
ENDMDL
