MODEL 1
REMARK VINA RESULT:      -8.5      0.000      0.000
REMARK  23 active torsions:
REMARK  status: ('A' for Active; 'I' for Inactive)
REMARK    1  A    between atoms: C_27  and  C_23 
REMARK    2  A    between atoms: O_61  and  C_23 
REMARK    3  A    between atoms: C_28  and  C_24 
REMARK    4  A    between atoms: O_62  and  C_24 
REMARK    5  A    between atoms: C_33  and  C_25 
REMARK    6  A    between atoms: C_34  and  C_26 
REMARK    7  A    between atoms: C_31  and  C_29 
REMARK    8  A    between atoms: C_32  and  C_30 
REMARK    9  A    between atoms: C_39  and  C_33 
REMARK   10  A    between atoms: C_33  and  N_51 
REMARK   11  A    between atoms: C_40  and  C_34 
REMARK   12  A    between atoms: C_34  and  N_53 
REMARK   13  A    between atoms: C_36  and  C_35 
REMARK   14  A    between atoms: C_37  and  C_35 
REMARK   15  A    between atoms: C_35  and  O_55 
REMARK   16  A    between atoms: C_38  and  C_36 
REMARK   17  A    between atoms: C_36  and  O_56 
REMARK   18  A    between atoms: C_41  and  C_37 
REMARK   19  A    between atoms: C_37  and  O_61 
REMARK   20  A    between atoms: C_42  and  C_38 
REMARK   21  A    between atoms: C_38  and  O_62 
REMARK   22  A    between atoms: C_41  and  O_59 
REMARK   23  A    between atoms: C_42  and  O_60 
ROOT
HETATM    1  C   UNK N   1      35.357  12.451   3.109  0.00  0.00     0.148 C 
HETATM    2  C   UNK N   1      34.152  14.010   4.458  0.00  0.00     0.134 C 
HETATM    3  N   UNK N   1      34.729  13.724   3.341  0.00  0.00    -0.377 N 
ATOM      4  HN  UNK N   1      34.740  14.423   2.598  1.00  0.00     0.160 HD
HETATM    5  O   UNK N   1      34.121  13.111   5.466  0.00  0.00    -0.348 OA
HETATM    6  H   UNK N   1      33.920  12.505   6.152  0.00  0.00     0.219 HD
ENDROOT
BRANCH   2   7
HETATM    7  C   UNK N   1      33.507  15.363   4.626  0.00  0.00     0.161 C 
BRANCH   7   8
HETATM    8  C   UNK N   1      32.080  15.402   4.039  0.00  0.00     0.008 C 
HETATM    9  C   UNK N   1      31.037  14.810   4.967  0.00  0.00     0.012 C 
HETATM   10  C   UNK N   1      31.646  16.797   3.598  0.00  0.00     0.012 C 
ENDBRANCH   7   8
BRANCH   7  11
HETATM   11  N   UNK N   1      33.395  15.752   6.014  0.00  0.00    -0.360 N 
HETATM   12  C   UNK N   1      33.657  16.881   6.584  0.00  0.00     0.144 C 
ATOM     13  HN  UNK N   1      33.057  15.021   6.639  1.00  0.00     0.162 HD
BRANCH  12  14
HETATM   14  C   UNK N   1      33.354  17.010   8.077  0.00  0.00     0.227 C 
BRANCH  14  15
HETATM   15  C   UNK N   1      34.305  16.265   9.074  0.00  0.00     0.186 C 
BRANCH  15  16
HETATM   16  C   UNK N   1      33.873  14.884   9.553  0.00  0.00     0.186 C 
BRANCH  16  17
HETATM   17  C   UNK N   1      34.982  13.953  10.150  0.00  0.00     0.227 C 
BRANCH  17  18
HETATM   18  C   UNK N   1      36.430  14.227   9.741  0.00  0.00     0.144 C 
HETATM   19  N   UNK N   1      36.941  13.492   8.814  0.00  0.00    -0.360 N 
ATOM     20  HN  UNK N   1      36.337  12.743   8.474  1.00  0.00     0.162 HD
BRANCH  19  21
HETATM   21  C   UNK N   1      38.239  13.566   8.181  0.00  0.00     0.161 C 
BRANCH  21  22
HETATM   22  C   UNK N   1      38.004  13.395   6.665  0.00  0.00     0.008 C 
HETATM   23  C   UNK N   1      37.381  12.059   6.305  0.00  0.00     0.012 C 
HETATM   24  C   UNK N   1      37.186  14.526   6.050  0.00  0.00     0.012 C 
ENDBRANCH  21  22
BRANCH  21  25
HETATM   25  C   UNK N   1      39.201  12.538   8.725  0.00  0.00     0.134 C 
HETATM   26  N   UNK N   1      40.381  12.452   8.214  0.00  0.00    -0.377 N 
HETATM   27  C   UNK N   1      41.347  11.490   8.679  0.00  0.00     0.148 C 
ATOM     28  HN  UNK N   1      40.640  13.084   7.458  1.00  0.00     0.160 HD
HETATM   29  O   UNK N   1      38.825  11.720   9.732  0.00  0.00    -0.348 OA
HETATM   30  H   UNK N   1      38.436  11.104  10.321  0.00  0.00     0.219 HD
ENDBRANCH  21  25
ENDBRANCH  19  21
BRANCH  18  31
HETATM   31  O   UNK N   1      37.136  15.226  10.315  0.00  0.00    -0.348 OA
HETATM   32  H   UNK N   1      37.503  15.122  11.171  0.00  0.00     0.219 HD
ENDBRANCH  18  31
ENDBRANCH  17  18
BRANCH  17  33
HETATM   33  O   UNK N   1      34.907  13.949  11.566  0.00  0.00    -0.370 OA
BRANCH  33  34
HETATM   34  C   UNK N   1      35.377  12.724  12.089  0.00  0.00     0.207 C 
BRANCH  34  35
HETATM   35  C   UNK N   1      35.116  12.728  13.521  0.00  0.00    -0.035 A 
HETATM   36  C   UNK N   1      35.855  13.575  14.335  0.00  0.00     0.010 A 
HETATM   37  C   UNK N   1      35.813  13.405  15.709  0.00  0.00     0.013 A 
HETATM   38  C   UNK N   1      35.038  12.379  16.268  0.00  0.00    -0.025 A 
HETATM   39  C   UNK N   1      34.233  11.583  15.440  0.00  0.00     0.013 A 
HETATM   40  C   UNK N   1      34.270  11.759  14.065  0.00  0.00     0.010 A 
BRANCH  38  41
HETATM   41  C   UNK N   1      35.246  11.999  17.670  0.00  0.00    -0.011 A 
HETATM   42  C   UNK N   1      35.655  10.702  18.000  0.00  0.00     0.015 A 
HETATM   43  C   UNK N   1      36.024  10.403  19.308  0.00  0.00     0.018 A 
HETATM   44  C   UNK N   1      35.992  11.410  20.274  0.00  0.00     0.087 A 
HETATM   45  N   UNK N   1      35.586  12.665  19.942  0.00  0.00    -0.374 N 
HETATM   46  C   UNK N   1      35.223  12.977  18.672  0.00  0.00     0.099 A 
ATOM     47  HN  UNK N   1      35.553  13.387  20.662  1.00  0.00     0.164 HD
ENDBRANCH  38  41
ENDBRANCH  34  35
ENDBRANCH  33  34
ENDBRANCH  17  33
ENDBRANCH  16  17
BRANCH  16  48
HETATM   48  O   UNK N   1      32.865  15.083  10.506  0.00  0.00    -0.390 OA
HETATM   49  H   UNK N   1      32.339  14.799  11.270  0.00  0.00     0.210 HD
ENDBRANCH  16  48
ENDBRANCH  15  16
BRANCH  15  50
HETATM   50  O   UNK N   1      34.490  17.051  10.219  0.00  0.00    -0.390 OA
HETATM   51  H   UNK N   1      34.777  17.866  10.660  0.00  0.00     0.210 HD
ENDBRANCH  15  50
ENDBRANCH  14  15
BRANCH  14  52
HETATM   52  O   UNK N   1      32.008  16.622   8.301  0.00  0.00    -0.370 OA
BRANCH  52  53
HETATM   53  C   UNK N   1      31.265  17.693   8.847  0.00  0.00     0.207 C 
BRANCH  53  54
HETATM   54  C   UNK N   1      30.044  17.832   8.067  0.00  0.00    -0.035 A 
HETATM   55  C   UNK N   1      30.008  17.302   6.784  0.00  0.00     0.010 A 
HETATM   56  C   UNK N   1      28.964  17.640   5.939  0.00  0.00     0.013 A 
HETATM   57  C   UNK N   1      27.960  18.517   6.376  0.00  0.00    -0.025 A 
HETATM   58  C   UNK N   1      27.966  18.980   7.700  0.00  0.00     0.013 A 
HETATM   59  C   UNK N   1      29.008  18.634   8.547  0.00  0.00     0.010 A 
BRANCH  57  60
HETATM   60  C   UNK N   1      27.052  19.119   5.394  0.00  0.00    -0.011 A 
HETATM   61  C   UNK N   1      27.532  20.041   4.457  0.00  0.00     0.015 A 
HETATM   62  C   UNK N   1      26.709  20.465   3.417  0.00  0.00     0.018 A 
HETATM   63  C   UNK N   1      25.414  19.951   3.318  0.00  0.00     0.087 A 
HETATM   64  N   UNK N   1      24.958  19.061   4.238  0.00  0.00    -0.374 N 
HETATM   65  C   UNK N   1      25.745  18.634   5.259  0.00  0.00     0.099 A 
ATOM     66  HN  UNK N   1      24.004  18.707   4.161  1.00  0.00     0.164 HD
ENDBRANCH  57  60
ENDBRANCH  53  54
ENDBRANCH  52  53
ENDBRANCH  14  52
ENDBRANCH  12  14
BRANCH  12  67
HETATM   67  O   UNK N   1      34.157  17.920   5.882  0.00  0.00    -0.348 OA
HETATM   68  H   UNK N   1      33.584  18.532   5.461  0.00  0.00     0.219 HD
ENDBRANCH  12  67
ENDBRANCH   7  11
ENDBRANCH   2   7
TORSDOF 23
ENDMDL
MODEL 2
REMARK VINA RESULT:      -8.3      2.669     11.846
REMARK  23 active torsions:
REMARK  status: ('A' for Active; 'I' for Inactive)
REMARK    1  A    between atoms: C_27  and  C_23 
REMARK    2  A    between atoms: O_61  and  C_23 
REMARK    3  A    between atoms: C_28  and  C_24 
REMARK    4  A    between atoms: O_62  and  C_24 
REMARK    5  A    between atoms: C_33  and  C_25 
REMARK    6  A    between atoms: C_34  and  C_26 
REMARK    7  A    between atoms: C_31  and  C_29 
REMARK    8  A    between atoms: C_32  and  C_30 
REMARK    9  A    between atoms: C_39  and  C_33 
REMARK   10  A    between atoms: C_33  and  N_51 
REMARK   11  A    between atoms: C_40  and  C_34 
REMARK   12  A    between atoms: C_34  and  N_53 
REMARK   13  A    between atoms: C_36  and  C_35 
REMARK   14  A    between atoms: C_37  and  C_35 
REMARK   15  A    between atoms: C_35  and  O_55 
REMARK   16  A    between atoms: C_38  and  C_36 
REMARK   17  A    between atoms: C_36  and  O_56 
REMARK   18  A    between atoms: C_41  and  C_37 
REMARK   19  A    between atoms: C_37  and  O_61 
REMARK   20  A    between atoms: C_42  and  C_38 
REMARK   21  A    between atoms: C_38  and  O_62 
REMARK   22  A    between atoms: C_41  and  O_59 
REMARK   23  A    between atoms: C_42  and  O_60 
ROOT
HETATM    1  C   UNK N   1      35.774   7.392  13.716  0.00  0.00     0.148 C 
HETATM    2  C   UNK N   1      37.133   8.910  12.471  0.00  0.00     0.134 C 
HETATM    3  N   UNK N   1      35.966   8.434  12.744  0.00  0.00    -0.377 N 
ATOM      4  HN  UNK N   1      35.154   8.808  12.254  1.00  0.00     0.160 HD
HETATM    5  O   UNK N   1      38.232   8.436  13.097  0.00  0.00    -0.348 OA
HETATM    6  H   UNK N   1      39.019   8.279  13.582  0.00  0.00     0.219 HD
ENDROOT
BRANCH   2   7
HETATM    7  C   UNK N   1      37.256  10.008  11.444  0.00  0.00     0.161 C 
BRANCH   7   8
HETATM    8  C   UNK N   1      36.956   9.504  10.016  0.00  0.00     0.008 C 
HETATM    9  C   UNK N   1      37.036  10.597   8.968  0.00  0.00     0.012 C 
HETATM   10  C   UNK N   1      37.828   8.324   9.597  0.00  0.00     0.012 C 
ENDBRANCH   7   8
BRANCH   7  11
HETATM   11  N   UNK N   1      36.346  11.103  11.696  0.00  0.00    -0.360 N 
HETATM   12  C   UNK N   1      36.581  12.293  12.139  0.00  0.00     0.144 C 
ATOM     13  HN  UNK N   1      35.366  10.904  11.495  1.00  0.00     0.162 HD
BRANCH  12  14
HETATM   14  C   UNK N   1      35.404  13.266  12.222  0.00  0.00     0.227 C 
BRANCH  14  15
HETATM   15  C   UNK N   1      35.702  14.782  11.967  0.00  0.00     0.186 C 
BRANCH  15  16
HETATM   16  C   UNK N   1      34.670  15.573  11.170  0.00  0.00     0.186 C 
BRANCH  16  17
HETATM   17  C   UNK N   1      34.960  15.797   9.647  0.00  0.00     0.227 C 
BRANCH  17  18
HETATM   18  C   UNK N   1      35.196  14.559   8.783  0.00  0.00     0.144 C 
HETATM   19  N   UNK N   1      34.176  13.829   8.488  0.00  0.00    -0.360 N 
ATOM     20  HN  UNK N   1      33.298  14.120   8.918  1.00  0.00     0.162 HD
BRANCH  19  21
HETATM   21  C   UNK N   1      34.084  12.659   7.642  0.00  0.00     0.161 C 
BRANCH  21  22
HETATM   22  C   UNK N   1      33.344  13.097   6.359  0.00  0.00     0.008 C 
HETATM   23  C   UNK N   1      32.145  13.985   6.636  0.00  0.00     0.012 C 
HETATM   24  C   UNK N   1      34.255  13.766   5.335  0.00  0.00     0.012 C 
ENDBRANCH  21  22
BRANCH  21  25
HETATM   25  C   UNK N   1      33.394  11.507   8.330  0.00  0.00     0.134 C 
HETATM   26  N   UNK N   1      33.543  10.316   7.859  0.00  0.00    -0.377 N 
HETATM   27  C   UNK N   1      32.908   9.172   8.460  0.00  0.00     0.148 C 
ATOM     28  HN  UNK N   1      34.128  10.180   7.036  1.00  0.00     0.160 HD
HETATM   29  O   UNK N   1      32.630  11.726   9.422  0.00  0.00    -0.348 OA
HETATM   30  H   UNK N   1      32.010  11.984  10.074  0.00  0.00     0.219 HD
ENDBRANCH  21  25
ENDBRANCH  19  21
BRANCH  18  31
HETATM   31  O   UNK N   1      36.431  14.260   8.321  0.00  0.00    -0.348 OA
HETATM   32  H   UNK N   1      37.082  13.904   8.892  0.00  0.00     0.219 HD
ENDBRANCH  18  31
ENDBRANCH  17  18
BRANCH  17  33
HETATM   33  O   UNK N   1      33.923  16.566   9.059  0.00  0.00    -0.370 OA
BRANCH  33  34
HETATM   34  C   UNK N   1      34.425  17.365   8.009  0.00  0.00     0.207 C 
BRANCH  34  35
HETATM   35  C   UNK N   1      33.366  17.509   7.020  0.00  0.00    -0.035 A 
HETATM   36  C   UNK N   1      32.046  17.514   7.449  0.00  0.00     0.010 A 
HETATM   37  C   UNK N   1      31.029  17.381   6.519  0.00  0.00     0.013 A 
HETATM   38  C   UNK N   1      31.335  17.233   5.158  0.00  0.00    -0.025 A 
HETATM   39  C   UNK N   1      32.668  17.311   4.730  0.00  0.00     0.013 A 
HETATM   40  C   UNK N   1      33.685  17.452   5.662  0.00  0.00     0.010 A 
BRANCH  38  41
HETATM   41  C   UNK N   1      30.295  16.773   4.231  0.00  0.00    -0.011 A 
HETATM   42  C   UNK N   1      30.503  15.640   3.437  0.00  0.00     0.015 A 
HETATM   43  C   UNK N   1      29.450  15.107   2.699  0.00  0.00     0.018 A 
HETATM   44  C   UNK N   1      28.193  15.707   2.772  0.00  0.00     0.087 A 
HETATM   45  N   UNK N   1      28.004  16.812   3.541  0.00  0.00    -0.374 N 
HETATM   46  C   UNK N   1      29.017  17.347   4.269  0.00  0.00     0.099 A 
ATOM     47  HN  UNK N   1      27.083  17.249   3.572  1.00  0.00     0.164 HD
ENDBRANCH  38  41
ENDBRANCH  34  35
ENDBRANCH  33  34
ENDBRANCH  17  33
ENDBRANCH  16  17
BRANCH  16  48
HETATM   48  O   UNK N   1      33.446  14.910  11.321  0.00  0.00    -0.390 OA
HETATM   49  H   UNK N   1      32.902  14.180  11.656  0.00  0.00     0.210 HD
ENDBRANCH  16  48
ENDBRANCH  15  16
BRANCH  15  50
HETATM   50  O   UNK N   1      36.922  14.912  11.290  0.00  0.00    -0.390 OA
HETATM   51  H   UNK N   1      37.698  14.536  10.845  0.00  0.00     0.210 HD
ENDBRANCH  15  50
ENDBRANCH  14  15
BRANCH  14  52
HETATM   52  O   UNK N   1      34.764  13.096  13.476  0.00  0.00    -0.370 OA
BRANCH  52  53
HETATM   53  C   UNK N   1      35.556  13.632  14.516  0.00  0.00     0.207 C 
BRANCH  53  54
HETATM   54  C   UNK N   1      35.286  12.865  15.723  0.00  0.00    -0.035 A 
HETATM   55  C   UNK N   1      35.268  13.526  16.944  0.00  0.00     0.010 A 
HETATM   56  C   UNK N   1      35.268  12.788  18.116  0.00  0.00     0.013 A 
HETATM   57  C   UNK N   1      35.294  11.387  18.065  0.00  0.00    -0.025 A 
HETATM   58  C   UNK N   1      35.230  10.732  16.826  0.00  0.00     0.013 A 
HETATM   59  C   UNK N   1      35.222  11.473  15.654  0.00  0.00     0.010 A 
BRANCH  57  60
HETATM   60  C   UNK N   1      35.618  10.628  19.278  0.00  0.00    -0.011 A 
HETATM   61  C   UNK N   1      36.849   9.974  19.398  0.00  0.00     0.015 A 
HETATM   62  C   UNK N   1      37.221   9.415  20.617  0.00  0.00     0.018 A 
HETATM   63  C   UNK N   1      36.360   9.527  21.711  0.00  0.00     0.087 A 
HETATM   64  N   UNK N   1      35.163  10.157  21.579  0.00  0.00    -0.374 N 
HETATM   65  C   UNK N   1      34.782  10.711  20.399  0.00  0.00     0.099 A 
ATOM     66  HN  UNK N   1      34.538  10.217  22.384  1.00  0.00     0.164 HD
ENDBRANCH  57  60
ENDBRANCH  53  54
ENDBRANCH  52  53
ENDBRANCH  14  52
ENDBRANCH  12  14
BRANCH  12  67
HETATM   67  O   UNK N   1      37.826  12.676  12.491  0.00  0.00    -0.348 OA
HETATM   68  H   UNK N   1      37.961  13.442  13.014  0.00  0.00     0.219 HD
ENDBRANCH  12  67
ENDBRANCH   7  11
ENDBRANCH   2   7
TORSDOF 23
ENDMDL
MODEL 3
REMARK VINA RESULT:      -8.2      2.412     11.126
REMARK  23 active torsions:
REMARK  status: ('A' for Active; 'I' for Inactive)
REMARK    1  A    between atoms: C_27  and  C_23 
REMARK    2  A    between atoms: O_61  and  C_23 
REMARK    3  A    between atoms: C_28  and  C_24 
REMARK    4  A    between atoms: O_62  and  C_24 
REMARK    5  A    between atoms: C_33  and  C_25 
REMARK    6  A    between atoms: C_34  and  C_26 
REMARK    7  A    between atoms: C_31  and  C_29 
REMARK    8  A    between atoms: C_32  and  C_30 
REMARK    9  A    between atoms: C_39  and  C_33 
REMARK   10  A    between atoms: C_33  and  N_51 
REMARK   11  A    between atoms: C_40  and  C_34 
REMARK   12  A    between atoms: C_34  and  N_53 
REMARK   13  A    between atoms: C_36  and  C_35 
REMARK   14  A    between atoms: C_37  and  C_35 
REMARK   15  A    between atoms: C_35  and  O_55 
REMARK   16  A    between atoms: C_38  and  C_36 
REMARK   17  A    between atoms: C_36  and  O_56 
REMARK   18  A    between atoms: C_41  and  C_37 
REMARK   19  A    between atoms: C_37  and  O_61 
REMARK   20  A    between atoms: C_42  and  C_38 
REMARK   21  A    between atoms: C_38  and  O_62 
REMARK   22  A    between atoms: C_41  and  O_59 
REMARK   23  A    between atoms: C_42  and  O_60 
ROOT
HETATM    1  C   UNK N   1      41.353   9.007   9.215  0.00  0.00     0.148 C 
HETATM    2  C   UNK N   1      39.385  10.359   9.203  0.00  0.00     0.134 C 
HETATM    3  N   UNK N   1      40.606  10.175   8.832  0.00  0.00    -0.377 N 
ATOM      4  HN  UNK N   1      41.056  10.880   8.249  1.00  0.00     0.160 HD
HETATM    5  O   UNK N   1      38.757   9.448   9.979  0.00  0.00    -0.348 OA
HETATM    6  H   UNK N   1      38.202   8.810  10.383  0.00  0.00     0.219 HD
ENDROOT
BRANCH   2   7
HETATM    7  C   UNK N   1      38.661  11.605   8.756  0.00  0.00     0.161 C 
BRANCH   7   8
HETATM    8  C   UNK N   1      37.836  11.367   7.472  0.00  0.00     0.008 C 
HETATM    9  C   UNK N   1      36.496  10.710   7.738  0.00  0.00     0.012 C 
HETATM   10  C   UNK N   1      37.636  12.631   6.641  0.00  0.00     0.012 C 
ENDBRANCH   7   8
BRANCH   7  11
HETATM   11  N   UNK N   1      37.739  12.096   9.756  0.00  0.00    -0.360 N 
HETATM   12  C   UNK N   1      37.902  13.000  10.662  0.00  0.00     0.144 C 
ATOM     13  HN  UNK N   1      36.818  11.659   9.743  1.00  0.00     0.162 HD
BRANCH  12  14
HETATM   14  C   UNK N   1      36.696  13.362  11.530  0.00  0.00     0.227 C 
BRANCH  14  15
HETATM   15  C   UNK N   1      36.082  14.791  11.353  0.00  0.00     0.186 C 
BRANCH  15  16
HETATM   16  C   UNK N   1      34.832  14.913  10.488  0.00  0.00     0.186 C 
BRANCH  16  17
HETATM   17  C   UNK N   1      34.649  13.862   9.342  0.00  0.00     0.227 C 
BRANCH  17  18
HETATM   18  C   UNK N   1      33.637  12.739   9.567  0.00  0.00     0.144 C 
HETATM   19  N   UNK N   1      34.038  11.683  10.187  0.00  0.00    -0.360 N 
ATOM     20  HN  UNK N   1      35.031  11.672  10.422  1.00  0.00     0.162 HD
BRANCH  19  21
HETATM   21  C   UNK N   1      33.298  10.511  10.600  0.00  0.00     0.161 C 
BRANCH  21  22
HETATM   22  C   UNK N   1      34.109   9.853  11.738  0.00  0.00     0.008 C 
HETATM   23  C   UNK N   1      35.609   9.907  11.509  0.00  0.00     0.012 C 
HETATM   24  C   UNK N   1      33.779  10.415  13.117  0.00  0.00     0.012 C 
ENDBRANCH  21  22
BRANCH  21  25
HETATM   25  C   UNK N   1      33.049   9.558   9.457  0.00  0.00     0.134 C 
HETATM   26  N   UNK N   1      31.960   9.668   8.776  0.00  0.00    -0.377 N 
HETATM   27  C   UNK N   1      31.654   8.788   7.677  0.00  0.00     0.148 C 
ATOM     28  HN  UNK N   1      31.295  10.399   9.022  1.00  0.00     0.160 HD
HETATM   29  O   UNK N   1      33.956   8.603   9.158  0.00  0.00    -0.348 OA
HETATM   30  H   UNK N   1      34.560   7.889   9.115  0.00  0.00     0.219 HD
ENDBRANCH  21  25
ENDBRANCH  19  21
BRANCH  18  31
HETATM   31  O   UNK N   1      32.356  12.866   9.152  0.00  0.00    -0.348 OA
HETATM   32  H   UNK N   1      31.649  12.834   9.766  0.00  0.00     0.219 HD
ENDBRANCH  18  31
ENDBRANCH  17  18
BRANCH  17  33
HETATM   33  O   UNK N   1      34.332  14.516   8.123  0.00  0.00    -0.370 OA
BRANCH  33  34
HETATM   34  C   UNK N   1      34.551  15.908   8.230  0.00  0.00     0.207 C 
BRANCH  34  35
HETATM   35  C   UNK N   1      33.361  16.580   7.729  0.00  0.00    -0.035 A 
HETATM   36  C   UNK N   1      32.342  16.887   8.620  0.00  0.00     0.010 A 
HETATM   37  C   UNK N   1      31.107  17.278   8.130  0.00  0.00     0.013 A 
HETATM   38  C   UNK N   1      30.889  17.351   6.746  0.00  0.00    -0.025 A 
HETATM   39  C   UNK N   1      31.951  17.117   5.860  0.00  0.00     0.013 A 
HETATM   40  C   UNK N   1      33.189  16.733   6.353  0.00  0.00     0.010 A 
BRANCH  38  41
HETATM   41  C   UNK N   1      29.517  17.444   6.235  0.00  0.00    -0.011 A 
HETATM   42  C   UNK N   1      29.275  17.490   4.858  0.00  0.00     0.015 A 
HETATM   43  C   UNK N   1      27.972  17.395   4.379  0.00  0.00     0.018 A 
HETATM   44  C   UNK N   1      26.921  17.243   5.285  0.00  0.00     0.087 A 
HETATM   45  N   UNK N   1      27.168  17.207   6.621  0.00  0.00    -0.374 N 
HETATM   46  C   UNK N   1      28.432  17.297   7.109  0.00  0.00     0.099 A 
ATOM     47  HN  UNK N   1      26.389  17.111   7.272  1.00  0.00     0.164 HD
ENDBRANCH  38  41
ENDBRANCH  34  35
ENDBRANCH  33  34
ENDBRANCH  17  33
ENDBRANCH  16  17
BRANCH  16  48
HETATM   48  O   UNK N   1      33.733  14.857  11.355  0.00  0.00    -0.390 OA
HETATM   49  H   UNK N   1      33.060  15.274  11.915  0.00  0.00     0.210 HD
ENDBRANCH  16  48
ENDBRANCH  15  16
BRANCH  15  50
HETATM   50  O   UNK N   1      37.042  15.647  10.798  0.00  0.00    -0.390 OA
HETATM   51  H   UNK N   1      37.519  16.492  10.764  0.00  0.00     0.210 HD
ENDBRANCH  15  50
ENDBRANCH  14  15
BRANCH  14  52
HETATM   52  O   UNK N   1      37.034  13.139  12.890  0.00  0.00    -0.370 OA
BRANCH  52  53
HETATM   53  C   UNK N   1      36.170  13.863  13.743  0.00  0.00     0.207 C 
BRANCH  53  54
HETATM   54  C   UNK N   1      36.158  13.194  15.036  0.00  0.00    -0.035 A 
HETATM   55  C   UNK N   1      36.544  11.862  15.102  0.00  0.00     0.010 A 
HETATM   56  C   UNK N   1      36.300  11.141  16.258  0.00  0.00     0.013 A 
HETATM   57  C   UNK N   1      35.658  11.752  17.346  0.00  0.00    -0.025 A 
HETATM   58  C   UNK N   1      35.346  13.118  17.296  0.00  0.00     0.013 A 
HETATM   59  C   UNK N   1      35.599  13.841  16.139  0.00  0.00     0.010 A 
BRANCH  57  60
HETATM   60  C   UNK N   1      35.117  10.917  18.424  0.00  0.00    -0.011 A 
HETATM   61  C   UNK N   1      34.602   9.645  18.146  0.00  0.00     0.015 A 
HETATM   62  C   UNK N   1      34.262   8.791  19.190  0.00  0.00     0.018 A 
HETATM   63  C   UNK N   1      34.453   9.213  20.508  0.00  0.00     0.087 A 
HETATM   64  N   UNK N   1      34.947  10.453  20.765  0.00  0.00    -0.374 N 
HETATM   65  C   UNK N   1      35.286  11.301  19.760  0.00  0.00     0.099 A 
ATOM     66  HN  UNK N   1      35.066  10.753  21.733  1.00  0.00     0.164 HD
ENDBRANCH  57  60
ENDBRANCH  53  54
ENDBRANCH  52  53
ENDBRANCH  14  52
ENDBRANCH  12  14
BRANCH  12  67
HETATM   67  O   UNK N   1      39.088  13.625  10.823  0.00  0.00    -0.348 OA
HETATM   68  H   UNK N   1      39.138  14.561  10.822  0.00  0.00     0.219 HD
ENDBRANCH  12  67
ENDBRANCH   7  11
ENDBRANCH   2   7
TORSDOF 23
ENDMDL
MODEL 4
REMARK VINA RESULT:      -8.1      3.406      8.731
REMARK  23 active torsions:
REMARK  status: ('A' for Active; 'I' for Inactive)
REMARK    1  A    between atoms: C_27  and  C_23 
REMARK    2  A    between atoms: O_61  and  C_23 
REMARK    3  A    between atoms: C_28  and  C_24 
REMARK    4  A    between atoms: O_62  and  C_24 
REMARK    5  A    between atoms: C_33  and  C_25 
REMARK    6  A    between atoms: C_34  and  C_26 
REMARK    7  A    between atoms: C_31  and  C_29 
REMARK    8  A    between atoms: C_32  and  C_30 
REMARK    9  A    between atoms: C_39  and  C_33 
REMARK   10  A    between atoms: C_33  and  N_51 
REMARK   11  A    between atoms: C_40  and  C_34 
REMARK   12  A    between atoms: C_34  and  N_53 
REMARK   13  A    between atoms: C_36  and  C_35 
REMARK   14  A    between atoms: C_37  and  C_35 
REMARK   15  A    between atoms: C_35  and  O_55 
REMARK   16  A    between atoms: C_38  and  C_36 
REMARK   17  A    between atoms: C_36  and  O_56 
REMARK   18  A    between atoms: C_41  and  C_37 
REMARK   19  A    between atoms: C_37  and  O_61 
REMARK   20  A    between atoms: C_42  and  C_38 
REMARK   21  A    between atoms: C_38  and  O_62 
REMARK   22  A    between atoms: C_41  and  O_59 
REMARK   23  A    between atoms: C_42  and  O_60 
ROOT
HETATM    1  C   UNK N   1      36.134   7.192   8.339  0.00  0.00     0.148 C 
HETATM    2  C   UNK N   1      34.610   8.181   9.889  0.00  0.00     0.134 C 
HETATM    3  N   UNK N   1      35.593   8.310   9.065  0.00  0.00    -0.377 N 
ATOM      4  HN  UNK N   1      36.000   9.235   8.923  1.00  0.00     0.160 HD
HETATM    5  O   UNK N   1      34.047   6.972  10.105  0.00  0.00    -0.348 OA
HETATM    6  H   UNK N   1      33.506   6.213  10.201  0.00  0.00     0.219 HD
ENDROOT
BRANCH   2   7
HETATM    7  C   UNK N   1      34.090   9.401  10.609  0.00  0.00     0.161 C 
BRANCH   7   8
HETATM    8  C   UNK N   1      34.867   9.678  11.915  0.00  0.00     0.008 C 
HETATM    9  C   UNK N   1      34.067  10.476  12.927  0.00  0.00     0.012 C 
HETATM   10  C   UNK N   1      35.415   8.415  12.571  0.00  0.00     0.012 C 
ENDBRANCH   7   8
BRANCH   7  11
HETATM   11  N   UNK N   1      34.189  10.599   9.806  0.00  0.00    -0.360 N 
HETATM   12  C   UNK N   1      33.259  11.329   9.288  0.00  0.00     0.144 C 
ATOM     13  HN  UNK N   1      35.140  10.915   9.620  1.00  0.00     0.162 HD
BRANCH  12  14
HETATM   14  C   UNK N   1      33.682  12.599   8.548  0.00  0.00     0.227 C 
BRANCH  14  15
HETATM   15  C   UNK N   1      33.099  13.960   9.059  0.00  0.00     0.186 C 
BRANCH  15  16
HETATM   16  C   UNK N   1      33.774  14.601  10.267  0.00  0.00     0.186 C 
BRANCH  16  17
HETATM   17  C   UNK N   1      34.927  15.622   9.986  0.00  0.00     0.227 C 
BRANCH  17  18
HETATM   18  C   UNK N   1      36.355  15.183  10.308  0.00  0.00     0.144 C 
HETATM   19  N   UNK N   1      36.694  13.976  10.012  0.00  0.00    -0.360 N 
ATOM     20  HN  UNK N   1      35.943  13.397   9.636  1.00  0.00     0.162 HD
BRANCH  19  21
HETATM   21  C   UNK N   1      37.975  13.315  10.130  0.00  0.00     0.161 C 
BRANCH  21  22
HETATM   22  C   UNK N   1      38.338  12.795   8.722  0.00  0.00     0.008 C 
HETATM   23  C   UNK N   1      37.131  12.644   7.814  0.00  0.00     0.012 C 
HETATM   24  C   UNK N   1      39.405  13.633   8.025  0.00  0.00     0.012 C 
ENDBRANCH  21  22
BRANCH  21  25
HETATM   25  C   UNK N   1      37.956  12.209  11.156  0.00  0.00     0.134 C 
HETATM   26  N   UNK N   1      37.759  12.506  12.395  0.00  0.00    -0.377 N 
HETATM   27  C   UNK N   1      37.736  11.502  13.428  0.00  0.00     0.148 C 
ATOM     28  HN  UNK N   1      37.614  13.481  12.652  1.00  0.00     0.160 HD
HETATM   29  O   UNK N   1      38.148  10.927  10.777  0.00  0.00    -0.348 OA
HETATM   30  H   UNK N   1      38.433  10.096  10.452  0.00  0.00     0.219 HD
ENDBRANCH  21  25
ENDBRANCH  19  21
BRANCH  18  31
HETATM   31  O   UNK N   1      37.239  16.045  10.859  0.00  0.00    -0.348 OA
HETATM   32  H   UNK N   1      38.065  15.743  11.182  0.00  0.00     0.219 HD
ENDBRANCH  18  31
ENDBRANCH  17  18
BRANCH  17  33
HETATM   33  O   UNK N   1      34.881  16.052   8.635  0.00  0.00    -0.370 OA
BRANCH  33  34
HETATM   34  C   UNK N   1      34.461  17.398   8.551  0.00  0.00     0.207 C 
BRANCH  34  35
HETATM   35  C   UNK N   1      33.355  17.455   7.606  0.00  0.00    -0.035 A 
HETATM   36  C   UNK N   1      32.062  17.275   8.077  0.00  0.00     0.010 A 
HETATM   37  C   UNK N   1      31.034  17.061   7.174  0.00  0.00     0.013 A 
HETATM   38  C   UNK N   1      31.303  17.016   5.798  0.00  0.00    -0.025 A 
HETATM   39  C   UNK N   1      32.599  17.280   5.332  0.00  0.00     0.013 A 
HETATM   40  C   UNK N   1      33.626  17.502   6.237  0.00  0.00     0.010 A 
BRANCH  38  41
HETATM   41  C   UNK N   1      30.293  16.474   4.882  0.00  0.00    -0.011 A 
HETATM   42  C   UNK N   1      30.479  16.545   3.498  0.00  0.00     0.015 A 
HETATM   43  C   UNK N   1      29.610  15.872   2.645  0.00  0.00     0.018 A 
HETATM   44  C   UNK N   1      28.566  15.122   3.188  0.00  0.00     0.087 A 
HETATM   45  N   UNK N   1      28.390  15.066   4.535  0.00  0.00    -0.374 N 
HETATM   46  C   UNK N   1      29.227  15.715   5.384  0.00  0.00     0.099 A 
ATOM     47  HN  UNK N   1      27.613  14.526   4.916  1.00  0.00     0.164 HD
ENDBRANCH  38  41
ENDBRANCH  34  35
ENDBRANCH  33  34
ENDBRANCH  17  33
ENDBRANCH  16  17
BRANCH  16  48
HETATM   48  O   UNK N   1      32.764  15.226  11.011  0.00  0.00    -0.390 OA
HETATM   49  H   UNK N   1      31.953  15.206  11.542  0.00  0.00     0.210 HD
ENDBRANCH  16  48
ENDBRANCH  15  16
BRANCH  15  50
HETATM   50  O   UNK N   1      31.748  13.795   9.391  0.00  0.00    -0.390 OA
HETATM   51  H   UNK N   1      31.043  13.534  10.005  0.00  0.00     0.210 HD
ENDBRANCH  15  50
ENDBRANCH  14  15
BRANCH  14  52
HETATM   52  O   UNK N   1      33.402  12.433   7.168  0.00  0.00    -0.370 OA
BRANCH  52  53
HETATM   53  C   UNK N   1      33.682  13.622   6.456  0.00  0.00     0.207 C 
BRANCH  53  54
HETATM   54  C   UNK N   1      32.963  13.565   5.192  0.00  0.00    -0.035 A 
HETATM   55  C   UNK N   1      31.729  12.930   5.154  0.00  0.00     0.010 A 
HETATM   56  C   UNK N   1      31.152  12.640   3.929  0.00  0.00     0.013 A 
HETATM   57  C   UNK N   1      31.816  12.978   2.741  0.00  0.00    -0.025 A 
HETATM   58  C   UNK N   1      33.023  13.691   2.794  0.00  0.00     0.013 A 
HETATM   59  C   UNK N   1      33.596  13.987   4.022  0.00  0.00     0.010 A 
BRANCH  57  60
HETATM   60  C   UNK N   1      31.368  12.391   1.474  0.00  0.00    -0.011 A 
HETATM   61  C   UNK N   1      30.005  12.339   1.158  0.00  0.00     0.015 A 
HETATM   62  C   UNK N   1      29.602  11.952  -0.116  0.00  0.00     0.018 A 
HETATM   63  C   UNK N   1      30.571  11.630  -1.070  0.00  0.00     0.087 A 
HETATM   64  N   UNK N   1      31.891  11.677  -0.750  0.00  0.00    -0.374 N 
HETATM   65  C   UNK N   1      32.304  12.054   0.488  0.00  0.00     0.099 A 
ATOM     66  HN  UNK N   1      32.585  11.424  -1.453  1.00  0.00     0.164 HD
ENDBRANCH  57  60
ENDBRANCH  53  54
ENDBRANCH  52  53
ENDBRANCH  14  52
ENDBRANCH  12  14
BRANCH  12  67
HETATM   67  O   UNK N   1      31.956  11.000   9.415  0.00  0.00    -0.348 OA
HETATM   68  H   UNK N   1      31.648  10.558  10.183  0.00  0.00     0.219 HD
ENDBRANCH  12  67
ENDBRANCH   7  11
ENDBRANCH   2   7
TORSDOF 23
ENDMDL
MODEL 5
REMARK VINA RESULT:      -8.0      3.158     11.533
REMARK  23 active torsions:
REMARK  status: ('A' for Active; 'I' for Inactive)
REMARK    1  A    between atoms: C_27  and  C_23 
REMARK    2  A    between atoms: O_61  and  C_23 
REMARK    3  A    between atoms: C_28  and  C_24 
REMARK    4  A    between atoms: O_62  and  C_24 
REMARK    5  A    between atoms: C_33  and  C_25 
REMARK    6  A    between atoms: C_34  and  C_26 
REMARK    7  A    between atoms: C_31  and  C_29 
REMARK    8  A    between atoms: C_32  and  C_30 
REMARK    9  A    between atoms: C_39  and  C_33 
REMARK   10  A    between atoms: C_33  and  N_51 
REMARK   11  A    between atoms: C_40  and  C_34 
REMARK   12  A    between atoms: C_34  and  N_53 
REMARK   13  A    between atoms: C_36  and  C_35 
REMARK   14  A    between atoms: C_37  and  C_35 
REMARK   15  A    between atoms: C_35  and  O_55 
REMARK   16  A    between atoms: C_38  and  C_36 
REMARK   17  A    between atoms: C_36  and  O_56 
REMARK   18  A    between atoms: C_41  and  C_37 
REMARK   19  A    between atoms: C_37  and  O_61 
REMARK   20  A    between atoms: C_42  and  C_38 
REMARK   21  A    between atoms: C_38  and  O_62 
REMARK   22  A    between atoms: C_41  and  O_59 
REMARK   23  A    between atoms: C_42  and  O_60 
ROOT
HETATM    1  C   UNK N   1      36.760   7.664  14.859  0.00  0.00     0.148 C 
HETATM    2  C   UNK N   1      37.843   9.002  13.203  0.00  0.00     0.134 C 
HETATM    3  N   UNK N   1      36.771   8.440  13.648  0.00  0.00    -0.377 N 
ATOM      4  HN  UNK N   1      35.903   8.550  13.123  1.00  0.00     0.160 HD
HETATM    5  O   UNK N   1      39.012   8.876  13.868  0.00  0.00    -0.348 OA
HETATM    6  H   UNK N   1      39.819   8.969  14.336  0.00  0.00     0.219 HD
ENDROOT
BRANCH   2   7
HETATM    7  C   UNK N   1      37.776   9.809  11.930  0.00  0.00     0.161 C 
BRANCH   7   8
HETATM    8  C   UNK N   1      37.557   8.916  10.689  0.00  0.00     0.008 C 
HETATM    9  C   UNK N   1      36.414   9.385   9.810  0.00  0.00     0.012 C 
HETATM   10  C   UNK N   1      38.816   8.736   9.846  0.00  0.00     0.012 C 
ENDBRANCH   7   8
BRANCH   7  11
HETATM   11  N   UNK N   1      36.696  10.771  11.943  0.00  0.00    -0.360 N 
HETATM   12  C   UNK N   1      36.685  12.000  12.337  0.00  0.00     0.144 C 
ATOM     13  HN  UNK N   1      35.806  10.423  11.587  1.00  0.00     0.162 HD
BRANCH  12  14
HETATM   14  C   UNK N   1      35.394  12.796  12.145  0.00  0.00     0.227 C 
BRANCH  14  15
HETATM   15  C   UNK N   1      35.528  14.316  11.792  0.00  0.00     0.186 C 
BRANCH  15  16
HETATM   16  C   UNK N   1      34.584  14.873  10.731  0.00  0.00     0.186 C 
BRANCH  16  17
HETATM   17  C   UNK N   1      34.525  14.122   9.359  0.00  0.00     0.227 C 
BRANCH  17  18
HETATM   18  C   UNK N   1      33.377  14.469   8.411  0.00  0.00     0.144 C 
HETATM   19  N   UNK N   1      33.179  15.713   8.137  0.00  0.00    -0.360 N 
ATOM     20  HN  UNK N   1      33.783  16.366   8.636  1.00  0.00     0.162 HD
BRANCH  19  21
HETATM   21  C   UNK N   1      32.231  16.325   7.232  0.00  0.00     0.161 C 
BRANCH  21  22
HETATM   22  C   UNK N   1      32.907  17.598   6.678  0.00  0.00     0.008 C 
HETATM   23  C   UNK N   1      34.087  18.059   7.513  0.00  0.00     0.012 C 
HETATM   24  C   UNK N   1      33.329  17.470   5.218  0.00  0.00     0.012 C 
ENDBRANCH  21  22
BRANCH  21  25
HETATM   25  C   UNK N   1      30.913  16.627   7.901  0.00  0.00     0.134 C 
HETATM   26  N   UNK N   1      30.902  16.939   9.152  0.00  0.00    -0.377 N 
HETATM   27  C   UNK N   1      29.680  17.232   9.856  0.00  0.00     0.148 C 
ATOM     28  HN  UNK N   1      31.785  16.979   9.659  1.00  0.00     0.160 HD
HETATM   29  O   UNK N   1      29.763  16.568   7.196  0.00  0.00    -0.348 OA
HETATM   30  H   UNK N   1      29.012  16.361   6.676  0.00  0.00     0.219 HD
ENDBRANCH  21  25
ENDBRANCH  19  21
BRANCH  18  31
HETATM   31  O   UNK N   1      32.616  13.498   7.858  0.00  0.00    -0.348 OA
HETATM   32  H   UNK N   1      32.906  12.608   7.853  0.00  0.00     0.219 HD
ENDBRANCH  18  31
ENDBRANCH  17  18
BRANCH  17  33
HETATM   33  O   UNK N   1      35.750  14.282   8.660  0.00  0.00    -0.370 OA
BRANCH  33  34
HETATM   34  C   UNK N   1      36.215  13.040   8.175  0.00  0.00     0.207 C 
BRANCH  34  35
HETATM   35  C   UNK N   1      37.671  13.084   8.177  0.00  0.00    -0.035 A 
HETATM   36  C   UNK N   1      38.325  13.639   7.085  0.00  0.00     0.010 A 
HETATM   37  C   UNK N   1      39.690  13.453   6.945  0.00  0.00     0.013 A 
HETATM   38  C   UNK N   1      40.399  12.700   7.893  0.00  0.00    -0.025 A 
HETATM   39  C   UNK N   1      39.740  12.215   9.032  0.00  0.00     0.013 A 
HETATM   40  C   UNK N   1      38.375  12.409   9.175  0.00  0.00     0.010 A 
BRANCH  38  41
HETATM   41  C   UNK N   1      41.755  12.236   7.579  0.00  0.00    -0.011 A 
HETATM   42  C   UNK N   1      42.426  11.367   8.446  0.00  0.00     0.015 A 
HETATM   43  C   UNK N   1      43.631  10.791   8.055  0.00  0.00     0.018 A 
HETATM   44  C   UNK N   1      44.148  11.081   6.792  0.00  0.00     0.087 A 
HETATM   45  N   UNK N   1      43.490  11.932   5.961  0.00  0.00    -0.374 N 
HETATM   46  C   UNK N   1      42.313  12.505   6.322  0.00  0.00     0.099 A 
ATOM     47  HN  UNK N   1      43.889  12.147   5.047  1.00  0.00     0.164 HD
ENDBRANCH  38  41
ENDBRANCH  34  35
ENDBRANCH  33  34
ENDBRANCH  17  33
ENDBRANCH  16  17
BRANCH  16  48
HETATM   48  O   UNK N   1      33.306  14.905  11.303  0.00  0.00    -0.390 OA
HETATM   49  H   UNK N   1      32.702  14.823  12.058  0.00  0.00     0.210 HD
ENDBRANCH  16  48
ENDBRANCH  15  16
BRANCH  15  50
HETATM   50  O   UNK N   1      36.832  14.580  11.352  0.00  0.00    -0.390 OA
HETATM   51  H   UNK N   1      37.576  15.182  11.192  0.00  0.00     0.210 HD
ENDBRANCH  15  50
ENDBRANCH  14  15
BRANCH  14  52
HETATM   52  O   UNK N   1      34.585  12.631  13.299  0.00  0.00    -0.370 OA
BRANCH  52  53
HETATM   53  C   UNK N   1      35.057  13.439  14.358  0.00  0.00     0.207 C 
BRANCH  53  54
HETATM   54  C   UNK N   1      34.962  12.665  15.587  0.00  0.00    -0.035 A 
HETATM   55  C   UNK N   1      34.998  13.334  16.802  0.00  0.00     0.010 A 
HETATM   56  C   UNK N   1      35.165  12.611  17.971  0.00  0.00     0.013 A 
HETATM   57  C   UNK N   1      35.306  11.216  17.921  0.00  0.00    -0.025 A 
HETATM   58  C   UNK N   1      35.186  10.545  16.696  0.00  0.00     0.013 A 
HETATM   59  C   UNK N   1      35.011  11.271  15.527  0.00  0.00     0.010 A 
BRANCH  57  60
HETATM   60  C   UNK N   1      35.800  10.500  19.102  0.00  0.00    -0.011 A 
HETATM   61  C   UNK N   1      36.777   9.506  18.972  0.00  0.00     0.015 A 
HETATM   62  C   UNK N   1      37.371   8.964  20.108  0.00  0.00     0.018 A 
HETATM   63  C   UNK N   1      36.989   9.432  21.367  0.00  0.00     0.087 A 
HETATM   64  N   UNK N   1      36.034  10.392  21.481  0.00  0.00    -0.374 N 
HETATM   65  C   UNK N   1      35.443  10.934  20.385  0.00  0.00     0.099 A 
ATOM     66  HN  UNK N   1      35.754  10.711  22.409  1.00  0.00     0.164 HD
ENDBRANCH  57  60
ENDBRANCH  53  54
ENDBRANCH  52  53
ENDBRANCH  14  52
ENDBRANCH  12  14
BRANCH  12  67
HETATM   67  O   UNK N   1      37.782  12.573  12.875  0.00  0.00    -0.348 OA
HETATM   68  H   UNK N   1      38.634  12.210  12.724  0.00  0.00     0.219 HD
ENDBRANCH  12  67
ENDBRANCH   7  11
ENDBRANCH   2   7
TORSDOF 23
ENDMDL
MODEL 6
REMARK VINA RESULT:      -8.0      1.685     10.919
REMARK  23 active torsions:
REMARK  status: ('A' for Active; 'I' for Inactive)
REMARK    1  A    between atoms: C_27  and  C_23 
REMARK    2  A    between atoms: O_61  and  C_23 
REMARK    3  A    between atoms: C_28  and  C_24 
REMARK    4  A    between atoms: O_62  and  C_24 
REMARK    5  A    between atoms: C_33  and  C_25 
REMARK    6  A    between atoms: C_34  and  C_26 
REMARK    7  A    between atoms: C_31  and  C_29 
REMARK    8  A    between atoms: C_32  and  C_30 
REMARK    9  A    between atoms: C_39  and  C_33 
REMARK   10  A    between atoms: C_33  and  N_51 
REMARK   11  A    between atoms: C_40  and  C_34 
REMARK   12  A    between atoms: C_34  and  N_53 
REMARK   13  A    between atoms: C_36  and  C_35 
REMARK   14  A    between atoms: C_37  and  C_35 
REMARK   15  A    between atoms: C_35  and  O_55 
REMARK   16  A    between atoms: C_38  and  C_36 
REMARK   17  A    between atoms: C_36  and  O_56 
REMARK   18  A    between atoms: C_41  and  C_37 
REMARK   19  A    between atoms: C_37  and  O_61 
REMARK   20  A    between atoms: C_42  and  C_38 
REMARK   21  A    between atoms: C_38  and  O_62 
REMARK   22  A    between atoms: C_41  and  O_59 
REMARK   23  A    between atoms: C_42  and  O_60 
ROOT
HETATM    1  C   UNK N   1      39.263   9.617   7.623  0.00  0.00     0.148 C 
HETATM    2  C   UNK N   1      39.244  11.968   7.204  0.00  0.00     0.134 C 
HETATM    3  N   UNK N   1      38.749  10.947   7.816  0.00  0.00    -0.377 N 
ATOM      4  HN  UNK N   1      37.968  11.087   8.458  1.00  0.00     0.160 HD
HETATM    5  O   UNK N   1      40.276  11.821   6.345  0.00  0.00    -0.348 OA
HETATM    6  H   UNK N   1      41.076  11.836   5.856  0.00  0.00     0.219 HD
ENDROOT
BRANCH   2   7
HETATM    7  C   UNK N   1      38.658  13.334   7.463  0.00  0.00     0.161 C 
BRANCH   7   8
HETATM    8  C   UNK N   1      37.814  13.838   6.272  0.00  0.00     0.008 C 
HETATM    9  C   UNK N   1      38.620  14.632   5.263  0.00  0.00     0.012 C 
HETATM   10  C   UNK N   1      37.049  12.726   5.562  0.00  0.00     0.012 C 
ENDBRANCH   7   8
BRANCH   7  11
HETATM   11  N   UNK N   1      37.793  13.353   8.621  0.00  0.00    -0.360 N 
HETATM   12  C   UNK N   1      37.873  14.050   9.705  0.00  0.00     0.144 C 
ATOM     13  HN  UNK N   1      36.999  12.716   8.575  1.00  0.00     0.162 HD
BRANCH  12  14
HETATM   14  C   UNK N   1      36.745  13.905  10.727  0.00  0.00     0.227 C 
BRANCH  14  15
HETATM   15  C   UNK N   1      36.152  15.220  11.338  0.00  0.00     0.186 C 
BRANCH  15  16
HETATM   16  C   UNK N   1      34.682  15.518  11.063  0.00  0.00     0.186 C 
BRANCH  16  17
HETATM   17  C   UNK N   1      34.252  15.674   9.565  0.00  0.00     0.227 C 
BRANCH  17  18
HETATM   18  C   UNK N   1      33.344  14.595   8.974  0.00  0.00     0.144 C 
HETATM   19  N   UNK N   1      33.795  13.906   7.983  0.00  0.00    -0.360 N 
ATOM     20  HN  UNK N   1      34.713  14.192   7.642  1.00  0.00     0.162 HD
BRANCH  19  21
HETATM   21  C   UNK N   1      33.201  12.791   7.281  0.00  0.00     0.161 C 
BRANCH  21  22
HETATM   22  C   UNK N   1      34.243  11.651   7.297  0.00  0.00     0.008 C 
HETATM   23  C   UNK N   1      34.602  11.191   8.698  0.00  0.00     0.012 C 
HETATM   24  C   UNK N   1      33.836  10.449   6.450  0.00  0.00     0.012 C 
ENDBRANCH  21  22
BRANCH  21  25
HETATM   25  C   UNK N   1      32.780  13.155   5.878  0.00  0.00     0.134 C 
HETATM   26  N   UNK N   1      31.549  12.999   5.532  0.00  0.00    -0.377 N 
HETATM   27  C   UNK N   1      31.079  13.318   4.209  0.00  0.00     0.148 C 
ATOM     28  HN  UNK N   1      30.885  12.637   6.217  1.00  0.00     0.160 HD
HETATM   29  O   UNK N   1      33.687  13.636   5.000  0.00  0.00    -0.348 OA
HETATM   30  H   UNK N   1      34.400  13.819   4.421  0.00  0.00     0.219 HD
ENDBRANCH  21  25
ENDBRANCH  19  21
BRANCH  18  31
HETATM   31  O   UNK N   1      32.120  14.356   9.496  0.00  0.00    -0.348 OA
HETATM   32  H   UNK N   1      31.881  14.702  10.333  0.00  0.00     0.219 HD
ENDBRANCH  18  31
ENDBRANCH  17  18
BRANCH  17  33
HETATM   33  O   UNK N   1      33.641  16.938   9.360  0.00  0.00    -0.370 OA
BRANCH  33  34
HETATM   34  C   UNK N   1      33.654  17.285   7.991  0.00  0.00     0.207 C 
BRANCH  34  35
HETATM   35  C   UNK N   1      32.282  17.223   7.509  0.00  0.00    -0.035 A 
HETATM   36  C   UNK N   1      32.054  16.895   6.179  0.00  0.00     0.010 A 
HETATM   37  C   UNK N   1      30.794  17.089   5.638  0.00  0.00     0.013 A 
HETATM   38  C   UNK N   1      29.764  17.623   6.426  0.00  0.00    -0.025 A 
HETATM   39  C   UNK N   1      29.986  17.873   7.788  0.00  0.00     0.013 A 
HETATM   40  C   UNK N   1      31.246  17.671   8.330  0.00  0.00     0.010 A 
BRANCH  38  41
HETATM   41  C   UNK N   1      28.546  18.125   5.779  0.00  0.00    -0.011 A 
HETATM   42  C   UNK N   1      27.806  19.157   6.365  0.00  0.00     0.015 A 
HETATM   43  C   UNK N   1      26.761  19.748   5.661  0.00  0.00     0.018 A 
HETATM   44  C   UNK N   1      26.475  19.308   4.368  0.00  0.00     0.087 A 
HETATM   45  N   UNK N   1      27.198  18.300   3.811  0.00  0.00    -0.374 N 
HETATM   46  C   UNK N   1      28.221  17.710   4.481  0.00  0.00     0.099 A 
ATOM     47  HN  UNK N   1      26.966  17.978   2.871  1.00  0.00     0.164 HD
ENDBRANCH  38  41
ENDBRANCH  34  35
ENDBRANCH  33  34
ENDBRANCH  17  33
ENDBRANCH  16  17
BRANCH  16  48
HETATM   48  O   UNK N   1      33.941  14.489  11.658  0.00  0.00    -0.390 OA
HETATM   49  H   UNK N   1      33.657  13.564  11.723  0.00  0.00     0.210 HD
ENDBRANCH  16  48
ENDBRANCH  15  16
BRANCH  15  50
HETATM   50  O   UNK N   1      36.882  16.322  10.874  0.00  0.00    -0.390 OA
HETATM   51  H   UNK N   1      37.663  16.897  10.886  0.00  0.00     0.210 HD
ENDBRANCH  15  50
ENDBRANCH  14  15
BRANCH  14  52
HETATM   52  O   UNK N   1      37.180  13.037  11.761  0.00  0.00    -0.370 OA
BRANCH  52  53
HETATM   53  C   UNK N   1      36.172  12.098  12.080  0.00  0.00     0.207 C 
BRANCH  53  54
HETATM   54  C   UNK N   1      35.760  12.336  13.455  0.00  0.00    -0.035 A 
HETATM   55  C   UNK N   1      36.615  13.034  14.296  0.00  0.00     0.010 A 
HETATM   56  C   UNK N   1      36.364  13.051  15.658  0.00  0.00     0.013 A 
HETATM   57  C   UNK N   1      35.260  12.359  16.178  0.00  0.00    -0.025 A 
HETATM   58  C   UNK N   1      34.360  11.725  15.309  0.00  0.00     0.013 A 
HETATM   59  C   UNK N   1      34.609  11.716  13.945  0.00  0.00     0.010 A 
BRANCH  57  60
HETATM   60  C   UNK N   1      35.182  12.110  17.622  0.00  0.00    -0.011 A 
HETATM   61  C   UNK N   1      35.314  10.811  18.126  0.00  0.00     0.015 A 
HETATM   62  C   UNK N   1      35.424  10.607  19.498  0.00  0.00     0.018 A 
HETATM   63  C   UNK N   1      35.411  11.710  20.355  0.00  0.00     0.087 A 
HETATM   64  N   UNK N   1      35.274  12.966  19.854  0.00  0.00    -0.374 N 
HETATM   65  C   UNK N   1      35.168  13.186  18.519  0.00  0.00     0.099 A 
ATOM     66  HN  UNK N   1      35.251  13.760  20.495  1.00  0.00     0.164 HD
ENDBRANCH  57  60
ENDBRANCH  53  54
ENDBRANCH  52  53
ENDBRANCH  14  52
ENDBRANCH  12  14
BRANCH  12  67
HETATM   67  O   UNK N   1      38.902  14.897   9.919  0.00  0.00    -0.348 OA
HETATM   68  H   UNK N   1      38.748  15.763  10.246  0.00  0.00     0.219 HD
ENDBRANCH  12  67
ENDBRANCH   7  11
ENDBRANCH   2   7
TORSDOF 23
ENDMDL
MODEL 7
REMARK VINA RESULT:      -7.9      2.544     10.827
REMARK  23 active torsions:
REMARK  status: ('A' for Active; 'I' for Inactive)
REMARK    1  A    between atoms: C_27  and  C_23 
REMARK    2  A    between atoms: O_61  and  C_23 
REMARK    3  A    between atoms: C_28  and  C_24 
REMARK    4  A    between atoms: O_62  and  C_24 
REMARK    5  A    between atoms: C_33  and  C_25 
REMARK    6  A    between atoms: C_34  and  C_26 
REMARK    7  A    between atoms: C_31  and  C_29 
REMARK    8  A    between atoms: C_32  and  C_30 
REMARK    9  A    between atoms: C_39  and  C_33 
REMARK   10  A    between atoms: C_33  and  N_51 
REMARK   11  A    between atoms: C_40  and  C_34 
REMARK   12  A    between atoms: C_34  and  N_53 
REMARK   13  A    between atoms: C_36  and  C_35 
REMARK   14  A    between atoms: C_37  and  C_35 
REMARK   15  A    between atoms: C_35  and  O_55 
REMARK   16  A    between atoms: C_38  and  C_36 
REMARK   17  A    between atoms: C_36  and  O_56 
REMARK   18  A    between atoms: C_41  and  C_37 
REMARK   19  A    between atoms: C_37  and  O_61 
REMARK   20  A    between atoms: C_42  and  C_38 
REMARK   21  A    between atoms: C_38  and  O_62 
REMARK   22  A    between atoms: C_41  and  O_59 
REMARK   23  A    between atoms: C_42  and  O_60 
ROOT
HETATM    1  C   UNK N   1      32.132   9.289   8.089  0.00  0.00     0.148 C 
HETATM    2  C   UNK N   1      33.544  10.545   9.550  0.00  0.00     0.134 C 
HETATM    3  N   UNK N   1      33.303   9.453   8.908  0.00  0.00    -0.377 N 
ATOM      4  HN  UNK N   1      33.965   8.680   8.984  1.00  0.00     0.160 HD
HETATM    5  O   UNK N   1      32.689  11.588   9.477  0.00  0.00    -0.348 OA
HETATM    6  H   UNK N   1      32.238  12.403   9.366  0.00  0.00     0.219 HD
ENDROOT
BRANCH   2   7
HETATM    7  C   UNK N   1      34.797  10.646  10.383  0.00  0.00     0.161 C 
BRANCH   7   8
HETATM    8  C   UNK N   1      36.066  10.328   9.563  0.00  0.00     0.008 C 
HETATM    9  C   UNK N   1      36.384  11.385   8.523  0.00  0.00     0.012 C 
HETATM   10  C   UNK N   1      37.296  10.070  10.428  0.00  0.00     0.012 C 
ENDBRANCH   7   8
BRANCH   7  11
HETATM   11  N   UNK N   1      34.984  11.968  10.940  0.00  0.00    -0.360 N 
HETATM   12  C   UNK N   1      34.747  12.408  12.130  0.00  0.00     0.144 C 
ATOM     13  HN  UNK N   1      35.360  12.659  10.291  1.00  0.00     0.162 HD
BRANCH  12  14
HETATM   14  C   UNK N   1      35.132  13.855  12.442  0.00  0.00     0.227 C 
BRANCH  14  15
HETATM   15  C   UNK N   1      34.872  14.927  11.329  0.00  0.00     0.186 C 
BRANCH  15  16
HETATM   16  C   UNK N   1      35.918  15.059  10.228  0.00  0.00     0.186 C 
BRANCH  16  17
HETATM   17  C   UNK N   1      35.440  15.630   8.851  0.00  0.00     0.227 C 
BRANCH  17  18
HETATM   18  C   UNK N   1      34.874  14.640   7.833  0.00  0.00     0.144 C 
HETATM   19  N   UNK N   1      35.527  14.466   6.735  0.00  0.00    -0.360 N 
ATOM     20  HN  UNK N   1      36.346  15.063   6.622  1.00  0.00     0.162 HD
BRANCH  19  21
HETATM   21  C   UNK N   1      35.276  13.556   5.640  0.00  0.00     0.161 C 
BRANCH  21  22
HETATM   22  C   UNK N   1      36.578  13.491   4.812  0.00  0.00     0.008 C 
HETATM   23  C   UNK N   1      37.720  14.275   5.432  0.00  0.00     0.012 C 
HETATM   24  C   UNK N   1      37.034  12.065   4.516  0.00  0.00     0.012 C 
ENDBRANCH  21  22
BRANCH  21  25
HETATM   25  C   UNK N   1      34.093  13.978   4.804  0.00  0.00     0.134 C 
HETATM   26  N   UNK N   1      32.950  13.418   5.008  0.00  0.00    -0.377 N 
HETATM   27  C   UNK N   1      31.781  13.765   4.242  0.00  0.00     0.148 C 
ATOM     28  HN  UNK N   1      32.871  12.706   5.733  1.00  0.00     0.160 HD
HETATM   29  O   UNK N   1      34.235  14.928   3.854  0.00  0.00    -0.348 OA
HETATM   30  H   UNK N   1      34.454  15.479   3.129  0.00  0.00     0.219 HD
ENDBRANCH  21  25
ENDBRANCH  19  21
BRANCH  18  31
HETATM   31  O   UNK N   1      33.741  13.949   8.092  0.00  0.00    -0.348 OA
HETATM   32  H   UNK N   1      33.153  13.716   7.401  0.00  0.00     0.219 HD
ENDBRANCH  18  31
ENDBRANCH  17  18
BRANCH  17  33
HETATM   33  O   UNK N   1      34.488  16.662   9.052  0.00  0.00    -0.370 OA
BRANCH  33  34
HETATM   34  C   UNK N   1      34.436  17.522   7.933  0.00  0.00     0.207 C 
BRANCH  34  35
HETATM   35  C   UNK N   1      33.049  17.594   7.497  0.00  0.00    -0.035 A 
HETATM   36  C   UNK N   1      32.062  17.836   8.442  0.00  0.00     0.010 A 
HETATM   37  C   UNK N   1      30.733  17.644   8.100  0.00  0.00     0.013 A 
HETATM   38  C   UNK N   1      30.394  17.199   6.813  0.00  0.00    -0.025 A 
HETATM   39  C   UNK N   1      31.396  17.037   5.845  0.00  0.00     0.013 A 
HETATM   40  C   UNK N   1      32.724  17.237   6.186  0.00  0.00     0.010 A 
BRANCH  38  41
HETATM   41  C   UNK N   1      29.041  16.692   6.559  0.00  0.00    -0.011 A 
HETATM   42  C   UNK N   1      28.828  15.686   5.611  0.00  0.00     0.015 A 
HETATM   43  C   UNK N   1      27.576  15.086   5.505  0.00  0.00     0.018 A 
HETATM   44  C   UNK N   1      26.550  15.493   6.360  0.00  0.00     0.087 A 
HETATM   45  N   UNK N   1      26.768  16.476   7.272  0.00  0.00    -0.374 N 
HETATM   46  C   UNK N   1      27.981  17.074   7.392  0.00  0.00     0.099 A 
ATOM     47  HN  UNK N   1      26.004  16.774   7.879  1.00  0.00     0.164 HD
ENDBRANCH  38  41
ENDBRANCH  34  35
ENDBRANCH  33  34
ENDBRANCH  17  33
ENDBRANCH  16  17
BRANCH  16  48
HETATM   48  O   UNK N   1      36.944  15.865  10.739  0.00  0.00    -0.390 OA
HETATM   49  H   UNK N   1      37.267  16.673  11.168  0.00  0.00     0.210 HD
ENDBRANCH  16  48
ENDBRANCH  15  16
BRANCH  15  50
HETATM   50  O   UNK N   1      34.744  16.191  11.919  0.00  0.00    -0.390 OA
HETATM   51  H   UNK N   1      34.513  16.768  12.664  0.00  0.00     0.210 HD
ENDBRANCH  15  50
ENDBRANCH  14  15
BRANCH  14  52
HETATM   52  O   UNK N   1      36.492  13.885  12.844  0.00  0.00    -0.370 OA
BRANCH  52  53
HETATM   53  C   UNK N   1      36.612  14.400  14.155  0.00  0.00     0.207 C 
BRANCH  53  54
HETATM   54  C   UNK N   1      36.515  13.282  15.083  0.00  0.00    -0.035 A 
HETATM   55  C   UNK N   1      37.240  12.129  14.816  0.00  0.00     0.010 A 
HETATM   56  C   UNK N   1      36.969  10.976  15.534  0.00  0.00     0.013 A 
HETATM   57  C   UNK N   1      35.964  10.976  16.513  0.00  0.00    -0.025 A 
HETATM   58  C   UNK N   1      35.296  12.168  16.828  0.00  0.00     0.013 A 
HETATM   59  C   UNK N   1      35.574  13.324  16.113  0.00  0.00     0.010 A 
BRANCH  57  60
HETATM   60  C   UNK N   1      35.465   9.698  17.033  0.00  0.00    -0.011 A 
HETATM   61  C   UNK N   1      35.875   8.490  16.458  0.00  0.00     0.015 A 
HETATM   62  C   UNK N   1      35.546   7.284  17.069  0.00  0.00     0.018 A 
HETATM   63  C   UNK N   1      34.816   7.299  18.260  0.00  0.00     0.087 A 
HETATM   64  N   UNK N   1      34.417   8.479  18.805  0.00  0.00    -0.374 N 
HETATM   65  C   UNK N   1      34.730   9.666  18.225  0.00  0.00     0.099 A 
ATOM     66  HN  UNK N   1      33.871   8.472  19.667  1.00  0.00     0.164 HD
ENDBRANCH  57  60
ENDBRANCH  53  54
ENDBRANCH  52  53
ENDBRANCH  14  52
ENDBRANCH  12  14
BRANCH  12  67
HETATM   67  O   UNK N   1      34.203  11.614  13.076  0.00  0.00    -0.348 OA
HETATM   68  H   UNK N   1      33.327  11.294  12.984  0.00  0.00     0.219 HD
ENDBRANCH  12  67
ENDBRANCH   7  11
ENDBRANCH   2   7
TORSDOF 23
ENDMDL
MODEL 8
REMARK VINA RESULT:      -7.9      2.641     11.868
REMARK  23 active torsions:
REMARK  status: ('A' for Active; 'I' for Inactive)
REMARK    1  A    between atoms: C_27  and  C_23 
REMARK    2  A    between atoms: O_61  and  C_23 
REMARK    3  A    between atoms: C_28  and  C_24 
REMARK    4  A    between atoms: O_62  and  C_24 
REMARK    5  A    between atoms: C_33  and  C_25 
REMARK    6  A    between atoms: C_34  and  C_26 
REMARK    7  A    between atoms: C_31  and  C_29 
REMARK    8  A    between atoms: C_32  and  C_30 
REMARK    9  A    between atoms: C_39  and  C_33 
REMARK   10  A    between atoms: C_33  and  N_51 
REMARK   11  A    between atoms: C_40  and  C_34 
REMARK   12  A    between atoms: C_34  and  N_53 
REMARK   13  A    between atoms: C_36  and  C_35 
REMARK   14  A    between atoms: C_37  and  C_35 
REMARK   15  A    between atoms: C_35  and  O_55 
REMARK   16  A    between atoms: C_38  and  C_36 
REMARK   17  A    between atoms: C_36  and  O_56 
REMARK   18  A    between atoms: C_41  and  C_37 
REMARK   19  A    between atoms: C_37  and  O_61 
REMARK   20  A    between atoms: C_42  and  C_38 
REMARK   21  A    between atoms: C_38  and  O_62 
REMARK   22  A    between atoms: C_41  and  O_59 
REMARK   23  A    between atoms: C_42  and  O_60 
ROOT
HETATM    1  C   UNK N   1      37.691  10.040  10.420  0.00  0.00     0.148 C 
HETATM    2  C   UNK N   1      36.478   9.168  12.284  0.00  0.00     0.134 C 
HETATM    3  N   UNK N   1      37.102  10.150  11.728  0.00  0.00    -0.377 N 
ATOM      4  HN  UNK N   1      37.181  11.033  12.233  1.00  0.00     0.160 HD
HETATM    5  O   UNK N   1      36.357   7.982  11.648  0.00  0.00    -0.348 OA
HETATM    6  H   UNK N   1      36.096   7.187  11.226  0.00  0.00     0.219 HD
ENDROOT
BRANCH   2   7
HETATM    7  C   UNK N   1      35.879   9.360  13.655  0.00  0.00     0.161 C 
BRANCH   7   8
HETATM    8  C   UNK N   1      36.648   8.575  14.739  0.00  0.00     0.008 C 
HETATM    9  C   UNK N   1      37.696   9.409  15.449  0.00  0.00     0.012 C 
HETATM   10  C   UNK N   1      35.735   7.911  15.766  0.00  0.00     0.012 C 
ENDBRANCH   7   8
BRANCH   7  11
HETATM   11  N   UNK N   1      35.880  10.746  14.068  0.00  0.00    -0.360 N 
HETATM   12  C   UNK N   1      34.974  11.655  13.926  0.00  0.00     0.144 C 
ATOM     13  HN  UNK N   1      36.728  11.052  14.544  1.00  0.00     0.162 HD
BRANCH  12  14
HETATM   14  C   UNK N   1      35.239  13.025  14.550  0.00  0.00     0.227 C 
BRANCH  14  15
HETATM   15  C   UNK N   1      35.981  14.089  13.671  0.00  0.00     0.186 C 
BRANCH  15  16
HETATM   16  C   UNK N   1      36.368  13.678  12.255  0.00  0.00     0.186 C 
BRANCH  16  17
HETATM   17  C   UNK N   1      36.417  14.806  11.170  0.00  0.00     0.227 C 
BRANCH  17  18
HETATM   18  C   UNK N   1      37.272  14.556   9.928  0.00  0.00     0.144 C 
HETATM   19  N   UNK N   1      36.707  14.004   8.910  0.00  0.00    -0.360 N 
ATOM     20  HN  UNK N   1      35.736  13.727   9.053  1.00  0.00     0.162 HD
BRANCH  19  21
HETATM   21  C   UNK N   1      37.238  13.717   7.595  0.00  0.00     0.161 C 
BRANCH  21  22
HETATM   22  C   UNK N   1      36.027  13.601   6.644  0.00  0.00     0.008 C 
HETATM   23  C   UNK N   1      34.807  12.985   7.304  0.00  0.00     0.012 C 
HETATM   24  C   UNK N   1      35.645  14.925   5.990  0.00  0.00     0.012 C 
ENDBRANCH  21  22
BRANCH  21  25
HETATM   25  C   UNK N   1      38.092  12.473   7.581  0.00  0.00     0.134 C 
HETATM   26  N   UNK N   1      39.310  12.544   7.997  0.00  0.00    -0.377 N 
HETATM   27  C   UNK N   1      40.183  11.399   8.005  0.00  0.00     0.148 C 
ATOM     28  HN  UNK N   1      39.666  13.438   8.331  1.00  0.00     0.160 HD
HETATM   29  O   UNK N   1      37.583  11.304   7.135  0.00  0.00    -0.348 OA
HETATM   30  H   UNK N   1      37.201  10.582   6.677  0.00  0.00     0.219 HD
ENDBRANCH  21  25
ENDBRANCH  19  21
BRANCH  18  31
HETATM   31  O   UNK N   1      38.571  14.929   9.894  0.00  0.00    -0.348 OA
HETATM   32  H   UNK N   1      39.244  14.347  10.186  0.00  0.00     0.219 HD
ENDBRANCH  18  31
ENDBRANCH  17  18
BRANCH  17  33
HETATM   33  O   UNK N   1      35.103  15.140  10.752  0.00  0.00    -0.370 OA
BRANCH  33  34
HETATM   34  C   UNK N   1      35.041  16.483  10.320  0.00  0.00     0.207 C 
BRANCH  34  35
HETATM   35  C   UNK N   1      34.144  16.536   9.175  0.00  0.00    -0.035 A 
HETATM   36  C   UNK N   1      34.177  17.653   8.351  0.00  0.00     0.010 A 
HETATM   37  C   UNK N   1      33.164  17.845   7.426  0.00  0.00     0.013 A 
HETATM   38  C   UNK N   1      32.111  16.922   7.334  0.00  0.00    -0.025 A 
HETATM   39  C   UNK N   1      32.134  15.757   8.115  0.00  0.00     0.013 A 
HETATM   40  C   UNK N   1      33.153  15.563   9.035  0.00  0.00     0.010 A 
BRANCH  38  41
HETATM   41  C   UNK N   1      30.894  17.286   6.599  0.00  0.00    -0.011 A 
HETATM   42  C   UNK N   1      30.853  17.193   5.204  0.00  0.00     0.015 A 
HETATM   43  C   UNK N   1      29.646  17.365   4.533  0.00  0.00     0.018 A 
HETATM   44  C   UNK N   1      28.487  17.617   5.266  0.00  0.00     0.087 A 
HETATM   45  N   UNK N   1      28.540  17.713   6.621  0.00  0.00    -0.374 N 
HETATM   46  C   UNK N   1      29.707  17.548   7.296  0.00  0.00     0.099 A 
ATOM     47  HN  UNK N   1      27.687  17.913   7.143  1.00  0.00     0.164 HD
ENDBRANCH  38  41
ENDBRANCH  34  35
ENDBRANCH  33  34
ENDBRANCH  17  33
ENDBRANCH  16  17
BRANCH  16  48
HETATM   48  O   UNK N   1      37.621  13.057  12.342  0.00  0.00    -0.390 OA
HETATM   49  H   UNK N   1      38.456  12.870  12.799  0.00  0.00     0.210 HD
ENDBRANCH  16  48
ENDBRANCH  15  16
BRANCH  15  50
HETATM   50  O   UNK N   1      37.161  14.485  14.314  0.00  0.00    -0.390 OA
HETATM   51  H   UNK N   1      37.775  14.463  15.065  0.00  0.00     0.210 HD
ENDBRANCH  15  50
ENDBRANCH  14  15
BRANCH  14  52
HETATM   52  O   UNK N   1      35.926  12.838  15.777  0.00  0.00    -0.370 OA
BRANCH  52  53
HETATM   53  C   UNK N   1      35.176  13.366  16.853  0.00  0.00     0.207 C 
BRANCH  53  54
HETATM   54  C   UNK N   1      35.246  12.416  17.953  0.00  0.00    -0.035 A 
HETATM   55  C   UNK N   1      35.161  11.059  17.669  0.00  0.00     0.010 A 
HETATM   56  C   UNK N   1      34.969  10.159  18.704  0.00  0.00     0.013 A 
HETATM   57  C   UNK N   1      34.852  10.620  20.025  0.00  0.00    -0.025 A 
HETATM   58  C   UNK N   1      35.020  11.984  20.306  0.00  0.00     0.013 A 
HETATM   59  C   UNK N   1      35.220  12.882  19.268  0.00  0.00     0.010 A 
BRANCH  57  60
HETATM   60  C   UNK N   1      34.333   9.718  21.058  0.00  0.00    -0.011 A 
HETATM   61  C   UNK N   1      35.088   8.620  21.486  0.00  0.00     0.015 A 
HETATM   62  C   UNK N   1      34.673   7.881  22.590  0.00  0.00     0.018 A 
HETATM   63  C   UNK N   1      33.508   8.255  23.264  0.00  0.00     0.087 A 
HETATM   64  N   UNK N   1      32.780   9.319  22.834  0.00  0.00    -0.374 N 
HETATM   65  C   UNK N   1      33.169  10.054  21.761  0.00  0.00     0.099 A 
ATOM     66  HN  UNK N   1      31.923   9.571  23.328  1.00  0.00     0.164 HD
ENDBRANCH  57  60
ENDBRANCH  53  54
ENDBRANCH  52  53
ENDBRANCH  14  52
ENDBRANCH  12  14
BRANCH  12  67
HETATM   67  O   UNK N   1      33.822  11.400  13.271  0.00  0.00    -0.348 OA
HETATM   68  H   UNK N   1      33.365  12.085  12.823  0.00  0.00     0.219 HD
ENDBRANCH  12  67
ENDBRANCH   7  11
ENDBRANCH   2   7
TORSDOF 23
ENDMDL
MODEL 9
REMARK VINA RESULT:      -7.9      3.228     10.522
REMARK  23 active torsions:
REMARK  status: ('A' for Active; 'I' for Inactive)
REMARK    1  A    between atoms: C_27  and  C_23 
REMARK    2  A    between atoms: O_61  and  C_23 
REMARK    3  A    between atoms: C_28  and  C_24 
REMARK    4  A    between atoms: O_62  and  C_24 
REMARK    5  A    between atoms: C_33  and  C_25 
REMARK    6  A    between atoms: C_34  and  C_26 
REMARK    7  A    between atoms: C_31  and  C_29 
REMARK    8  A    between atoms: C_32  and  C_30 
REMARK    9  A    between atoms: C_39  and  C_33 
REMARK   10  A    between atoms: C_33  and  N_51 
REMARK   11  A    between atoms: C_40  and  C_34 
REMARK   12  A    between atoms: C_34  and  N_53 
REMARK   13  A    between atoms: C_36  and  C_35 
REMARK   14  A    between atoms: C_37  and  C_35 
REMARK   15  A    between atoms: C_35  and  O_55 
REMARK   16  A    between atoms: C_38  and  C_36 
REMARK   17  A    between atoms: C_36  and  O_56 
REMARK   18  A    between atoms: C_41  and  C_37 
REMARK   19  A    between atoms: C_37  and  O_61 
REMARK   20  A    between atoms: C_42  and  C_38 
REMARK   21  A    between atoms: C_38  and  O_62 
REMARK   22  A    between atoms: C_41  and  O_59 
REMARK   23  A    between atoms: C_42  and  O_60 
ROOT
HETATM    1  C   UNK N   1      35.828   9.267  15.608  0.00  0.00     0.148 C 
HETATM    2  C   UNK N   1      34.944  11.462  15.283  0.00  0.00     0.134 C 
HETATM    3  N   UNK N   1      35.928  10.701  15.625  0.00  0.00    -0.377 N 
ATOM      4  HN  UNK N   1      36.806  11.132  15.916  1.00  0.00     0.160 HD
HETATM    5  O   UNK N   1      33.766  10.928  14.895  0.00  0.00    -0.348 OA
HETATM    6  H   UNK N   1      32.976  10.650  14.474  0.00  0.00     0.219 HD
ENDROOT
BRANCH   2   7
HETATM    7  C   UNK N   1      35.126  12.959  15.318  0.00  0.00     0.161 C 
BRANCH   7   8
HETATM    8  C   UNK N   1      35.975  13.412  16.525  0.00  0.00     0.008 C 
HETATM    9  C   UNK N   1      36.891  14.578  16.207  0.00  0.00     0.012 C 
HETATM   10  C   UNK N   1      35.142  13.734  17.762  0.00  0.00     0.012 C 
ENDBRANCH   7   8
BRANCH   7  11
HETATM   11  N   UNK N   1      35.788  13.461  14.134  0.00  0.00    -0.360 N 
HETATM   12  C   UNK N   1      35.388  13.487  12.907  0.00  0.00     0.144 C 
ATOM     13  HN  UNK N   1      36.715  13.854  14.294  1.00  0.00     0.162 HD
BRANCH  12  14
HETATM   14  C   UNK N   1      36.292  14.168  11.879  0.00  0.00     0.227 C 
BRANCH  14  15
HETATM   15  C   UNK N   1      35.909  15.618  11.429  0.00  0.00     0.186 C 
BRANCH  15  16
HETATM   16  C   UNK N   1      34.735  15.765  10.466  0.00  0.00     0.186 C 
BRANCH  16  17
HETATM   17  C   UNK N   1      34.913  15.177   9.026  0.00  0.00     0.227 C 
BRANCH  17  18
HETATM   18  C   UNK N   1      34.026  13.997   8.629  0.00  0.00     0.144 C 
HETATM   19  N   UNK N   1      33.726  13.862   7.383  0.00  0.00    -0.360 N 
ATOM     20  HN  UNK N   1      34.067  14.606   6.774  1.00  0.00     0.162 HD
BRANCH  19  21
HETATM   21  C   UNK N   1      32.979  12.820   6.715  0.00  0.00     0.161 C 
BRANCH  21  22
HETATM   22  C   UNK N   1      33.990  11.709   6.357  0.00  0.00     0.008 C 
HETATM   23  C   UNK N   1      33.417  10.659   5.423  0.00  0.00     0.012 C 
HETATM   24  C   UNK N   1      35.299  12.246   5.786  0.00  0.00     0.012 C 
ENDBRANCH  21  22
BRANCH  21  25
HETATM   25  C   UNK N   1      32.243  13.330   5.501  0.00  0.00     0.134 C 
HETATM   26  N   UNK N   1      32.874  14.060   4.646  0.00  0.00    -0.377 N 
HETATM   27  C   UNK N   1      32.232  14.587   3.470  0.00  0.00     0.148 C 
ATOM     28  HN  UNK N   1      33.857  14.272   4.809  1.00  0.00     0.160 HD
HETATM   29  O   UNK N   1      30.940  13.025   5.317  0.00  0.00    -0.348 OA
HETATM   30  H   UNK N   1      30.013  12.891   5.345  0.00  0.00     0.219 HD
ENDBRANCH  21  25
ENDBRANCH  19  21
BRANCH  18  31
HETATM   31  O   UNK N   1      33.598  13.109   9.554  0.00  0.00    -0.348 OA
HETATM   32  H   UNK N   1      33.119  12.345   9.300  0.00  0.00     0.219 HD
ENDBRANCH  18  31
ENDBRANCH  17  18
BRANCH  17  33
HETATM   33  O   UNK N   1      34.759  16.202   8.057  0.00  0.00    -0.370 OA
BRANCH  33  34
HETATM   34  C   UNK N   1      34.133  17.335   8.621  0.00  0.00     0.207 C 
BRANCH  34  35
HETATM   35  C   UNK N   1      32.826  17.475   7.994  0.00  0.00    -0.035 A 
HETATM   36  C   UNK N   1      31.720  17.711   8.798  0.00  0.00     0.010 A 
HETATM   37  C   UNK N   1      30.450  17.582   8.260  0.00  0.00     0.013 A 
HETATM   38  C   UNK N   1      30.288  17.205   6.919  0.00  0.00    -0.025 A 
HETATM   39  C   UNK N   1      31.414  17.049   6.098  0.00  0.00     0.013 A 
HETATM   40  C   UNK N   1      32.685  17.186   6.635  0.00  0.00     0.010 A 
BRANCH  38  41
HETATM   41  C   UNK N   1      28.972  16.758   6.448  0.00  0.00    -0.011 A 
HETATM   42  C   UNK N   1      28.863  15.939   5.320  0.00  0.00     0.015 A 
HETATM   43  C   UNK N   1      27.635  15.374   4.989  0.00  0.00     0.018 A 
HETATM   44  C   UNK N   1      26.527  15.625   5.800  0.00  0.00     0.087 A 
HETATM   45  N   UNK N   1      26.644  16.428   6.890  0.00  0.00    -0.374 N 
HETATM   46  C   UNK N   1      27.833  16.988   7.231  0.00  0.00     0.099 A 
ATOM     47  HN  UNK N   1      25.822  16.615   7.465  1.00  0.00     0.164 HD
ENDBRANCH  38  41
ENDBRANCH  34  35
ENDBRANCH  33  34
ENDBRANCH  17  33
ENDBRANCH  16  17
BRANCH  16  48
HETATM   48  O   UNK N   1      33.629  15.167  11.083  0.00  0.00    -0.390 OA
HETATM   49  H   UNK N   1      32.757  15.207  11.506  0.00  0.00     0.210 HD
ENDBRANCH  16  48
ENDBRANCH  15  16
BRANCH  15  50
HETATM   50  O   UNK N   1      37.013  16.224  10.815  0.00  0.00    -0.390 OA
HETATM   51  H   UNK N   1      37.778  16.821  10.827  0.00  0.00     0.210 HD
ENDBRANCH  15  50
ENDBRANCH  14  15
BRANCH  14  52
HETATM   52  O   UNK N   1      36.411  13.319  10.749  0.00  0.00    -0.370 OA
BRANCH  52  53
HETATM   53  C   UNK N   1      37.267  12.230  11.032  0.00  0.00     0.207 C 
BRANCH  53  54
HETATM   54  C   UNK N   1      36.549  11.005  10.713  0.00  0.00    -0.035 A 
HETATM   55  C   UNK N   1      36.172  10.776   9.397  0.00  0.00     0.010 A 
HETATM   56  C   UNK N   1      35.277   9.757   9.114  0.00  0.00     0.013 A 
HETATM   57  C   UNK N   1      34.753   8.973  10.152  0.00  0.00    -0.025 A 
HETATM   58  C   UNK N   1      35.205   9.162  11.467  0.00  0.00     0.013 A 
HETATM   59  C   UNK N   1      36.107  10.178  11.746  0.00  0.00     0.010 A 
BRANCH  57  60
HETATM   60  C   UNK N   1      33.583   8.127   9.895  0.00  0.00    -0.011 A 
HETATM   61  C   UNK N   1      32.296   8.586  10.198  0.00  0.00     0.015 A 
HETATM   62  C   UNK N   1      31.184   7.859   9.784  0.00  0.00     0.018 A 
HETATM   63  C   UNK N   1      31.371   6.681   9.056  0.00  0.00     0.087 A 
HETATM   64  N   UNK N   1      32.626   6.242   8.775  0.00  0.00    -0.374 N 
HETATM   65  C   UNK N   1      33.723   6.938   9.169  0.00  0.00     0.099 A 
ATOM     66  HN  UNK N   1      32.746   5.371   8.256  1.00  0.00     0.164 HD
ENDBRANCH  57  60
ENDBRANCH  53  54
ENDBRANCH  52  53
ENDBRANCH  14  52
ENDBRANCH  12  14
BRANCH  12  67
HETATM   67  O   UNK N   1      34.201  12.956  12.547  0.00  0.00    -0.348 OA
HETATM   68  H   UNK N   1      33.738  12.382  13.126  0.00  0.00     0.219 HD
ENDBRANCH  12  67
ENDBRANCH   7  11
ENDBRANCH   2   7
TORSDOF 23
ENDMDL
