MODEL 1
REMARK VINA RESULT:      -5.7      0.000      0.000
REMARK  4 active torsions:
REMARK  status: ('A' for Active; 'I' for Inactive)
REMARK    1  A    between atoms: C_5  and  C_4 
REMARK    2  A    between atoms: N_17  and  C_4 
REMARK    3  A    between atoms: O_18  and  C_8 
REMARK    4  A    between atoms: O_19  and  C_9 
ROOT
HETATM    1  C   UNK N   1      28.945  18.084   6.434  0.00  0.00     0.056 A 
HETATM    2  C   UNK N   1      28.208  18.731   7.439  0.00  0.00     0.109 A 
HETATM    3  C   UNK N   1      27.342  19.768   7.069  0.00  0.00     0.167 A 
HETATM    4  C   UNK N   1      27.951  19.490   4.805  0.00  0.00     0.223 A 
HETATM    5 Cl   UNK N   1      28.356  18.262   9.133  0.00  0.00    -0.077 Cl
HETATM    6  N   UNK N   1      28.794  18.485   5.144  0.00  0.00    -0.323 N 
ATOM      7  HN  UNK N   1      29.328  18.017   4.412  1.00  0.00     0.169 HD
HETATM    8  N   UNK N   1      27.231  20.126   5.764  0.00  0.00    -0.301 N 
ATOM      9  HN  UNK N   1      26.599  20.882   5.501  1.00  0.00     0.171 HD
ENDROOT
BRANCH   1  10
HETATM   10  C   UNK N   1      29.889  16.961   6.799  0.00  0.00     0.183 C 
BRANCH  10  11
HETATM   11  N   UNK N   1      31.320  17.190   6.625  0.00  0.00    -0.365 N 
HETATM   12  C   UNK N   1      32.049  17.112   5.391  0.00  0.00     0.125 A 
HETATM   13  C   UNK N   1      33.509  17.439   5.762  0.00  0.00     0.027 A 
HETATM   14  C   UNK N   1      33.570  17.707   7.278  0.00  0.00     0.077 A 
HETATM   15  C   UNK N   1      32.167  17.523   7.687  0.00  0.00     0.073 A 
HETATM   16  N   UNK N   1      31.769  17.658   8.903  0.00  0.00    -0.389 N 
HETATM   17  H   UNK N   1      30.783  17.525   9.167  0.00  0.00     0.157 HD
ATOM     18  HN  UNK N   1      32.448  17.903   9.623  1.00  0.00     0.157 HD
ENDBRANCH  10  11
ENDBRANCH   1  10
BRANCH   3  19
HETATM   19  O   UNK N   1      26.618  20.414   7.999  0.00  0.00    -0.345 OA
HETATM   20  H   UNK N   1      26.787  20.270   8.909  0.00  0.00     0.219 HD
ENDBRANCH   3  19
BRANCH   4  21
HETATM   21  O   UNK N   1      27.831  19.855   3.519  0.00  0.00    -0.332 OA
HETATM   22  H   UNK N   1      27.542  19.233   2.881  0.00  0.00     0.221 HD
ENDBRANCH   4  21
TORSDOF 4
ENDMDL
MODEL 2
REMARK VINA RESULT:      -5.7      8.901     10.604
REMARK  4 active torsions:
REMARK  status: ('A' for Active; 'I' for Inactive)
REMARK    1  A    between atoms: C_5  and  C_4 
REMARK    2  A    between atoms: N_17  and  C_4 
REMARK    3  A    between atoms: O_18  and  C_8 
REMARK    4  A    between atoms: O_19  and  C_9 
ROOT
HETATM    1  C   UNK N   1      22.351  13.105   9.406  0.00  0.00     0.056 A 
HETATM    2  C   UNK N   1      23.632  12.924   9.952  0.00  0.00     0.109 A 
HETATM    3  C   UNK N   1      23.743  12.313  11.208  0.00  0.00     0.167 A 
HETATM    4  C   UNK N   1      21.395  12.093  11.325  0.00  0.00     0.223 A 
HETATM    5 Cl   UNK N   1      25.079  13.449   9.091  0.00  0.00    -0.077 Cl
HETATM    6  N   UNK N   1      21.269  12.682  10.112  0.00  0.00    -0.323 N 
ATOM      7  HN  UNK N   1      20.337  12.811   9.717  1.00  0.00     0.169 HD
HETATM    8  N   UNK N   1      22.626  11.911  11.867  0.00  0.00    -0.301 N 
ATOM      9  HN  UNK N   1      22.713  11.467  12.781  1.00  0.00     0.171 HD
ENDROOT
BRANCH   1  10
HETATM   10  C   UNK N   1      22.196  13.761   8.052  0.00  0.00     0.183 C 
BRANCH  10  11
HETATM   11  N   UNK N   1      21.495  15.040   7.992  0.00  0.00    -0.365 N 
HETATM   12  C   UNK N   1      20.519  15.519   8.928  0.00  0.00     0.125 A 
HETATM   13  C   UNK N   1      20.100  16.906   8.403  0.00  0.00     0.027 A 
HETATM   14  C   UNK N   1      20.894  17.190   7.114  0.00  0.00     0.077 A 
HETATM   15  C   UNK N   1      21.711  15.972   6.972  0.00  0.00     0.073 A 
HETATM   16  N   UNK N   1      22.536  15.792   6.002  0.00  0.00    -0.389 N 
HETATM   17  H   UNK N   1      23.098  14.933   5.922  0.00  0.00     0.157 HD
ATOM     18  HN  UNK N   1      22.638  16.520   5.295  1.00  0.00     0.157 HD
ENDBRANCH  10  11
ENDBRANCH   1  10
BRANCH   3  19
HETATM   19  O   UNK N   1      24.950  12.122  11.767  0.00  0.00    -0.345 OA
HETATM   20  H   UNK N   1      25.548  11.506  11.392  0.00  0.00     0.219 HD
ENDBRANCH   3  19
BRANCH   4  21
HETATM   21  O   UNK N   1      20.301  11.690  11.989  0.00  0.00    -0.332 OA
HETATM   22  H   UNK N   1      20.299  10.864  12.432  0.00  0.00     0.221 HD
ENDBRANCH   4  21
TORSDOF 4
ENDMDL
MODEL 3
REMARK VINA RESULT:      -5.6      2.147      3.110
REMARK  4 active torsions:
REMARK  status: ('A' for Active; 'I' for Inactive)
REMARK    1  A    between atoms: C_5  and  C_4 
REMARK    2  A    between atoms: N_17  and  C_4 
REMARK    3  A    between atoms: O_18  and  C_8 
REMARK    4  A    between atoms: O_19  and  C_9 
ROOT
HETATM    1  C   UNK N   1      30.036  16.980   7.217  0.00  0.00     0.056 A 
HETATM    2  C   UNK N   1      29.630  17.557   6.003  0.00  0.00     0.109 A 
HETATM    3  C   UNK N   1      28.471  18.344   5.992  0.00  0.00     0.167 A 
HETATM    4  C   UNK N   1      28.177  17.970   8.305  0.00  0.00     0.223 A 
HETATM    5 Cl   UNK N   1      30.544  17.305   4.515  0.00  0.00    -0.077 Cl
HETATM    6  N   UNK N   1      29.295  17.206   8.334  0.00  0.00    -0.323 N 
ATOM      7  HN  UNK N   1      29.589  16.788   9.217  1.00  0.00     0.169 HD
HETATM    8  N   UNK N   1      27.770  18.534   7.139  0.00  0.00    -0.301 N 
ATOM      9  HN  UNK N   1      26.928  19.108   7.125  1.00  0.00     0.171 HD
ENDROOT
BRANCH   1  10
HETATM   10  C   UNK N   1      31.283  16.125   7.263  0.00  0.00     0.183 C 
BRANCH  10  11
HETATM   11  N   UNK N   1      32.518  16.747   7.731  0.00  0.00    -0.365 N 
HETATM   12  C   UNK N   1      33.256  17.779   7.061  0.00  0.00     0.125 A 
HETATM   13  C   UNK N   1      34.464  18.069   7.973  0.00  0.00     0.027 A 
HETATM   14  C   UNK N   1      34.372  17.144   9.201  0.00  0.00     0.077 A 
HETATM   15  C   UNK N   1      33.137  16.385   8.931  0.00  0.00     0.073 A 
HETATM   16  N   UNK N   1      32.683  15.483   9.727  0.00  0.00    -0.389 N 
HETATM   17  H   UNK N   1      31.818  14.965   9.519  0.00  0.00     0.157 HD
ATOM     18  HN  UNK N   1      33.193  15.276  10.586  1.00  0.00     0.157 HD
ENDBRANCH  10  11
ENDBRANCH   1  10
BRANCH   3  19
HETATM   19  O   UNK N   1      28.046  18.914   4.852  0.00  0.00    -0.345 OA
HETATM   20  H   UNK N   1      27.410  19.600   4.879  0.00  0.00     0.219 HD
ENDBRANCH   3  19
BRANCH   4  21
HETATM   21  O   UNK N   1      27.474  18.168   9.431  0.00  0.00    -0.332 OA
HETATM   22  H   UNK N   1      27.892  18.082  10.265  0.00  0.00     0.221 HD
ENDBRANCH   4  21
TORSDOF 4
ENDMDL
MODEL 4
REMARK VINA RESULT:      -5.5      2.979      5.037
REMARK  4 active torsions:
REMARK  status: ('A' for Active; 'I' for Inactive)
REMARK    1  A    between atoms: C_5  and  C_4 
REMARK    2  A    between atoms: N_17  and  C_4 
REMARK    3  A    between atoms: O_18  and  C_8 
REMARK    4  A    between atoms: O_19  and  C_9 
ROOT
HETATM    1  C   UNK N   1      30.611  17.475   5.632  0.00  0.00     0.056 A 
HETATM    2  C   UNK N   1      31.791  17.562   6.388  0.00  0.00     0.109 A 
HETATM    3  C   UNK N   1      33.019  17.518   5.715  0.00  0.00     0.167 A 
HETATM    4  C   UNK N   1      31.897  17.310   3.648  0.00  0.00     0.223 A 
HETATM    5 Cl   UNK N   1      31.748  17.724   8.144  0.00  0.00    -0.077 Cl
HETATM    6  N   UNK N   1      30.701  17.351   4.282  0.00  0.00    -0.323 N 
ATOM      7  HN  UNK N   1      29.844  17.287   3.730  1.00  0.00     0.169 HD
HETATM    8  N   UNK N   1      33.047  17.393   4.363  0.00  0.00    -0.301 N 
ATOM      9  HN  UNK N   1      33.945  17.362   3.879  1.00  0.00     0.171 HD
ENDROOT
BRANCH   1  10
HETATM   10  C   UNK N   1      29.268  17.519   6.327  0.00  0.00     0.183 C 
BRANCH  10  11
HETATM   11  N   UNK N   1      28.451  18.716   6.154  0.00  0.00    -0.365 N 
HETATM   12  C   UNK N   1      28.188  19.394   4.917  0.00  0.00     0.125 A 
HETATM   13  C   UNK N   1      27.281  20.583   5.292  0.00  0.00     0.027 A 
HETATM   14  C   UNK N   1      27.043  20.544   6.813  0.00  0.00     0.077 A 
HETATM   15  C   UNK N   1      27.813  19.355   7.222  0.00  0.00     0.073 A 
HETATM   16  N   UNK N   1      27.884  18.954   8.442  0.00  0.00    -0.389 N 
HETATM   17  H   UNK N   1      28.428  18.120   8.706  0.00  0.00     0.157 HD
ATOM     18  HN  UNK N   1      27.389  19.474   9.166  1.00  0.00     0.157 HD
ENDBRANCH  10  11
ENDBRANCH   1  10
BRANCH   3  19
HETATM   19  O   UNK N   1      34.173  17.598   6.399  0.00  0.00    -0.345 OA
HETATM   20  H   UNK N   1      34.991  17.582   5.943  0.00  0.00     0.219 HD
ENDBRANCH   3  19
BRANCH   4  21
HETATM   21  O   UNK N   1      31.942  17.187   2.312  0.00  0.00    -0.332 OA
HETATM   22  H   UNK N   1      32.045  17.949   1.775  0.00  0.00     0.221 HD
ENDBRANCH   4  21
TORSDOF 4
ENDMDL
MODEL 5
REMARK VINA RESULT:      -5.4      6.642      8.233
REMARK  4 active torsions:
REMARK  status: ('A' for Active; 'I' for Inactive)
REMARK    1  A    between atoms: C_5  and  C_4 
REMARK    2  A    between atoms: N_17  and  C_4 
REMARK    3  A    between atoms: O_18  and  C_8 
REMARK    4  A    between atoms: O_19  and  C_9 
ROOT
HETATM    1  C   UNK N   1      21.624  18.268   3.924  0.00  0.00     0.056 A 
HETATM    2  C   UNK N   1      20.331  17.906   3.515  0.00  0.00     0.109 A 
HETATM    3  C   UNK N   1      19.575  18.836   2.790  0.00  0.00     0.167 A 
HETATM    4  C   UNK N   1      21.350  20.389   2.902  0.00  0.00     0.223 A 
HETATM    5 Cl   UNK N   1      19.657  16.321   3.896  0.00  0.00    -0.077 Cl
HETATM    6  N   UNK N   1      22.095  19.502   3.604  0.00  0.00    -0.323 N 
ATOM      7  HN  UNK N   1      23.035  19.767   3.900  1.00  0.00     0.169 HD
HETATM    8  N   UNK N   1      20.098  20.055   2.499  0.00  0.00    -0.301 N 
ATOM      9  HN  UNK N   1      19.543  20.728   1.971  1.00  0.00     0.171 HD
ENDROOT
BRANCH   1  10
HETATM   10  C   UNK N   1      22.466  17.286   4.708  0.00  0.00     0.183 C 
BRANCH  10  11
HETATM   11  N   UNK N   1      23.754  16.891   4.145  0.00  0.00    -0.365 N 
HETATM   12  C   UNK N   1      23.980  15.832   3.203  0.00  0.00     0.125 A 
HETATM   13  C   UNK N   1      25.499  15.840   2.942  0.00  0.00     0.027 A 
HETATM   14  C   UNK N   1      26.125  16.964   3.789  0.00  0.00     0.077 A 
HETATM   15  C   UNK N   1      24.952  17.530   4.478  0.00  0.00     0.073 A 
HETATM   16  N   UNK N   1      25.033  18.514   5.302  0.00  0.00    -0.389 N 
HETATM   17  H   UNK N   1      24.200  18.894   5.773  0.00  0.00     0.157 HD
ATOM     18  HN  UNK N   1      25.945  18.928   5.494  1.00  0.00     0.157 HD
ENDBRANCH  10  11
ENDBRANCH   1  10
BRANCH   3  19
HETATM   19  O   UNK N   1      18.333  18.531   2.379  0.00  0.00    -0.345 OA
HETATM   20  H   UNK N   1      18.203  17.869   1.729  0.00  0.00     0.219 HD
ENDBRANCH   3  19
BRANCH   4  21
HETATM   21  O   UNK N   1      21.853  21.597   2.606  0.00  0.00    -0.332 OA
HETATM   22  H   UNK N   1      22.545  21.956   3.127  0.00  0.00     0.221 HD
ENDBRANCH   4  21
TORSDOF 4
ENDMDL
MODEL 6
REMARK VINA RESULT:      -5.4      8.266      9.434
REMARK  4 active torsions:
REMARK  status: ('A' for Active; 'I' for Inactive)
REMARK    1  A    between atoms: C_5  and  C_4 
REMARK    2  A    between atoms: N_17  and  C_4 
REMARK    3  A    between atoms: O_18  and  C_8 
REMARK    4  A    between atoms: O_19  and  C_9 
ROOT
HETATM    1  C   UNK N   1      21.797  18.219   3.750  0.00  0.00     0.056 A 
HETATM    2  C   UNK N   1      20.850  17.544   2.964  0.00  0.00     0.109 A 
HETATM    3  C   UNK N   1      20.097  18.283   2.042  0.00  0.00     0.167 A 
HETATM    4  C   UNK N   1      21.212  20.260   2.695  0.00  0.00     0.223 A 
HETATM    5 Cl   UNK N   1      20.601  15.804   3.118  0.00  0.00    -0.077 Cl
HETATM    6  N   UNK N   1      21.949  19.560   3.591  0.00  0.00    -0.323 N 
ATOM      7  HN  UNK N   1      22.637  20.054   4.161  1.00  0.00     0.169 HD
HETATM    8  N   UNK N   1      20.293  19.622   1.927  0.00  0.00    -0.301 N 
ATOM      9  HN  UNK N   1      19.742  20.155   1.255  1.00  0.00     0.171 HD
ENDROOT
BRANCH   1  10
HETATM   10  C   UNK N   1      22.627  17.450   4.754  0.00  0.00     0.183 C 
BRANCH  10  11
HETATM   11  N   UNK N   1      21.960  16.966   5.960  0.00  0.00    -0.365 N 
HETATM   12  C   UNK N   1      20.990  17.681   6.739  0.00  0.00     0.125 A 
HETATM   13  C   UNK N   1      20.613  16.726   7.889  0.00  0.00     0.027 A 
HETATM   14  C   UNK N   1      21.423  15.428   7.721  0.00  0.00     0.077 A 
HETATM   15  C   UNK N   1      22.208  15.702   6.504  0.00  0.00     0.073 A 
HETATM   16  N   UNK N   1      23.036  14.857   6.000  0.00  0.00    -0.389 N 
HETATM   17  H   UNK N   1      23.575  15.069   5.148  0.00  0.00     0.157 HD
ATOM     18  HN  UNK N   1      23.162  13.953   6.456  1.00  0.00     0.157 HD
ENDBRANCH  10  11
ENDBRANCH   1  10
BRANCH   3  19
HETATM   19  O   UNK N   1      19.181  17.677   1.270  0.00  0.00    -0.345 OA
HETATM   20  H   UNK N   1      19.442  17.005   0.672  0.00  0.00     0.219 HD
ENDBRANCH   3  19
BRANCH   4  21
HETATM   21  O   UNK N   1      21.394  21.584   2.569  0.00  0.00    -0.332 OA
HETATM   22  H   UNK N   1      22.262  21.935   2.524  0.00  0.00     0.221 HD
ENDBRANCH   4  21
TORSDOF 4
ENDMDL
MODEL 7
REMARK VINA RESULT:      -5.4      7.372      9.003
REMARK  4 active torsions:
REMARK  status: ('A' for Active; 'I' for Inactive)
REMARK    1  A    between atoms: C_5  and  C_4 
REMARK    2  A    between atoms: N_17  and  C_4 
REMARK    3  A    between atoms: O_18  and  C_8 
REMARK    4  A    between atoms: O_19  and  C_9 
ROOT
HETATM    1  C   UNK N   1      20.934  18.678   4.183  0.00  0.00     0.056 A 
HETATM    2  C   UNK N   1      20.196  17.804   3.369  0.00  0.00     0.109 A 
HETATM    3  C   UNK N   1      19.795  18.248   2.103  0.00  0.00     0.167 A 
HETATM    4  C   UNK N   1      20.834  20.333   2.488  0.00  0.00     0.223 A 
HETATM    5 Cl   UNK N   1      19.776  16.179   3.912  0.00  0.00    -0.077 Cl
HETATM    6  N   UNK N   1      21.231  19.920   3.716  0.00  0.00    -0.323 N 
ATOM      7  HN  UNK N   1      21.767  20.557   4.305  1.00  0.00     0.169 HD
HETATM    8  N   UNK N   1      20.121  19.500   1.689  0.00  0.00    -0.301 N 
ATOM      9  HN  UNK N   1      19.826  19.818   0.766  1.00  0.00     0.171 HD
ENDROOT
BRANCH   1  10
HETATM   10  C   UNK N   1      21.383  18.229   5.555  0.00  0.00     0.183 C 
BRANCH  10  11
HETATM   11  N   UNK N   1      22.536  17.337   5.637  0.00  0.00    -0.365 N 
HETATM   12  C   UNK N   1      23.787  17.501   4.953  0.00  0.00     0.125 A 
HETATM   13  C   UNK N   1      24.644  16.294   5.384  0.00  0.00     0.027 A 
HETATM   14  C   UNK N   1      23.810  15.434   6.352  0.00  0.00     0.077 A 
HETATM   15  C   UNK N   1      22.541  16.180   6.423  0.00  0.00     0.073 A 
HETATM   16  N   UNK N   1      21.544  15.798   7.140  0.00  0.00    -0.389 N 
HETATM   17  H   UNK N   1      20.666  16.335   7.175  0.00  0.00     0.157 HD
ATOM     18  HN  UNK N   1      21.625  14.941   7.687  1.00  0.00     0.157 HD
ENDBRANCH  10  11
ENDBRANCH   1  10
BRANCH   3  19
HETATM   19  O   UNK N   1      19.087  17.444   1.292  0.00  0.00    -0.345 OA
HETATM   20  H   UNK N   1      18.301  17.757   0.890  0.00  0.00     0.219 HD
ENDBRANCH   3  19
BRANCH   4  21
HETATM   21  O   UNK N   1      21.149  21.567   2.065  0.00  0.00    -0.332 OA
HETATM   22  H   UNK N   1      21.763  21.680   1.366  0.00  0.00     0.221 HD
ENDBRANCH   4  21
TORSDOF 4
ENDMDL
MODEL 8
REMARK VINA RESULT:      -5.4      8.977     10.979
REMARK  4 active torsions:
REMARK  status: ('A' for Active; 'I' for Inactive)
REMARK    1  A    between atoms: C_5  and  C_4 
REMARK    2  A    between atoms: N_17  and  C_4 
REMARK    3  A    between atoms: O_18  and  C_8 
REMARK    4  A    between atoms: O_19  and  C_9 
ROOT
HETATM    1  C   UNK N   1      36.331  13.077  12.629  0.00  0.00     0.056 A 
HETATM    2  C   UNK N   1      35.278  12.509  11.894  0.00  0.00     0.109 A 
HETATM    3  C   UNK N   1      34.808  13.191  10.764  0.00  0.00     0.167 A 
HETATM    4  C   UNK N   1      36.388  14.908  11.124  0.00  0.00     0.223 A 
HETATM    5 Cl   UNK N   1      34.551  10.973  12.368  0.00  0.00    -0.077 Cl
HETATM    6  N   UNK N   1      36.855  14.262  12.220  0.00  0.00    -0.323 N 
ATOM      7  HN  UNK N   1      37.621  14.677  12.752  1.00  0.00     0.169 HD
HETATM    8  N   UNK N   1      35.370  14.373  10.403  0.00  0.00    -0.301 N 
ATOM      9  HN  UNK N   1      35.024  14.865   9.580  1.00  0.00     0.171 HD
ENDROOT
BRANCH   1  10
HETATM   10  C   UNK N   1      36.862  12.366  13.853  0.00  0.00     0.183 C 
BRANCH  10  11
HETATM   11  N   UNK N   1      36.217  12.642  15.134  0.00  0.00    -0.365 N 
HETATM   12  C   UNK N   1      35.256  11.808  15.798  0.00  0.00     0.125 A 
HETATM   13  C   UNK N   1      34.902  12.557  17.098  0.00  0.00     0.027 A 
HETATM   14  C   UNK N   1      35.715  13.864  17.137  0.00  0.00     0.077 A 
HETATM   15  C   UNK N   1      36.480  13.796  15.878  0.00  0.00     0.073 A 
HETATM   16  N   UNK N   1      37.304  14.713  15.510  0.00  0.00    -0.389 N 
HETATM   17  H   UNK N   1      37.828  14.645  14.627  0.00  0.00     0.157 HD
ATOM     18  HN  UNK N   1      37.441  15.527  16.109  1.00  0.00     0.157 HD
ENDBRANCH  10  11
ENDBRANCH   1  10
BRANCH   3  19
HETATM   19  O   UNK N   1      33.802  12.683  10.033  0.00  0.00    -0.345 OA
HETATM   20  H   UNK N   1      33.661  11.758  10.007  0.00  0.00     0.219 HD
ENDBRANCH   3  19
BRANCH   4  21
HETATM   21  O   UNK N   1      36.934  16.077  10.755  0.00  0.00    -0.332 OA
HETATM   22  H   UNK N   1      37.691  16.087  10.203  0.00  0.00     0.221 HD
ENDBRANCH   4  21
TORSDOF 4
ENDMDL
MODEL 9
REMARK VINA RESULT:      -5.3      2.922      5.052
REMARK  4 active torsions:
REMARK  status: ('A' for Active; 'I' for Inactive)
REMARK    1  A    between atoms: C_5  and  C_4 
REMARK    2  A    between atoms: N_17  and  C_4 
REMARK    3  A    between atoms: O_18  and  C_8 
REMARK    4  A    between atoms: O_19  and  C_9 
ROOT
HETATM    1  C   UNK N   1      29.781  16.905   7.222  0.00  0.00     0.056 A 
HETATM    2  C   UNK N   1      30.671  17.419   8.179  0.00  0.00     0.109 A 
HETATM    3  C   UNK N   1      31.980  16.920   8.210  0.00  0.00     0.167 A 
HETATM    4  C   UNK N   1      31.488  15.476   6.408  0.00  0.00     0.223 A 
HETATM    5 Cl   UNK N   1      30.170  18.664   9.324  0.00  0.00    -0.077 Cl
HETATM    6  N   UNK N   1      30.218  15.946   6.364  0.00  0.00    -0.323 N 
ATOM      7  HN  UNK N   1      29.573  15.571   5.668  1.00  0.00     0.169 HD
HETATM    8  N   UNK N   1      32.360  15.962   7.327  0.00  0.00    -0.301 N 
ATOM      9  HN  UNK N   1      33.314  15.602   7.354  1.00  0.00     0.171 HD
ENDROOT
BRANCH   1  10
HETATM   10  C   UNK N   1      28.361  17.422   7.162  0.00  0.00     0.183 C 
BRANCH  10  11
HETATM   11  N   UNK N   1      28.092  18.577   6.311  0.00  0.00    -0.365 N 
HETATM   12  C   UNK N   1      28.402  18.693   4.914  0.00  0.00     0.125 A 
HETATM   13  C   UNK N   1      27.913  20.097   4.507  0.00  0.00     0.027 A 
HETATM   14  C   UNK N   1      27.307  20.774   5.751  0.00  0.00     0.077 A 
HETATM   15  C   UNK N   1      27.478  19.739   6.787  0.00  0.00     0.073 A 
HETATM   16  N   UNK N   1      27.097  19.900   8.005  0.00  0.00    -0.389 N 
HETATM   17  H   UNK N   1      27.226  19.163   8.713  0.00  0.00     0.157 HD
ATOM     18  HN  UNK N   1      26.656  20.779   8.276  1.00  0.00     0.157 HD
ENDBRANCH  10  11
ENDBRANCH   1  10
BRANCH   3  19
HETATM   19  O   UNK N   1      32.863  17.384   9.109  0.00  0.00    -0.345 OA
HETATM   20  H   UNK N   1      33.764  17.130   9.056  0.00  0.00     0.219 HD
ENDBRANCH   3  19
BRANCH   4  21
HETATM   21  O   UNK N   1      31.879  14.528   5.542  0.00  0.00    -0.332 OA
HETATM   22  H   UNK N   1      32.762  14.516   5.229  0.00  0.00     0.221 HD
ENDBRANCH   4  21
TORSDOF 4
ENDMDL
