MODEL 1
REMARK VINA RESULT:      -6.7      0.000      0.000
REMARK WARNING: 32 MAX_TORS EXCEEDED!!!
REMARK  34 active torsions:
REMARK  status: ('A' for Active; 'I' for Inactive)
REMARK    1  A    between atoms: C_7  and  C_6 
REMARK    2  A    between atoms: C_18  and  C_6 
REMARK    3  A    between atoms: N_32  and  C_7 
REMARK    4  A    between atoms: C_9  and  C_8 
REMARK    5  A    between atoms: N_30  and  C_8 
REMARK    6  A    between atoms: S_63  and  C_9 
REMARK    7  A    between atoms: C_16  and  C_10 
REMARK    8  A    between atoms: C_19  and  C_10 
REMARK    9  A    between atoms: C_16  and  C_11 
REMARK   10  A    between atoms: N_41  and  C_11 
REMARK   11  A    between atoms: C_17  and  C_12 
REMARK   12  A    between atoms: O_55  and  C_12 
REMARK   13  A    between atoms: C_28  and  C_13 
REMARK   14  A    between atoms: O_56  and  C_13 
REMARK   15  A    between atoms: C_16  and  O_42 
REMARK   16  A    between atoms: N_30  and  C_18 
REMARK   17  A    between atoms: O_43  and  C_18 
REMARK   18  A    between atoms: S_63  and  C_19 
REMARK   19  A    between atoms: C_21  and  O_45 
REMARK   20  A    between atoms: C_22  and  O_58 
REMARK   21  A    between atoms: C_26  and  C_23 
REMARK   22  A    between atoms: C_28  and  C_23 
REMARK   23  A    between atoms: C_23  and  O_46 
REMARK   24  A    between atoms: N_29  and  C_24 
REMARK   25  A    between atoms: N_32  and  C_26 
REMARK   26  A    between atoms: O_47  and  C_26 
REMARK   27  A    between atoms: C_27  and  N_40 
REMARK   28  A    between atoms: P_60  and  O_49 
REMARK   29  A    between atoms: P_61  and  O_51 
REMARK   30  A    between atoms: P_61  and  O_55 
REMARK   31  A    between atoms: P_62  and  O_56 
REMARK   32  A    between atoms: P_60  and  O_58 
REMARK   33  A    between atoms: P_61  and  O_59 
REMARK   34  A    between atoms: P_62  and  O_59 
ROOT
HETATM    1  O   UNK N   1      35.836  11.127  14.939  0.00  0.00    -0.632 OA
HETATM    2  O   UNK N   1      33.250  10.809  14.580  0.00  0.00    -0.307 OA
HETATM    3  P   UNK N   1      34.536  11.958  14.784  0.00  0.00     0.391 P 
HETATM    4  H   UNK N   1      32.490  10.228  14.424  0.00  0.00     0.222 HD
ENDROOT
BRANCH   3   5
HETATM    5  O   UNK N   1      34.384  12.856  16.261  0.00  0.00    -0.307 OA
HETATM    6  H   UNK N   1      34.552  12.471  17.135  0.00  0.00     0.222 HD
ENDBRANCH   3   5
BRANCH   3   7
HETATM    7  O   UNK N   1      34.759  12.982  13.378  0.00  0.00    -0.286 OA
BRANCH   7   8
HETATM    8  C   UNK N   1      35.486  12.273  12.392  0.00  0.00     0.197 C 
HETATM    9  C   UNK N   1      36.593  13.103  11.738  0.00  0.00     0.180 C 
HETATM   10  O   UNK N   1      36.808  12.595  10.430  0.00  0.00    -0.353 OA
HETATM   11  C   UNK N   1      35.874  11.547  10.277  0.00  0.00     0.262 C 
HETATM   12  C   UNK N   1      34.690  11.903  11.167  0.00  0.00     0.199 C 
BRANCH   9  13
HETATM   13  C   UNK N   1      36.177  14.556  11.623  0.00  0.00     0.215 C 
BRANCH  13  14
HETATM   14  O   UNK N   1      35.963  14.866  10.287  0.00  0.00    -0.294 OA
BRANCH  14  15
HETATM   15  P   UNK N   1      34.753  16.096  10.191  0.00  0.00     0.402 P 
HETATM   16  O   UNK N   1      35.319  17.217  11.121  0.00  0.00    -0.631 OA
BRANCH  15  17
HETATM   17  O   UNK N   1      33.532  15.114  10.940  0.00  0.00    -0.307 OA
HETATM   18  H   UNK N   1      32.686  15.446  11.276  0.00  0.00     0.222 HD
ENDBRANCH  15  17
BRANCH  15  19
HETATM   19  O   UNK N   1      34.894  16.341   8.461  0.00  0.00    -0.188 OA
BRANCH  19  20
HETATM   20  P   UNK N   1      34.282  17.893   7.975  0.00  0.00     0.417 P 
HETATM   21  O   UNK N   1      34.186  17.932   6.422  0.00  0.00    -0.624 OA
HETATM   22  O   UNK N   1      35.333  19.169   8.496  0.00  0.00    -0.624 OA
BRANCH  20  23
HETATM   23  O   UNK N   1      32.680  18.084   8.672  0.00  0.00    -0.289 OA
BRANCH  23  24
HETATM   24  C   UNK N   1      31.777  17.678   7.687  0.00  0.00     0.193 C 
BRANCH  24  25
HETATM   25  C   UNK N   1      30.405  17.266   8.231  0.00  0.00     0.008 C 
HETATM   26  C   UNK N   1      29.646  16.556   7.122  0.00  0.00     0.020 C 
HETATM   27  C   UNK N   1      30.511  16.287   9.400  0.00  0.00     0.020 C 
BRANCH  25  28
HETATM   28  C   UNK N   1      29.639  18.547   8.657  0.00  0.00     0.202 C 
BRANCH  28  29
HETATM   29  C   UNK N   1      28.127  18.456   8.561  0.00  0.00     0.141 C 
BRANCH  29  30
HETATM   30  N   UNK N   1      27.487  19.020   7.592  0.00  0.00    -0.372 N 
ATOM     31  HN  UNK N   1      26.618  18.599   7.264  1.00  0.00     0.161 HD
BRANCH  30  32
HETATM   32  C   UNK N   1      27.958  20.225   6.959  0.00  0.00     0.129 C 
BRANCH  32  33
HETATM   33  C   UNK N   1      26.853  20.781   6.074  0.00  0.00     0.103 C 
BRANCH  33  34
HETATM   34  C   UNK N   1      27.051  20.370   4.654  0.00  0.00     0.112 C 
BRANCH  34  35
HETATM   35  N   UNK N   1      26.115  20.566   3.788  0.00  0.00    -0.374 N 
ATOM     36  HN  UNK N   1      25.802  21.520   3.614  1.00  0.00     0.161 HD
BRANCH  35  37
HETATM   37  C   UNK N   1      25.491  19.487   3.055  0.00  0.00     0.132 C 
BRANCH  37  38
HETATM   38  C   UNK N   1      25.239  18.284   3.951  0.00  0.00     0.102 C 
BRANCH  38  39
HETATM   39  S   UNK N   1      25.698  16.731   3.128  0.00  0.00    -0.091 SA
BRANCH  39  40
HETATM   40  C   UNK N   1      26.941  16.341   4.365  0.00  0.00     0.188 C 
HETATM   41  O   UNK N   1      27.119  17.108   5.296  0.00  0.00    -0.285 OA
BRANCH  40  42
HETATM   42  C   UNK N   1      27.788  15.107   4.249  0.00  0.00     0.124 C 
BRANCH  42  43
HETATM   43  C   UNK N   1      29.076  15.336   3.455  0.00  0.00     0.152 C 
BRANCH  43  44
HETATM   44  C   UNK N   1      30.225  14.475   4.010  0.00  0.00     0.268 C 
BRANCH  44  45
HETATM   45  N   UNK N   1      31.550  15.109   4.082  0.00  0.00    -0.076 N 
HETATM   46  C   UNK N   1      32.216  14.746   5.323  0.00  0.00     0.271 C 
HETATM   47  C   UNK N   1      32.347  14.588   2.987  0.00  0.00     0.271 C 
HETATM   48  C   UNK N   1      31.510  16.558   3.954  0.00  0.00     0.271 C 
ENDBRANCH  44  45
ENDBRANCH  43  44
BRANCH  43  49
HETATM   49  O   UNK N   1      28.870  15.090   2.095  0.00  0.00    -0.393 OA
HETATM   50  H   UNK N   1      29.186  14.341   1.567  0.00  0.00     0.210 HD
ENDBRANCH  43  49
ENDBRANCH  42  43
ENDBRANCH  40  42
ENDBRANCH  39  40
ENDBRANCH  38  39
ENDBRANCH  37  38
ENDBRANCH  35  37
ENDBRANCH  34  35
BRANCH  34  51
HETATM   51  O   UNK N   1      28.214  19.783   4.299  0.00  0.00    -0.350 OA
HETATM   52  H   UNK N   1      28.549  18.938   4.073  0.00  0.00     0.219 HD
ENDBRANCH  34  51
ENDBRANCH  33  34
ENDBRANCH  32  33
ENDBRANCH  30  32
ENDBRANCH  29  30
BRANCH  29  53
HETATM   53  O   UNK N   1      27.451  17.800   9.529  0.00  0.00    -0.348 OA
HETATM   54  H   UNK N   1      27.374  17.877  10.459  0.00  0.00     0.219 HD
ENDBRANCH  29  53
ENDBRANCH  28  29
BRANCH  28  55
HETATM   55  O   UNK N   1      29.984  18.891   9.969  0.00  0.00    -0.387 OA
HETATM   56  H   UNK N   1      30.335  19.772  10.173  0.00  0.00     0.210 HD
ENDBRANCH  28  55
ENDBRANCH  25  28
ENDBRANCH  24  25
ENDBRANCH  23  24
ENDBRANCH  20  23
ENDBRANCH  19  20
ENDBRANCH  15  19
ENDBRANCH  14  15
ENDBRANCH  13  14
ENDBRANCH   9  13
BRANCH  11  57
HETATM   57  N   UNK N   1      35.577  11.275   8.865  0.00  0.00    -0.297 N 
HETATM   58  C   UNK N   1      34.934  10.185   8.373  0.00  0.00     0.188 A 
HETATM   59  N   UNK N   1      34.628  10.342   7.053  0.00  0.00    -0.346 N 
HETATM   60  C   UNK N   1      35.103  11.559   6.743  0.00  0.00     0.122 A 
ATOM     61  HN  UNK N   1      34.148   9.683   6.439  1.00  0.00     0.167 HD
HETATM   62  C   UNK N   1      35.026  12.275   5.555  0.00  0.00     0.131 A 
HETATM   63  C   UNK N   1      35.687  12.115   7.823  0.00  0.00     0.142 A 
HETATM   64  N   UNK N   1      35.590  13.517   5.515  0.00  0.00    -0.337 N 
HETATM   65  C   UNK N   1      36.205  14.050   6.623  0.00  0.00     0.183 A 
ATOM     66  HN  UNK N   1      35.555  14.058   4.651  1.00  0.00     0.168 HD
HETATM   67  N   UNK N   1      36.235  13.350   7.798  0.00  0.00    -0.336 N 
ATOM     68  HN  UNK N   1      36.659  13.751   8.635  1.00  0.00     0.168 HD
BRANCH  62  69
HETATM   69  N   UNK N   1      34.351  11.756   4.432  0.00  0.00    -0.383 N 
HETATM   70  H   UNK N   1      33.521  12.176   4.108  0.00  0.00     0.157 HD
HETATM   71  H   UNK N   1      34.711  10.967   3.968  0.00  0.00     0.157 HD
ENDBRANCH  62  69
ENDBRANCH  11  57
BRANCH  12  72
HETATM   72  O   UNK N   1      33.859  10.810  11.411  0.00  0.00    -0.388 OA
HETATM   73  H   UNK N   1      33.011  10.905  11.871  0.00  0.00     0.210 HD
ENDBRANCH  12  72
ENDBRANCH   7   8
ENDBRANCH   3   7
TORSDOF 34
ENDMDL
MODEL 2
REMARK VINA RESULT:      -6.6      3.168      4.846
REMARK WARNING: 32 MAX_TORS EXCEEDED!!!
REMARK  34 active torsions:
REMARK  status: ('A' for Active; 'I' for Inactive)
REMARK    1  A    between atoms: C_7  and  C_6 
REMARK    2  A    between atoms: C_18  and  C_6 
REMARK    3  A    between atoms: N_32  and  C_7 
REMARK    4  A    between atoms: C_9  and  C_8 
REMARK    5  A    between atoms: N_30  and  C_8 
REMARK    6  A    between atoms: S_63  and  C_9 
REMARK    7  A    between atoms: C_16  and  C_10 
REMARK    8  A    between atoms: C_19  and  C_10 
REMARK    9  A    between atoms: C_16  and  C_11 
REMARK   10  A    between atoms: N_41  and  C_11 
REMARK   11  A    between atoms: C_17  and  C_12 
REMARK   12  A    between atoms: O_55  and  C_12 
REMARK   13  A    between atoms: C_28  and  C_13 
REMARK   14  A    between atoms: O_56  and  C_13 
REMARK   15  A    between atoms: C_16  and  O_42 
REMARK   16  A    between atoms: N_30  and  C_18 
REMARK   17  A    between atoms: O_43  and  C_18 
REMARK   18  A    between atoms: S_63  and  C_19 
REMARK   19  A    between atoms: C_21  and  O_45 
REMARK   20  A    between atoms: C_22  and  O_58 
REMARK   21  A    between atoms: C_26  and  C_23 
REMARK   22  A    between atoms: C_28  and  C_23 
REMARK   23  A    between atoms: C_23  and  O_46 
REMARK   24  A    between atoms: N_29  and  C_24 
REMARK   25  A    between atoms: N_32  and  C_26 
REMARK   26  A    between atoms: O_47  and  C_26 
REMARK   27  A    between atoms: C_27  and  N_40 
REMARK   28  A    between atoms: P_60  and  O_49 
REMARK   29  A    between atoms: P_61  and  O_51 
REMARK   30  A    between atoms: P_61  and  O_55 
REMARK   31  A    between atoms: P_62  and  O_56 
REMARK   32  A    between atoms: P_60  and  O_58 
REMARK   33  A    between atoms: P_61  and  O_59 
REMARK   34  A    between atoms: P_62  and  O_59 
ROOT
HETATM    1  O   UNK N   1      36.987  12.060  15.240  0.00  0.00    -0.632 OA
HETATM    2  O   UNK N   1      35.263  13.386  16.718  0.00  0.00    -0.307 OA
HETATM    3  P   UNK N   1      36.290  13.442  15.318  0.00  0.00     0.391 P 
HETATM    4  H   UNK N   1      34.640  13.412  17.461  0.00  0.00     0.222 HD
ENDROOT
BRANCH   3   5
HETATM    5  O   UNK N   1      37.573  14.597  15.494  0.00  0.00    -0.307 OA
HETATM    6  H   UNK N   1      37.559  15.309  16.153  0.00  0.00     0.222 HD
ENDBRANCH   3   5
BRANCH   3   7
HETATM    7  O   UNK N   1      35.390  13.637  13.826  0.00  0.00    -0.286 OA
BRANCH   7   8
HETATM    8  C   UNK N   1      35.888  12.733  12.857  0.00  0.00     0.197 C 
HETATM    9  C   UNK N   1      36.795  13.394  11.817  0.00  0.00     0.180 C 
HETATM   10  O   UNK N   1      36.716  12.636  10.619  0.00  0.00    -0.353 OA
HETATM   11  C   UNK N   1      35.796  11.599  10.893  0.00  0.00     0.262 C 
HETATM   12  C   UNK N   1      34.841  12.149  11.945  0.00  0.00     0.199 C 
BRANCH   9  13
HETATM   13  C   UNK N   1      36.330  14.805  11.519  0.00  0.00     0.215 C 
BRANCH  13  14
HETATM   14  O   UNK N   1      35.827  14.859  10.226  0.00  0.00    -0.294 OA
BRANCH  14  15
HETATM   15  P   UNK N   1      34.661  16.131  10.137  0.00  0.00     0.402 P 
HETATM   16  O   UNK N   1      35.249  17.214  11.098  0.00  0.00    -0.631 OA
BRANCH  15  17
HETATM   17  O   UNK N   1      33.396  15.176  10.849  0.00  0.00    -0.307 OA
HETATM   18  H   UNK N   1      32.946  15.388  11.681  0.00  0.00     0.222 HD
ENDBRANCH  15  17
BRANCH  15  19
HETATM   19  O   UNK N   1      34.836  16.404   8.415  0.00  0.00    -0.188 OA
BRANCH  19  20
HETATM   20  P   UNK N   1      34.192  17.945   7.935  0.00  0.00     0.417 P 
HETATM   21  O   UNK N   1      35.183  19.062   8.371  0.00  0.00    -0.624 OA
HETATM   22  O   UNK N   1      32.659  18.241   8.688  0.00  0.00    -0.624 OA
BRANCH  20  23
HETATM   23  O   UNK N   1      34.035  17.943   6.185  0.00  0.00    -0.289 OA
BRANCH  23  24
HETATM   24  C   UNK N   1      33.620  16.656   5.834  0.00  0.00     0.193 C 
BRANCH  24  25
HETATM   25  C   UNK N   1      32.400  16.626   4.907  0.00  0.00     0.008 C 
HETATM   26  C   UNK N   1      32.686  17.522   3.712  0.00  0.00     0.020 C 
HETATM   27  C   UNK N   1      32.115  15.227   4.361  0.00  0.00     0.020 C 
BRANCH  25  28
HETATM   28  C   UNK N   1      31.174  17.168   5.690  0.00  0.00     0.202 C 
BRANCH  28  29
HETATM   29  C   UNK N   1      29.842  17.030   4.977  0.00  0.00     0.141 C 
BRANCH  29  30
HETATM   30  N   UNK N   1      29.352  18.006   4.287  0.00  0.00    -0.372 N 
ATOM     31  HN  UNK N   1      29.981  18.568   3.713  1.00  0.00     0.161 HD
BRANCH  30  32
HETATM   32  C   UNK N   1      27.948  18.328   4.300  0.00  0.00     0.129 C 
BRANCH  32  33
HETATM   33  C   UNK N   1      27.789  19.836   4.424  0.00  0.00     0.103 C 
BRANCH  33  34
HETATM   34  C   UNK N   1      26.404  20.191   4.846  0.00  0.00     0.112 C 
BRANCH  34  35
HETATM   35  N   UNK N   1      25.391  19.707   4.211  0.00  0.00    -0.374 N 
ATOM     36  HN  UNK N   1      25.296  19.908   3.216  1.00  0.00     0.161 HD
BRANCH  35  37
HETATM   37  C   UNK N   1      24.384  18.891   4.852  0.00  0.00     0.132 C 
BRANCH  37  38
HETATM   38  C   UNK N   1      23.301  18.477   3.868  0.00  0.00     0.102 C 
BRANCH  38  39
HETATM   39  S   UNK N   1      21.674  18.374   4.671  0.00  0.00    -0.091 SA
BRANCH  39  40
HETATM   40  C   UNK N   1      20.896  19.407   3.424  0.00  0.00     0.188 C 
HETATM   41  O   UNK N   1      21.211  20.581   3.339  0.00  0.00    -0.285 OA
BRANCH  40  42
HETATM   42  C   UNK N   1      19.838  18.855   2.512  0.00  0.00     0.124 C 
BRANCH  42  43
HETATM   43  C   UNK N   1      20.410  18.022   1.364  0.00  0.00     0.152 C 
BRANCH  43  44
HETATM   44  C   UNK N   1      19.662  16.685   1.228  0.00  0.00     0.268 C 
BRANCH  44  45
HETATM   45  N   UNK N   1      20.266  15.519   1.890  0.00  0.00    -0.076 N 
HETATM   46  C   UNK N   1      19.693  15.339   3.215  0.00  0.00     0.271 C 
HETATM   47  C   UNK N   1      19.933  14.345   1.105  0.00  0.00     0.271 C 
HETATM   48  C   UNK N   1      21.716  15.592   1.990  0.00  0.00     0.271 C 
ENDBRANCH  44  45
ENDBRANCH  43  44
BRANCH  43  49
HETATM   49  O   UNK N   1      20.382  18.743   0.166  0.00  0.00    -0.393 OA
HETATM   50  H   UNK N   1      19.618  19.149  -0.271  0.00  0.00     0.210 HD
ENDBRANCH  43  49
ENDBRANCH  42  43
ENDBRANCH  40  42
ENDBRANCH  39  40
ENDBRANCH  38  39
ENDBRANCH  37  38
ENDBRANCH  35  37
ENDBRANCH  34  35
BRANCH  34  51
HETATM   51  O   UNK N   1      26.232  21.031   5.890  0.00  0.00    -0.350 OA
HETATM   52  H   UNK N   1      26.562  21.173   6.755  0.00  0.00     0.219 HD
ENDBRANCH  34  51
ENDBRANCH  33  34
ENDBRANCH  32  33
ENDBRANCH  30  32
ENDBRANCH  29  30
BRANCH  29  53
HETATM   53  O   UNK N   1      29.152  15.876   5.101  0.00  0.00    -0.348 OA
HETATM   54  H   UNK N   1      29.248  15.002   4.779  0.00  0.00     0.219 HD
ENDBRANCH  29  53
ENDBRANCH  28  29
BRANCH  28  55
HETATM   55  O   UNK N   1      31.084  16.529   6.932  0.00  0.00    -0.387 OA
HETATM   56  H   UNK N   1      30.480  16.859   7.615  0.00  0.00     0.210 HD
ENDBRANCH  28  55
ENDBRANCH  25  28
ENDBRANCH  24  25
ENDBRANCH  23  24
ENDBRANCH  20  23
ENDBRANCH  19  20
ENDBRANCH  15  19
ENDBRANCH  14  15
ENDBRANCH  13  14
ENDBRANCH   9  13
BRANCH  11  57
HETATM   57  N   UNK N   1      35.189  11.064   9.668  0.00  0.00    -0.297 N 
HETATM   58  C   UNK N   1      35.085   9.754   9.327  0.00  0.00     0.188 A 
HETATM   59  N   UNK N   1      34.280   9.585   8.239  0.00  0.00    -0.346 N 
HETATM   60  C   UNK N   1      33.893  10.830   7.915  0.00  0.00     0.122 A 
ATOM     61  HN  UNK N   1      34.030   8.712   7.774  1.00  0.00     0.167 HD
HETATM   62  C   UNK N   1      33.020  11.268   6.928  0.00  0.00     0.131 A 
HETATM   63  C   UNK N   1      34.449  11.721   8.760  0.00  0.00     0.142 A 
HETATM   64  N   UNK N   1      32.787  12.608   6.823  0.00  0.00    -0.337 N 
HETATM   65  C   UNK N   1      33.389  13.498   7.679  0.00  0.00     0.183 A 
ATOM     66  HN  UNK N   1      32.158  12.954   6.099  1.00  0.00     0.168 HD
HETATM   67  N   UNK N   1      34.213  13.048   8.675  0.00  0.00    -0.336 N 
ATOM     68  HN  UNK N   1      34.637  13.698   9.337  1.00  0.00     0.168 HD
BRANCH  62  69
HETATM   69  N   UNK N   1      32.359  10.355   6.080  0.00  0.00    -0.383 N 
HETATM   70  H   UNK N   1      32.045  10.636   5.190  0.00  0.00     0.157 HD
HETATM   71  H   UNK N   1      32.209   9.430   6.381  0.00  0.00     0.157 HD
ENDBRANCH  62  69
ENDBRANCH  11  57
BRANCH  12  72
HETATM   72  O   UNK N   1      34.114  11.144  12.581  0.00  0.00    -0.388 OA
HETATM   73  H   UNK N   1      34.447  10.235  12.648  0.00  0.00     0.210 HD
ENDBRANCH  12  72
ENDBRANCH   7   8
ENDBRANCH   3   7
TORSDOF 34
ENDMDL
MODEL 3
REMARK VINA RESULT:      -6.5      2.935      5.480
REMARK WARNING: 32 MAX_TORS EXCEEDED!!!
REMARK  34 active torsions:
REMARK  status: ('A' for Active; 'I' for Inactive)
REMARK    1  A    between atoms: C_7  and  C_6 
REMARK    2  A    between atoms: C_18  and  C_6 
REMARK    3  A    between atoms: N_32  and  C_7 
REMARK    4  A    between atoms: C_9  and  C_8 
REMARK    5  A    between atoms: N_30  and  C_8 
REMARK    6  A    between atoms: S_63  and  C_9 
REMARK    7  A    between atoms: C_16  and  C_10 
REMARK    8  A    between atoms: C_19  and  C_10 
REMARK    9  A    between atoms: C_16  and  C_11 
REMARK   10  A    between atoms: N_41  and  C_11 
REMARK   11  A    between atoms: C_17  and  C_12 
REMARK   12  A    between atoms: O_55  and  C_12 
REMARK   13  A    between atoms: C_28  and  C_13 
REMARK   14  A    between atoms: O_56  and  C_13 
REMARK   15  A    between atoms: C_16  and  O_42 
REMARK   16  A    between atoms: N_30  and  C_18 
REMARK   17  A    between atoms: O_43  and  C_18 
REMARK   18  A    between atoms: S_63  and  C_19 
REMARK   19  A    between atoms: C_21  and  O_45 
REMARK   20  A    between atoms: C_22  and  O_58 
REMARK   21  A    between atoms: C_26  and  C_23 
REMARK   22  A    between atoms: C_28  and  C_23 
REMARK   23  A    between atoms: C_23  and  O_46 
REMARK   24  A    between atoms: N_29  and  C_24 
REMARK   25  A    between atoms: N_32  and  C_26 
REMARK   26  A    between atoms: O_47  and  C_26 
REMARK   27  A    between atoms: C_27  and  N_40 
REMARK   28  A    between atoms: P_60  and  O_49 
REMARK   29  A    between atoms: P_61  and  O_51 
REMARK   30  A    between atoms: P_61  and  O_55 
REMARK   31  A    between atoms: P_62  and  O_56 
REMARK   32  A    between atoms: P_60  and  O_58 
REMARK   33  A    between atoms: P_61  and  O_59 
REMARK   34  A    between atoms: P_62  and  O_59 
ROOT
HETATM    1  O   UNK N   1      38.435  12.108   6.009  0.00  0.00    -0.632 OA
HETATM    2  O   UNK N   1      40.187  13.305   7.562  0.00  0.00    -0.307 OA
HETATM    3  P   UNK N   1      38.797  13.517   6.543  0.00  0.00     0.391 P 
HETATM    4  H   UNK N   1      40.939  13.256   8.172  0.00  0.00     0.222 HD
ENDROOT
BRANCH   3   5
HETATM    5  O   UNK N   1      39.155  14.468   5.136  0.00  0.00    -0.307 OA
HETATM    6  H   UNK N   1      38.610  14.453   4.334  0.00  0.00     0.222 HD
ENDBRANCH   3   5
BRANCH   3   7
HETATM    7  O   UNK N   1      37.395  14.095   7.424  0.00  0.00    -0.286 OA
BRANCH   7   8
HETATM    8  C   UNK N   1      37.088  13.187   8.465  0.00  0.00     0.197 C 
HETATM    9  C   UNK N   1      35.607  12.806   8.523  0.00  0.00     0.180 C 
HETATM   10  O   UNK N   1      35.294  12.460   9.864  0.00  0.00    -0.353 OA
HETATM   11  C   UNK N   1      36.492  12.649  10.589  0.00  0.00     0.262 C 
HETATM   12  C   UNK N   1      37.261  13.741   9.856  0.00  0.00     0.199 C 
BRANCH   9  13
HETATM   13  C   UNK N   1      34.735  13.977   8.118  0.00  0.00     0.215 C 
BRANCH  13  14
HETATM   14  O   UNK N   1      33.697  14.113   9.029  0.00  0.00    -0.294 OA
BRANCH  14  15
HETATM   15  P   UNK N   1      33.692  15.734   9.627  0.00  0.00     0.402 P 
HETATM   16  O   UNK N   1      34.337  15.587  11.043  0.00  0.00    -0.631 OA
BRANCH  15  17
HETATM   17  O   UNK N   1      31.958  15.840   9.654  0.00  0.00    -0.307 OA
HETATM   18  H   UNK N   1      31.402  15.588  10.407  0.00  0.00     0.222 HD
ENDBRANCH  15  17
BRANCH  15  19
HETATM   19  O   UNK N   1      34.698  16.391   8.351  0.00  0.00    -0.188 OA
BRANCH  19  20
HETATM   20  P   UNK N   1      34.096  17.915   7.773  0.00  0.00     0.417 P 
HETATM   21  O   UNK N   1      35.010  19.053   8.313  0.00  0.00    -0.624 OA
HETATM   22  O   UNK N   1      32.478  18.196   8.325  0.00  0.00    -0.624 OA
BRANCH  20  23
HETATM   23  O   UNK N   1      34.159  17.890   6.017  0.00  0.00    -0.289 OA
BRANCH  23  24
HETATM   24  C   UNK N   1      33.808  16.594   5.634  0.00  0.00     0.193 C 
BRANCH  24  25
HETATM   25  C   UNK N   1      32.866  16.534   4.427  0.00  0.00     0.008 C 
HETATM   26  C   UNK N   1      32.342  17.936   4.161  0.00  0.00     0.020 C 
HETATM   27  C   UNK N   1      33.574  16.070   3.155  0.00  0.00     0.020 C 
BRANCH  25  28
HETATM   28  C   UNK N   1      31.684  15.587   4.772  0.00  0.00     0.202 C 
BRANCH  28  29
HETATM   29  C   UNK N   1      31.143  15.720   6.183  0.00  0.00     0.141 C 
BRANCH  29  30
HETATM   30  N   UNK N   1      30.473  16.764   6.543  0.00  0.00    -0.372 N 
ATOM     31  HN  UNK N   1      30.980  17.608   6.807  1.00  0.00     0.161 HD
BRANCH  30  32
HETATM   32  C   UNK N   1      29.033  16.776   6.583  0.00  0.00     0.129 C 
BRANCH  32  33
HETATM   33  C   UNK N   1      28.552  18.220   6.587  0.00  0.00     0.103 C 
BRANCH  33  34
HETATM   34  C   UNK N   1      28.490  18.763   5.200  0.00  0.00     0.112 C 
BRANCH  34  35
HETATM   35  N   UNK N   1      27.980  19.929   4.986  0.00  0.00    -0.374 N 
ATOM     36  HN  UNK N   1      28.298  20.713   5.555  1.00  0.00     0.161 HD
BRANCH  35  37
HETATM   37  C   UNK N   1      26.978  20.169   3.972  0.00  0.00     0.132 C 
BRANCH  37  38
HETATM   38  C   UNK N   1      25.581  20.195   4.573  0.00  0.00     0.102 C 
BRANCH  38  39
HETATM   39  S   UNK N   1      24.423  19.172   3.615  0.00  0.00    -0.091 SA
BRANCH  39  40
HETATM   40  C   UNK N   1      25.215  17.643   4.127  0.00  0.00     0.188 C 
HETATM   41  O   UNK N   1      25.259  17.360   5.312  0.00  0.00    -0.285 OA
BRANCH  40  42
HETATM   42  C   UNK N   1      25.855  16.729   3.122  0.00  0.00     0.124 C 
BRANCH  42  43
HETATM   43  C   UNK N   1      26.575  15.542   3.764  0.00  0.00     0.152 C 
BRANCH  43  44
HETATM   44  C   UNK N   1      25.757  14.248   3.603  0.00  0.00     0.268 C 
BRANCH  44  45
HETATM   45  N   UNK N   1      25.786  13.303   4.729  0.00  0.00    -0.076 N 
HETATM   46  C   UNK N   1      25.966  14.018   5.983  0.00  0.00     0.271 C 
HETATM   47  C   UNK N   1      24.495  12.643   4.783  0.00  0.00     0.271 C 
HETATM   48  C   UNK N   1      26.808  12.275   4.601  0.00  0.00     0.271 C 
ENDBRANCH  44  45
ENDBRANCH  43  44
BRANCH  43  49
HETATM   49  O   UNK N   1      27.861  15.397   3.237  0.00  0.00    -0.393 OA
HETATM   50  H   UNK N   1      28.603  16.019   3.288  0.00  0.00     0.210 HD
ENDBRANCH  43  49
ENDBRANCH  42  43
ENDBRANCH  40  42
ENDBRANCH  39  40
ENDBRANCH  38  39
ENDBRANCH  37  38
ENDBRANCH  35  37
ENDBRANCH  34  35
BRANCH  34  51
HETATM   51  O   UNK N   1      28.962  18.013   4.181  0.00  0.00    -0.350 OA
HETATM   52  H   UNK N   1      29.284  18.116   3.308  0.00  0.00     0.219 HD
ENDBRANCH  34  51
ENDBRANCH  33  34
ENDBRANCH  32  33
ENDBRANCH  30  32
ENDBRANCH  29  30
BRANCH  29  53
HETATM   53  O   UNK N   1      31.402  14.741   7.076  0.00  0.00    -0.348 OA
HETATM   54  H   UNK N   1      31.284  13.812   7.102  0.00  0.00     0.219 HD
ENDBRANCH  29  53
ENDBRANCH  28  29
BRANCH  28  55
HETATM   55  O   UNK N   1      30.634  15.792   3.870  0.00  0.00    -0.387 OA
HETATM   56  H   UNK N   1      30.211  16.662   3.793  0.00  0.00     0.210 HD
ENDBRANCH  28  55
ENDBRANCH  25  28
ENDBRANCH  24  25
ENDBRANCH  23  24
ENDBRANCH  20  23
ENDBRANCH  19  20
ENDBRANCH  15  19
ENDBRANCH  14  15
ENDBRANCH  13  14
ENDBRANCH   9  13
BRANCH  11  57
HETATM   57  N   UNK N   1      36.243  12.866  12.019  0.00  0.00    -0.297 N 
HETATM   58  C   UNK N   1      36.618  13.950  12.746  0.00  0.00     0.188 A 
HETATM   59  N   UNK N   1      36.048  13.940  13.985  0.00  0.00    -0.346 N 
HETATM   60  C   UNK N   1      35.312  12.817  14.003  0.00  0.00     0.122 A 
ATOM     61  HN  UNK N   1      36.157  14.628  14.730  1.00  0.00     0.167 HD
HETATM   62  C   UNK N   1      34.464  12.317  14.984  0.00  0.00     0.131 A 
HETATM   63  C   UNK N   1      35.439  12.162  12.832  0.00  0.00     0.142 A 
HETATM   64  N   UNK N   1      33.816  11.143  14.736  0.00  0.00    -0.337 N 
HETATM   65  C   UNK N   1      33.986  10.480  13.544  0.00  0.00     0.183 A 
ATOM     66  HN  UNK N   1      33.197  10.750  15.445  1.00  0.00     0.168 HD
HETATM   67  N   UNK N   1      34.790  11.006  12.570  0.00  0.00    -0.336 N 
ATOM     68  HN  UNK N   1      34.896  10.540  11.669  1.00  0.00     0.168 HD
BRANCH  62  69
HETATM   69  N   UNK N   1      34.246  13.019  16.187  0.00  0.00    -0.383 N 
HETATM   70  H   UNK N   1      33.380  12.958  16.652  0.00  0.00     0.157 HD
HETATM   71  H   UNK N   1      34.964  13.575  16.565  0.00  0.00     0.157 HD
ENDBRANCH  62  69
ENDBRANCH  11  57
BRANCH  12  72
HETATM   72  O   UNK N   1      38.605  13.785  10.223  0.00  0.00    -0.388 OA
HETATM   73  H   UNK N   1      39.001  13.110  10.797  0.00  0.00     0.210 HD
ENDBRANCH  12  72
ENDBRANCH   7   8
ENDBRANCH   3   7
TORSDOF 34
ENDMDL
MODEL 4
REMARK VINA RESULT:      -6.4      5.748     12.379
REMARK WARNING: 32 MAX_TORS EXCEEDED!!!
REMARK  34 active torsions:
REMARK  status: ('A' for Active; 'I' for Inactive)
REMARK    1  A    between atoms: C_7  and  C_6 
REMARK    2  A    between atoms: C_18  and  C_6 
REMARK    3  A    between atoms: N_32  and  C_7 
REMARK    4  A    between atoms: C_9  and  C_8 
REMARK    5  A    between atoms: N_30  and  C_8 
REMARK    6  A    between atoms: S_63  and  C_9 
REMARK    7  A    between atoms: C_16  and  C_10 
REMARK    8  A    between atoms: C_19  and  C_10 
REMARK    9  A    between atoms: C_16  and  C_11 
REMARK   10  A    between atoms: N_41  and  C_11 
REMARK   11  A    between atoms: C_17  and  C_12 
REMARK   12  A    between atoms: O_55  and  C_12 
REMARK   13  A    between atoms: C_28  and  C_13 
REMARK   14  A    between atoms: O_56  and  C_13 
REMARK   15  A    between atoms: C_16  and  O_42 
REMARK   16  A    between atoms: N_30  and  C_18 
REMARK   17  A    between atoms: O_43  and  C_18 
REMARK   18  A    between atoms: S_63  and  C_19 
REMARK   19  A    between atoms: C_21  and  O_45 
REMARK   20  A    between atoms: C_22  and  O_58 
REMARK   21  A    between atoms: C_26  and  C_23 
REMARK   22  A    between atoms: C_28  and  C_23 
REMARK   23  A    between atoms: C_23  and  O_46 
REMARK   24  A    between atoms: N_29  and  C_24 
REMARK   25  A    between atoms: N_32  and  C_26 
REMARK   26  A    between atoms: O_47  and  C_26 
REMARK   27  A    between atoms: C_27  and  N_40 
REMARK   28  A    between atoms: P_60  and  O_49 
REMARK   29  A    between atoms: P_61  and  O_51 
REMARK   30  A    between atoms: P_61  and  O_55 
REMARK   31  A    between atoms: P_62  and  O_56 
REMARK   32  A    between atoms: P_60  and  O_58 
REMARK   33  A    between atoms: P_61  and  O_59 
REMARK   34  A    between atoms: P_62  and  O_59 
ROOT
HETATM    1  O   UNK N   1      24.567  11.818   6.350  0.00  0.00    -0.632 OA
HETATM    2  O   UNK N   1      24.874  13.538   8.315  0.00  0.00    -0.307 OA
HETATM    3  P   UNK N   1      24.652  13.344   6.604  0.00  0.00     0.391 P 
HETATM    4  H   UNK N   1      24.960  13.722   9.264  0.00  0.00     0.222 HD
ENDROOT
BRANCH   3   5
HETATM    5  O   UNK N   1      26.030  13.887   5.700  0.00  0.00    -0.307 OA
HETATM    6  H   UNK N   1      26.815  14.277   6.114  0.00  0.00     0.222 HD
ENDBRANCH   3   5
BRANCH   3   7
HETATM    7  O   UNK N   1      23.143  14.032   6.035  0.00  0.00    -0.286 OA
BRANCH   7   8
HETATM    8  C   UNK N   1      23.205  15.443   6.131  0.00  0.00     0.197 C 
HETATM    9  C   UNK N   1      21.945  16.068   6.736  0.00  0.00     0.180 C 
HETATM   10  O   UNK N   1      21.822  17.388   6.228  0.00  0.00    -0.353 OA
HETATM   11  C   UNK N   1      22.912  17.552   5.344  0.00  0.00     0.262 C 
HETATM   12  C   UNK N   1      23.233  16.163   4.807  0.00  0.00     0.199 C 
BRANCH   9  13
HETATM   13  C   UNK N   1      20.711  15.286   6.333  0.00  0.00     0.215 C 
BRANCH  13  14
HETATM   14  O   UNK N   1      20.187  15.826   5.167  0.00  0.00    -0.294 OA
BRANCH  14  15
HETATM   15  P   UNK N   1      19.554  14.543   4.198  0.00  0.00     0.402 P 
HETATM   16  O   UNK N   1      18.234  14.161   4.941  0.00  0.00    -0.631 OA
BRANCH  15  17
HETATM   17  O   UNK N   1      20.883  13.477   4.538  0.00  0.00    -0.307 OA
HETATM   18  H   UNK N   1      21.254  13.323   5.420  0.00  0.00     0.222 HD
ENDBRANCH  15  17
BRANCH  15  19
HETATM   19  O   UNK N   1      19.405  15.493   2.732  0.00  0.00    -0.188 OA
BRANCH  19  20
HETATM   20  P   UNK N   1      20.377  14.849   1.443  0.00  0.00     0.417 P 
HETATM   21  O   UNK N   1      20.681  15.988   0.427  0.00  0.00    -0.624 OA
HETATM   22  O   UNK N   1      19.545  13.576   0.612  0.00  0.00    -0.624 OA
BRANCH  20  23
HETATM   23  O   UNK N   1      21.878  14.261   2.140  0.00  0.00    -0.289 OA
BRANCH  23  24
HETATM   24  C   UNK N   1      22.160  13.055   1.494  0.00  0.00     0.193 C 
BRANCH  24  25
HETATM   25  C   UNK N   1      23.619  12.916   1.044  0.00  0.00     0.008 C 
HETATM   26  C   UNK N   1      23.689  11.827  -0.015  0.00  0.00     0.020 C 
HETATM   27  C   UNK N   1      24.159  14.196   0.407  0.00  0.00     0.020 C 
BRANCH  25  28
HETATM   28  C   UNK N   1      24.477  12.511   2.273  0.00  0.00     0.202 C 
BRANCH  28  29
HETATM   29  C   UNK N   1      25.929  12.947   2.216  0.00  0.00     0.141 C 
BRANCH  29  30
HETATM   30  N   UNK N   1      26.321  14.033   2.794  0.00  0.00    -0.372 N 
ATOM     31  HN  UNK N   1      25.998  14.232   3.740  1.00  0.00     0.161 HD
BRANCH  30  32
HETATM   32  C   UNK N   1      27.200  14.973   2.147  0.00  0.00     0.129 C 
BRANCH  32  33
HETATM   33  C   UNK N   1      28.485  15.082   2.953  0.00  0.00     0.103 C 
BRANCH  33  34
HETATM   34  C   UNK N   1      28.884  16.508   3.128  0.00  0.00     0.112 C 
BRANCH  34  35
HETATM   35  N   UNK N   1      28.095  17.330   3.733  0.00  0.00    -0.374 N 
ATOM     36  HN  UNK N   1      27.121  17.379   3.437  1.00  0.00     0.161 HD
BRANCH  35  37
HETATM   37  C   UNK N   1      28.536  18.184   4.813  0.00  0.00     0.132 C 
BRANCH  37  38
HETATM   38  C   UNK N   1      27.564  18.140   5.983  0.00  0.00     0.102 C 
BRANCH  38  39
HETATM   39  S   UNK N   1      28.005  19.352   7.263  0.00  0.00    -0.091 SA
BRANCH  39  40
HETATM   40  C   UNK N   1      28.786  18.108   8.295  0.00  0.00     0.188 C 
HETATM   41  O   UNK N   1      28.122  17.176   8.715  0.00  0.00    -0.285 OA
BRANCH  40  42
HETATM   42  C   UNK N   1      30.234  18.220   8.681  0.00  0.00     0.124 C 
BRANCH  42  43
HETATM   43  C   UNK N   1      31.155  17.367   7.806  0.00  0.00     0.152 C 
BRANCH  43  44
HETATM   44  C   UNK N   1      32.205  16.636   8.661  0.00  0.00     0.268 C 
BRANCH  44  45
HETATM   45  N   UNK N   1      33.609  16.783   8.251  0.00  0.00    -0.076 N 
HETATM   46  C   UNK N   1      34.000  15.680   7.386  0.00  0.00     0.271 C 
HETATM   47  C   UNK N   1      33.717  18.005   7.478  0.00  0.00     0.271 C 
HETATM   48  C   UNK N   1      34.536  16.879   9.369  0.00  0.00     0.271 C 
ENDBRANCH  44  45
ENDBRANCH  43  44
BRANCH  43  49
HETATM   49  O   UNK N   1      30.414  16.467   7.035  0.00  0.00    -0.393 OA
HETATM   50  H   UNK N   1      30.731  15.870   6.340  0.00  0.00     0.210 HD
ENDBRANCH  43  49
ENDBRANCH  42  43
ENDBRANCH  40  42
ENDBRANCH  39  40
ENDBRANCH  38  39
ENDBRANCH  37  38
ENDBRANCH  35  37
ENDBRANCH  34  35
BRANCH  34  51
HETATM   51  O   UNK N   1      30.071  16.921   2.635  0.00  0.00    -0.350 OA
HETATM   52  H   UNK N   1      30.514  17.006   1.814  0.00  0.00     0.219 HD
ENDBRANCH  34  51
ENDBRANCH  33  34
ENDBRANCH  32  33
ENDBRANCH  30  32
ENDBRANCH  29  30
BRANCH  29  53
HETATM   53  O   UNK N   1      26.808  12.195   1.519  0.00  0.00    -0.348 OA
HETATM   54  H   UNK N   1      26.892  11.286   1.310  0.00  0.00     0.219 HD
ENDBRANCH  29  53
ENDBRANCH  28  29
BRANCH  28  55
HETATM   55  O   UNK N   1      23.902  13.024   3.441  0.00  0.00    -0.387 OA
HETATM   56  H   UNK N   1      23.877  12.494   4.253  0.00  0.00     0.210 HD
ENDBRANCH  28  55
ENDBRANCH  25  28
ENDBRANCH  24  25
ENDBRANCH  23  24
ENDBRANCH  20  23
ENDBRANCH  19  20
ENDBRANCH  15  19
ENDBRANCH  14  15
ENDBRANCH  13  14
ENDBRANCH   9  13
BRANCH  11  57
HETATM   57  N   UNK N   1      22.660  18.601   4.348  0.00  0.00    -0.297 N 
HETATM   58  C   UNK N   1      23.586  19.428   3.799  0.00  0.00     0.188 A 
HETATM   59  N   UNK N   1      23.064  20.135   2.755  0.00  0.00    -0.346 N 
HETATM   60  C   UNK N   1      21.789  19.721   2.677  0.00  0.00     0.122 A 
ATOM     61  HN  UNK N   1      23.536  20.823   2.167  1.00  0.00     0.167 HD
HETATM   62  C   UNK N   1      20.795  20.052   1.765  0.00  0.00     0.131 A 
HETATM   63  C   UNK N   1      21.538  18.814   3.641  0.00  0.00     0.142 A 
HETATM   64  N   UNK N   1      19.571  19.466   1.909  0.00  0.00    -0.337 N 
HETATM   65  C   UNK N   1      19.332  18.565   2.918  0.00  0.00     0.183 A 
ATOM     66  HN  UNK N   1      18.821  19.702   1.258  1.00  0.00     0.168 HD
HETATM   67  N   UNK N   1      20.334  18.216   3.782  0.00  0.00    -0.336 N 
ATOM     68  HN  UNK N   1      20.178  17.523   4.514  1.00  0.00     0.168 HD
BRANCH  62  69
HETATM   69  N   UNK N   1      21.048  20.936   0.697  0.00  0.00    -0.383 N 
HETATM   70  H   UNK N   1      21.943  21.326   0.571  0.00  0.00     0.157 HD
HETATM   71  H   UNK N   1      20.324  21.166   0.071  0.00  0.00     0.157 HD
ENDBRANCH  62  69
ENDBRANCH  11  57
BRANCH  12  72
HETATM   72  O   UNK N   1      24.495  16.098   4.219  0.00  0.00    -0.388 OA
HETATM   73  H   UNK N   1      25.228  15.617   4.633  0.00  0.00     0.210 HD
ENDBRANCH  12  72
ENDBRANCH   7   8
ENDBRANCH   3   7
TORSDOF 34
ENDMDL
MODEL 5
REMARK VINA RESULT:      -6.4      2.681      4.168
REMARK WARNING: 32 MAX_TORS EXCEEDED!!!
REMARK  34 active torsions:
REMARK  status: ('A' for Active; 'I' for Inactive)
REMARK    1  A    between atoms: C_7  and  C_6 
REMARK    2  A    between atoms: C_18  and  C_6 
REMARK    3  A    between atoms: N_32  and  C_7 
REMARK    4  A    between atoms: C_9  and  C_8 
REMARK    5  A    between atoms: N_30  and  C_8 
REMARK    6  A    between atoms: S_63  and  C_9 
REMARK    7  A    between atoms: C_16  and  C_10 
REMARK    8  A    between atoms: C_19  and  C_10 
REMARK    9  A    between atoms: C_16  and  C_11 
REMARK   10  A    between atoms: N_41  and  C_11 
REMARK   11  A    between atoms: C_17  and  C_12 
REMARK   12  A    between atoms: O_55  and  C_12 
REMARK   13  A    between atoms: C_28  and  C_13 
REMARK   14  A    between atoms: O_56  and  C_13 
REMARK   15  A    between atoms: C_16  and  O_42 
REMARK   16  A    between atoms: N_30  and  C_18 
REMARK   17  A    between atoms: O_43  and  C_18 
REMARK   18  A    between atoms: S_63  and  C_19 
REMARK   19  A    between atoms: C_21  and  O_45 
REMARK   20  A    between atoms: C_22  and  O_58 
REMARK   21  A    between atoms: C_26  and  C_23 
REMARK   22  A    between atoms: C_28  and  C_23 
REMARK   23  A    between atoms: C_23  and  O_46 
REMARK   24  A    between atoms: N_29  and  C_24 
REMARK   25  A    between atoms: N_32  and  C_26 
REMARK   26  A    between atoms: O_47  and  C_26 
REMARK   27  A    between atoms: C_27  and  N_40 
REMARK   28  A    between atoms: P_60  and  O_49 
REMARK   29  A    between atoms: P_61  and  O_51 
REMARK   30  A    between atoms: P_61  and  O_55 
REMARK   31  A    between atoms: P_62  and  O_56 
REMARK   32  A    between atoms: P_60  and  O_58 
REMARK   33  A    between atoms: P_61  and  O_59 
REMARK   34  A    between atoms: P_62  and  O_59 
ROOT
HETATM    1  O   UNK N   1      35.881  11.287  14.983  0.00  0.00    -0.632 OA
HETATM    2  O   UNK N   1      33.335  10.836  14.502  0.00  0.00    -0.307 OA
HETATM    3  P   UNK N   1      34.551  12.050  14.754  0.00  0.00     0.391 P 
HETATM    4  H   UNK N   1      32.613  10.216  14.316  0.00  0.00     0.222 HD
ENDROOT
BRANCH   3   5
HETATM    5  O   UNK N   1      34.281  12.955  16.209  0.00  0.00    -0.307 OA
HETATM    6  H   UNK N   1      34.623  13.853  16.346  0.00  0.00     0.222 HD
ENDBRANCH   3   5
BRANCH   3   7
HETATM    7  O   UNK N   1      34.793  13.067  13.346  0.00  0.00    -0.286 OA
BRANCH   7   8
HETATM    8  C   UNK N   1      35.504  12.343  12.360  0.00  0.00     0.197 C 
HETATM    9  C   UNK N   1      36.637  13.145  11.714  0.00  0.00     0.180 C 
HETATM   10  O   UNK N   1      36.843  12.637  10.404  0.00  0.00    -0.353 OA
HETATM   11  C   UNK N   1      35.881  11.615  10.243  0.00  0.00     0.262 C 
HETATM   12  C   UNK N   1      34.704  12.000  11.131  0.00  0.00     0.199 C 
BRANCH   9  13
HETATM   13  C   UNK N   1      36.261  14.609  11.603  0.00  0.00     0.215 C 
BRANCH  13  14
HETATM   14  O   UNK N   1      36.017  14.919  10.273  0.00  0.00    -0.294 OA
BRANCH  14  15
HETATM   15  P   UNK N   1      34.772  16.116  10.203  0.00  0.00     0.402 P 
HETATM   16  O   UNK N   1      35.341  17.267  11.093  0.00  0.00    -0.631 OA
BRANCH  15  17
HETATM   17  O   UNK N   1      33.606  15.114  11.013  0.00  0.00    -0.307 OA
HETATM   18  H   UNK N   1      33.430  15.133  11.966  0.00  0.00     0.222 HD
ENDBRANCH  15  17
BRANCH  15  19
HETATM   19  O   UNK N   1      34.841  16.335   8.465  0.00  0.00    -0.188 OA
BRANCH  19  20
HETATM   20  P   UNK N   1      34.260  17.901   7.986  0.00  0.00     0.417 P 
HETATM   21  O   UNK N   1      34.194  17.959   6.433  0.00  0.00    -0.624 OA
HETATM   22  O   UNK N   1      35.319  19.155   8.541  0.00  0.00    -0.624 OA
BRANCH  20  23
HETATM   23  O   UNK N   1      32.648  18.106   8.655  0.00  0.00    -0.289 OA
BRANCH  23  24
HETATM   24  C   UNK N   1      31.761  17.652   7.677  0.00  0.00     0.193 C 
BRANCH  24  25
HETATM   25  C   UNK N   1      30.378  17.272   8.219  0.00  0.00     0.008 C 
HETATM   26  C   UNK N   1      29.585  16.629   7.092  0.00  0.00     0.020 C 
HETATM   27  C   UNK N   1      30.456  16.249   9.353  0.00  0.00     0.020 C 
BRANCH  25  28
HETATM   28  C   UNK N   1      29.663  18.565   8.695  0.00  0.00     0.202 C 
BRANCH  28  29
HETATM   29  C   UNK N   1      28.150  18.539   8.594  0.00  0.00     0.141 C 
BRANCH  29  30
HETATM   30  N   UNK N   1      27.535  19.188   7.662  0.00  0.00    -0.372 N 
ATOM     31  HN  UNK N   1      26.519  19.121   7.603  1.00  0.00     0.161 HD
BRANCH  30  32
HETATM   32  C   UNK N   1      28.235  20.004   6.703  0.00  0.00     0.129 C 
BRANCH  32  33
HETATM   33  C   UNK N   1      27.762  19.637   5.304  0.00  0.00     0.103 C 
BRANCH  33  34
HETATM   34  C   UNK N   1      26.585  20.462   4.908  0.00  0.00     0.112 C 
BRANCH  34  35
HETATM   35  N   UNK N   1      26.129  20.400   3.703  0.00  0.00    -0.374 N 
ATOM     36  HN  UNK N   1      26.700  20.772   2.945  1.00  0.00     0.161 HD
BRANCH  35  37
HETATM   37  C   UNK N   1      24.841  19.826   3.383  0.00  0.00     0.132 C 
BRANCH  37  38
HETATM   38  C   UNK N   1      24.343  18.928   4.506  0.00  0.00     0.102 C 
BRANCH  38  39
HETATM   39  S   UNK N   1      23.690  17.358   3.865  0.00  0.00    -0.091 SA
BRANCH  39  40
HETATM   40  C   UNK N   1      22.004  17.976   3.824  0.00  0.00     0.188 C 
HETATM   41  O   UNK N   1      21.746  18.966   3.161  0.00  0.00    -0.285 OA
BRANCH  40  42
HETATM   42  C   UNK N   1      20.918  17.317   4.624  0.00  0.00     0.124 C 
BRANCH  42  43
HETATM   43  C   UNK N   1      19.828  16.689   3.753  0.00  0.00     0.152 C 
BRANCH  43  44
HETATM   44  C   UNK N   1      20.325  15.385   3.105  0.00  0.00     0.268 C 
BRANCH  44  45
HETATM   45  N   UNK N   1      20.357  15.348   1.635  0.00  0.00    -0.076 N 
HETATM   46  C   UNK N   1      21.646  14.857   1.171  0.00  0.00     0.271 C 
HETATM   47  C   UNK N   1      19.346  14.405   1.196  0.00  0.00     0.271 C 
HETATM   48  C   UNK N   1      20.070  16.632   1.013  0.00  0.00     0.271 C 
ENDBRANCH  44  45
ENDBRANCH  43  44
BRANCH  43  49
HETATM   49  O   UNK N   1      18.663  16.475   4.494  0.00  0.00    -0.393 OA
HETATM   50  H   UNK N   1      17.843  16.992   4.484  0.00  0.00     0.210 HD
ENDBRANCH  43  49
ENDBRANCH  42  43
ENDBRANCH  40  42
ENDBRANCH  39  40
ENDBRANCH  38  39
ENDBRANCH  37  38
ENDBRANCH  35  37
ENDBRANCH  34  35
BRANCH  34  51
HETATM   51  O   UNK N   1      26.017  21.275   5.824  0.00  0.00    -0.350 OA
HETATM   52  H   UNK N   1      26.217  21.676   6.646  0.00  0.00     0.219 HD
ENDBRANCH  34  51
ENDBRANCH  33  34
ENDBRANCH  32  33
ENDBRANCH  30  32
ENDBRANCH  29  30
BRANCH  29  53
HETATM   53  O   UNK N   1      27.446  17.851   9.518  0.00  0.00    -0.348 OA
HETATM   54  H   UNK N   1      26.537  17.698   9.689  0.00  0.00     0.219 HD
ENDBRANCH  29  53
ENDBRANCH  28  29
BRANCH  28  55
HETATM   55  O   UNK N   1      30.017  18.841  10.021  0.00  0.00    -0.387 OA
HETATM   56  H   UNK N   1      30.929  18.712  10.326  0.00  0.00     0.210 HD
ENDBRANCH  28  55
ENDBRANCH  25  28
ENDBRANCH  24  25
ENDBRANCH  23  24
ENDBRANCH  20  23
ENDBRANCH  19  20
ENDBRANCH  15  19
ENDBRANCH  14  15
ENDBRANCH  13  14
ENDBRANCH   9  13
BRANCH  11  57
HETATM   57  N   UNK N   1      35.582  11.358   8.829  0.00  0.00    -0.297 N 
HETATM   58  C   UNK N   1      34.927  10.279   8.328  0.00  0.00     0.188 A 
HETATM   59  N   UNK N   1      34.625  10.449   7.009  0.00  0.00    -0.346 N 
HETATM   60  C   UNK N   1      35.115  11.663   6.709  0.00  0.00     0.122 A 
ATOM     61  HN  UNK N   1      34.138   9.800   6.390  1.00  0.00     0.167 HD
HETATM   62  C   UNK N   1      35.047  12.389   5.527  0.00  0.00     0.131 A 
HETATM   63  C   UNK N   1      35.704  12.204   7.793  0.00  0.00     0.142 A 
HETATM   64  N   UNK N   1      35.625  13.624   5.497  0.00  0.00    -0.337 N 
HETATM   65  C   UNK N   1      36.245  14.141   6.609  0.00  0.00     0.183 A 
ATOM     66  HN  UNK N   1      35.597  14.171   4.636  1.00  0.00     0.168 HD
HETATM   67  N   UNK N   1      36.266  13.433   7.779  0.00  0.00    -0.336 N 
ATOM     68  HN  UNK N   1      36.693  13.822   8.619  1.00  0.00     0.168 HD
BRANCH  62  69
HETATM   69  N   UNK N   1      34.367  11.885   4.399  0.00  0.00    -0.383 N 
HETATM   70  H   UNK N   1      33.562  11.328   4.507  0.00  0.00     0.157 HD
HETATM   71  H   UNK N   1      34.699  12.092   3.496  0.00  0.00     0.157 HD
ENDBRANCH  62  69
ENDBRANCH  11  57
BRANCH  12  72
HETATM   72  O   UNK N   1      33.842  10.929  11.366  0.00  0.00    -0.388 OA
HETATM   73  H   UNK N   1      33.789  10.496  12.232  0.00  0.00     0.210 HD
ENDBRANCH  12  72
ENDBRANCH   7   8
ENDBRANCH   3   7
TORSDOF 34
ENDMDL
MODEL 6
REMARK VINA RESULT:      -6.4      3.725      4.958
REMARK WARNING: 32 MAX_TORS EXCEEDED!!!
REMARK  34 active torsions:
REMARK  status: ('A' for Active; 'I' for Inactive)
REMARK    1  A    between atoms: C_7  and  C_6 
REMARK    2  A    between atoms: C_18  and  C_6 
REMARK    3  A    between atoms: N_32  and  C_7 
REMARK    4  A    between atoms: C_9  and  C_8 
REMARK    5  A    between atoms: N_30  and  C_8 
REMARK    6  A    between atoms: S_63  and  C_9 
REMARK    7  A    between atoms: C_16  and  C_10 
REMARK    8  A    between atoms: C_19  and  C_10 
REMARK    9  A    between atoms: C_16  and  C_11 
REMARK   10  A    between atoms: N_41  and  C_11 
REMARK   11  A    between atoms: C_17  and  C_12 
REMARK   12  A    between atoms: O_55  and  C_12 
REMARK   13  A    between atoms: C_28  and  C_13 
REMARK   14  A    between atoms: O_56  and  C_13 
REMARK   15  A    between atoms: C_16  and  O_42 
REMARK   16  A    between atoms: N_30  and  C_18 
REMARK   17  A    between atoms: O_43  and  C_18 
REMARK   18  A    between atoms: S_63  and  C_19 
REMARK   19  A    between atoms: C_21  and  O_45 
REMARK   20  A    between atoms: C_22  and  O_58 
REMARK   21  A    between atoms: C_26  and  C_23 
REMARK   22  A    between atoms: C_28  and  C_23 
REMARK   23  A    between atoms: C_23  and  O_46 
REMARK   24  A    between atoms: N_29  and  C_24 
REMARK   25  A    between atoms: N_32  and  C_26 
REMARK   26  A    between atoms: O_47  and  C_26 
REMARK   27  A    between atoms: C_27  and  N_40 
REMARK   28  A    between atoms: P_60  and  O_49 
REMARK   29  A    between atoms: P_61  and  O_51 
REMARK   30  A    between atoms: P_61  and  O_55 
REMARK   31  A    between atoms: P_62  and  O_56 
REMARK   32  A    between atoms: P_60  and  O_58 
REMARK   33  A    between atoms: P_61  and  O_59 
REMARK   34  A    between atoms: P_62  and  O_59 
ROOT
HETATM    1  O   UNK N   1      37.067  12.007  15.209  0.00  0.00    -0.632 OA
HETATM    2  O   UNK N   1      35.353  13.275  16.750  0.00  0.00    -0.307 OA
HETATM    3  P   UNK N   1      36.323  13.364  15.312  0.00  0.00     0.391 P 
HETATM    4  H   UNK N   1      34.759  13.282  17.516  0.00  0.00     0.222 HD
ENDROOT
BRANCH   3   5
HETATM    5  O   UNK N   1      37.569  14.565  15.435  0.00  0.00    -0.307 OA
HETATM    6  H   UNK N   1      37.602  15.354  14.873  0.00  0.00     0.222 HD
ENDBRANCH   3   5
BRANCH   3   7
HETATM    7  O   UNK N   1      35.360  13.520  13.855  0.00  0.00    -0.286 OA
BRANCH   7   8
HETATM    8  C   UNK N   1      35.862  12.642  12.865  0.00  0.00     0.197 C 
HETATM    9  C   UNK N   1      36.776  13.329  11.847  0.00  0.00     0.180 C 
HETATM   10  O   UNK N   1      36.702  12.604  10.629  0.00  0.00    -0.353 OA
HETATM   11  C   UNK N   1      35.779  11.561  10.870  0.00  0.00     0.262 C 
HETATM   12  C   UNK N   1      34.819  12.084  11.931  0.00  0.00     0.199 C 
BRANCH   9  13
HETATM   13  C   UNK N   1      36.314  14.749  11.585  0.00  0.00     0.215 C 
BRANCH  13  14
HETATM   14  O   UNK N   1      35.887  14.855  10.269  0.00  0.00    -0.294 OA
BRANCH  14  15
HETATM   15  P   UNK N   1      34.727  16.132  10.165  0.00  0.00     0.402 P 
HETATM   16  O   UNK N   1      35.319  17.222  11.113  0.00  0.00    -0.631 OA
BRANCH  15  17
HETATM   17  O   UNK N   1      33.457  15.190  10.886  0.00  0.00    -0.307 OA
HETATM   18  H   UNK N   1      33.556  14.278  11.198  0.00  0.00     0.222 HD
ENDBRANCH  15  17
BRANCH  15  19
HETATM   19  O   UNK N   1      34.904  16.384   8.440  0.00  0.00    -0.188 OA
BRANCH  19  20
HETATM   20  P   UNK N   1      34.139  17.855   7.919  0.00  0.00     0.417 P 
HETATM   21  O   UNK N   1      35.054  19.057   8.291  0.00  0.00    -0.624 OA
HETATM   22  O   UNK N   1      32.604  18.068   8.695  0.00  0.00    -0.624 OA
BRANCH  20  23
HETATM   23  O   UNK N   1      33.948  17.776   6.174  0.00  0.00    -0.289 OA
BRANCH  23  24
HETATM   24  C   UNK N   1      33.390  16.525   5.901  0.00  0.00     0.193 C 
BRANCH  24  25
HETATM   25  C   UNK N   1      32.296  16.551   4.827  0.00  0.00     0.008 C 
HETATM   26  C   UNK N   1      32.868  17.206   3.580  0.00  0.00     0.020 C 
HETATM   27  C   UNK N   1      31.836  15.150   4.427  0.00  0.00     0.020 C 
BRANCH  25  28
HETATM   28  C   UNK N   1      31.102  17.388   5.361  0.00  0.00     0.202 C 
BRANCH  28  29
HETATM   29  C   UNK N   1      29.779  17.141   4.662  0.00  0.00     0.141 C 
BRANCH  29  30
HETATM   30  N   UNK N   1      28.718  16.840   5.333  0.00  0.00    -0.372 N 
ATOM     31  HN  UNK N   1      28.610  15.888   5.683  1.00  0.00     0.161 HD
BRANCH  30  32
HETATM   32  C   UNK N   1      27.683  17.803   5.607  0.00  0.00     0.129 C 
BRANCH  32  33
HETATM   33  C   UNK N   1      26.415  17.386   4.875  0.00  0.00     0.103 C 
BRANCH  33  34
HETATM   34  C   UNK N   1      25.737  16.264   5.584  0.00  0.00     0.112 C 
BRANCH  34  35
HETATM   35  N   UNK N   1      24.843  15.561   4.975  0.00  0.00    -0.374 N 
ATOM     36  HN  UNK N   1      25.132  14.707   4.500  1.00  0.00     0.161 HD
BRANCH  35  37
HETATM   37  C   UNK N   1      23.447  15.936   4.937  0.00  0.00     0.132 C 
BRANCH  37  38
HETATM   38  C   UNK N   1      22.655  15.224   6.023  0.00  0.00     0.102 C 
BRANCH  38  39
HETATM   39  S   UNK N   1      21.567  16.373   6.917  0.00  0.00    -0.091 SA
BRANCH  39  40
HETATM   40  C   UNK N   1      20.511  15.048   7.511  0.00  0.00     0.188 C 
HETATM   41  O   UNK N   1      19.396  15.312   7.927  0.00  0.00    -0.285 OA
BRANCH  40  42
HETATM   42  C   UNK N   1      20.995  13.626   7.539  0.00  0.00     0.124 C 
BRANCH  42  43
HETATM   43  C   UNK N   1      21.227  13.099   8.956  0.00  0.00     0.152 C 
BRANCH  43  44
HETATM   44  C   UNK N   1      22.607  13.529   9.484  0.00  0.00     0.268 C 
BRANCH  44  45
HETATM   45  N   UNK N   1      23.501  12.456   9.948  0.00  0.00    -0.076 N 
HETATM   46  C   UNK N   1      23.467  11.336   9.020  0.00  0.00     0.271 C 
HETATM   47  C   UNK N   1      24.853  12.981   9.952  0.00  0.00     0.271 C 
HETATM   48  C   UNK N   1      23.200  11.987  11.292  0.00  0.00     0.271 C 
ENDBRANCH  44  45
ENDBRANCH  43  44
BRANCH  43  49
HETATM   49  O   UNK N   1      20.205  13.515   9.814  0.00  0.00    -0.393 OA
HETATM   50  H   UNK N   1      19.686  14.333   9.776  0.00  0.00     0.210 HD
ENDBRANCH  43  49
ENDBRANCH  42  43
ENDBRANCH  40  42
ENDBRANCH  39  40
ENDBRANCH  38  39
ENDBRANCH  37  38
ENDBRANCH  35  37
ENDBRANCH  34  35
BRANCH  34  51
HETATM   51  O   UNK N   1      26.066  16.006   6.868  0.00  0.00    -0.350 OA
HETATM   52  H   UNK N   1      26.313  16.462   7.648  0.00  0.00     0.219 HD
ENDBRANCH  34  51
ENDBRANCH  33  34
ENDBRANCH  32  33
ENDBRANCH  30  32
ENDBRANCH  29  30
BRANCH  29  53
HETATM   53  O   UNK N   1      29.731  17.207   3.314  0.00  0.00    -0.348 OA
HETATM   54  H   UNK N   1      29.676  17.894   2.679  0.00  0.00     0.219 HD
ENDBRANCH  29  53
ENDBRANCH  28  29
BRANCH  28  55
HETATM   55  O   UNK N   1      30.935  17.154   6.731  0.00  0.00    -0.387 OA
HETATM   56  H   UNK N   1      31.621  16.698   7.241  0.00  0.00     0.210 HD
ENDBRANCH  28  55
ENDBRANCH  25  28
ENDBRANCH  24  25
ENDBRANCH  23  24
ENDBRANCH  20  23
ENDBRANCH  19  20
ENDBRANCH  15  19
ENDBRANCH  14  15
ENDBRANCH  13  14
ENDBRANCH   9  13
BRANCH  11  57
HETATM   57  N   UNK N   1      35.178  11.060   9.628  0.00  0.00    -0.297 N 
HETATM   58  C   UNK N   1      35.157   9.769   9.207  0.00  0.00     0.188 A 
HETATM   59  N   UNK N   1      34.337   9.610   8.129  0.00  0.00    -0.346 N 
HETATM   60  C   UNK N   1      33.854  10.841   7.894  0.00  0.00     0.122 A 
ATOM     61  HN  UNK N   1      34.137   8.751   7.616  1.00  0.00     0.167 HD
HETATM   62  C   UNK N   1      32.925  11.275   6.957  0.00  0.00     0.131 A 
HETATM   63  C   UNK N   1      34.368  11.716   8.781  0.00  0.00     0.142 A 
HETATM   64  N   UNK N   1      32.596  12.599   6.943  0.00  0.00    -0.337 N 
HETATM   65  C   UNK N   1      33.157  13.476   7.840  0.00  0.00     0.183 A 
ATOM     66  HN  UNK N   1      31.924  12.943   6.257  1.00  0.00     0.168 HD
HETATM   67  N   UNK N   1      34.037  13.026   8.786  0.00  0.00    -0.336 N 
ATOM     68  HN  UNK N   1      34.433  13.663   9.478  1.00  0.00     0.168 HD
BRANCH  62  69
HETATM   69  N   UNK N   1      32.308  10.371   6.068  0.00  0.00    -0.383 N 
HETATM   70  H   UNK N   1      31.860   9.562   6.408  0.00  0.00     0.157 HD
HETATM   71  H   UNK N   1      32.325  10.549   5.101  0.00  0.00     0.157 HD
ENDBRANCH  62  69
ENDBRANCH  11  57
BRANCH  12  72
HETATM   72  O   UNK N   1      34.087  11.063  12.536  0.00  0.00    -0.388 OA
HETATM   73  H   UNK N   1      34.109  10.917  13.495  0.00  0.00     0.210 HD
ENDBRANCH  12  72
ENDBRANCH   7   8
ENDBRANCH   3   7
TORSDOF 34
ENDMDL
MODEL 7
REMARK VINA RESULT:      -6.4      3.412      6.487
REMARK WARNING: 32 MAX_TORS EXCEEDED!!!
REMARK  34 active torsions:
REMARK  status: ('A' for Active; 'I' for Inactive)
REMARK    1  A    between atoms: C_7  and  C_6 
REMARK    2  A    between atoms: C_18  and  C_6 
REMARK    3  A    between atoms: N_32  and  C_7 
REMARK    4  A    between atoms: C_9  and  C_8 
REMARK    5  A    between atoms: N_30  and  C_8 
REMARK    6  A    between atoms: S_63  and  C_9 
REMARK    7  A    between atoms: C_16  and  C_10 
REMARK    8  A    between atoms: C_19  and  C_10 
REMARK    9  A    between atoms: C_16  and  C_11 
REMARK   10  A    between atoms: N_41  and  C_11 
REMARK   11  A    between atoms: C_17  and  C_12 
REMARK   12  A    between atoms: O_55  and  C_12 
REMARK   13  A    between atoms: C_28  and  C_13 
REMARK   14  A    between atoms: O_56  and  C_13 
REMARK   15  A    between atoms: C_16  and  O_42 
REMARK   16  A    between atoms: N_30  and  C_18 
REMARK   17  A    between atoms: O_43  and  C_18 
REMARK   18  A    between atoms: S_63  and  C_19 
REMARK   19  A    between atoms: C_21  and  O_45 
REMARK   20  A    between atoms: C_22  and  O_58 
REMARK   21  A    between atoms: C_26  and  C_23 
REMARK   22  A    between atoms: C_28  and  C_23 
REMARK   23  A    between atoms: C_23  and  O_46 
REMARK   24  A    between atoms: N_29  and  C_24 
REMARK   25  A    between atoms: N_32  and  C_26 
REMARK   26  A    between atoms: O_47  and  C_26 
REMARK   27  A    between atoms: C_27  and  N_40 
REMARK   28  A    between atoms: P_60  and  O_49 
REMARK   29  A    between atoms: P_61  and  O_51 
REMARK   30  A    between atoms: P_61  and  O_55 
REMARK   31  A    between atoms: P_62  and  O_56 
REMARK   32  A    between atoms: P_60  and  O_58 
REMARK   33  A    between atoms: P_61  and  O_59 
REMARK   34  A    between atoms: P_62  and  O_59 
ROOT
HETATM    1  O   UNK N   1      37.694  11.264   6.288  0.00  0.00    -0.632 OA
HETATM    2  O   UNK N   1      39.921  12.660   6.200  0.00  0.00    -0.307 OA
HETATM    3  P   UNK N   1      38.189  12.718   6.083  0.00  0.00     0.391 P 
HETATM    4  H   UNK N   1      40.885  12.708   6.291  0.00  0.00     0.222 HD
ENDROOT
BRANCH   3   5
HETATM    5  O   UNK N   1      37.656  13.168   4.494  0.00  0.00    -0.307 OA
HETATM    6  H   UNK N   1      37.088  12.604   3.946  0.00  0.00     0.222 HD
ENDBRANCH   3   5
BRANCH   3   7
HETATM    7  O   UNK N   1      37.458  13.682   7.351  0.00  0.00    -0.286 OA
BRANCH   7   8
HETATM    8  C   UNK N   1      37.053  12.834   8.410  0.00  0.00     0.197 C 
HETATM    9  C   UNK N   1      35.535  12.649   8.495  0.00  0.00     0.180 C 
HETATM   10  O   UNK N   1      35.203  12.364   9.846  0.00  0.00    -0.353 OA
HETATM   11  C   UNK N   1      36.427  12.404  10.549  0.00  0.00     0.262 C 
HETATM   12  C   UNK N   1      37.319  13.378   9.790  0.00  0.00     0.199 C 
BRANCH   9  13
HETATM   13  C   UNK N   1      34.816  13.919   8.086  0.00  0.00     0.215 C 
BRANCH  13  14
HETATM   14  O   UNK N   1      33.682  14.076   8.871  0.00  0.00    -0.294 OA
BRANCH  14  15
HETATM   15  P   UNK N   1      33.701  15.661   9.559  0.00  0.00     0.402 P 
HETATM   16  O   UNK N   1      34.327  15.423  10.970  0.00  0.00    -0.631 OA
BRANCH  15  17
HETATM   17  O   UNK N   1      31.969  15.798   9.574  0.00  0.00    -0.307 OA
HETATM   18  H   UNK N   1      31.376  15.242  10.102  0.00  0.00     0.222 HD
ENDBRANCH  15  17
BRANCH  15  19
HETATM   19  O   UNK N   1      34.732  16.370   8.331  0.00  0.00    -0.188 OA
BRANCH  19  20
HETATM   20  P   UNK N   1      34.098  17.878   7.745  0.00  0.00     0.417 P 
HETATM   21  O   UNK N   1      35.003  19.036   8.255  0.00  0.00    -0.624 OA
HETATM   22  O   UNK N   1      32.485  18.142   8.321  0.00  0.00    -0.624 OA
BRANCH  20  23
HETATM   23  O   UNK N   1      34.131  17.831   5.988  0.00  0.00    -0.289 OA
BRANCH  23  24
HETATM   24  C   UNK N   1      33.778  16.529   5.628  0.00  0.00     0.193 C 
BRANCH  24  25
HETATM   25  C   UNK N   1      32.825  16.451   4.430  0.00  0.00     0.008 C 
HETATM   26  C   UNK N   1      32.283  17.845   4.160  0.00  0.00     0.020 C 
HETATM   27  C   UNK N   1      33.527  15.987   3.154  0.00  0.00     0.020 C 
BRANCH  25  28
HETATM   28  C   UNK N   1      31.657  15.493   4.792  0.00  0.00     0.202 C 
BRANCH  28  29
HETATM   29  C   UNK N   1      31.216  15.535   6.244  0.00  0.00     0.141 C 
BRANCH  29  30
HETATM   30  N   UNK N   1      30.678  16.597   6.745  0.00  0.00    -0.372 N 
ATOM     31  HN  UNK N   1      31.258  17.423   6.886  1.00  0.00     0.161 HD
BRANCH  30  32
HETATM   32  C   UNK N   1      29.285  16.653   7.109  0.00  0.00     0.129 C 
BRANCH  32  33
HETATM   33  C   UNK N   1      28.771  18.066   6.872  0.00  0.00     0.103 C 
BRANCH  33  34
HETATM   34  C   UNK N   1      28.418  18.269   5.438  0.00  0.00     0.112 C 
BRANCH  34  35
HETATM   35  N   UNK N   1      28.211  19.460   4.986  0.00  0.00    -0.374 N 
ATOM     36  HN  UNK N   1      28.625  20.249   5.482  1.00  0.00     0.161 HD
BRANCH  35  37
HETATM   37  C   UNK N   1      27.416  19.721   3.807  0.00  0.00     0.132 C 
BRANCH  37  38
HETATM   38  C   UNK N   1      25.954  19.939   4.164  0.00  0.00     0.102 C 
BRANCH  38  39
HETATM   39  S   UNK N   1      24.994  20.509   2.731  0.00  0.00    -0.091 SA
BRANCH  39  40
HETATM   40  C   UNK N   1      23.450  19.891   3.409  0.00  0.00     0.188 C 
HETATM   41  O   UNK N   1      22.404  20.444   3.115  0.00  0.00    -0.285 OA
BRANCH  40  42
HETATM   42  C   UNK N   1      23.433  18.731   4.362  0.00  0.00     0.124 C 
BRANCH  42  43
HETATM   43  C   UNK N   1      22.022  18.221   4.661  0.00  0.00     0.152 C 
BRANCH  43  44
HETATM   44  C   UNK N   1      21.697  16.974   3.820  0.00  0.00     0.268 C 
BRANCH  44  45
HETATM   45  N   UNK N   1      20.318  16.854   3.321  0.00  0.00    -0.076 N 
HETATM   46  C   UNK N   1      19.471  16.230   4.325  0.00  0.00     0.271 C 
HETATM   47  C   UNK N   1      19.814  18.195   3.094  0.00  0.00     0.271 C 
HETATM   48  C   UNK N   1      20.214  16.120   2.068  0.00  0.00     0.271 C 
ENDBRANCH  44  45
ENDBRANCH  43  44
BRANCH  43  49
HETATM   49  O   UNK N   1      21.864  17.967   6.026  0.00  0.00    -0.393 OA
HETATM   50  H   UNK N   1      21.060  18.046   6.562  0.00  0.00     0.210 HD
ENDBRANCH  43  49
ENDBRANCH  42  43
ENDBRANCH  40  42
ENDBRANCH  39  40
ENDBRANCH  38  39
ENDBRANCH  37  38
ENDBRANCH  35  37
ENDBRANCH  34  35
BRANCH  34  51
HETATM   51  O   UNK N   1      28.308  17.192   4.631  0.00  0.00    -0.350 OA
HETATM   52  H   UNK N   1      28.730  16.810   3.887  0.00  0.00     0.219 HD
ENDBRANCH  34  51
ENDBRANCH  33  34
ENDBRANCH  32  33
ENDBRANCH  30  32
ENDBRANCH  29  30
BRANCH  29  53
HETATM   53  O   UNK N   1      31.426  14.451   7.021  0.00  0.00    -0.348 OA
HETATM   54  H   UNK N   1      32.141  13.864   7.170  0.00  0.00     0.219 HD
ENDBRANCH  29  53
ENDBRANCH  28  29
BRANCH  28  55
HETATM   55  O   UNK N   1      30.550  15.768   3.981  0.00  0.00    -0.387 OA
HETATM   56  H   UNK N   1      29.665  15.461   4.232  0.00  0.00     0.210 HD
ENDBRANCH  28  55
ENDBRANCH  25  28
ENDBRANCH  24  25
ENDBRANCH  23  24
ENDBRANCH  20  23
ENDBRANCH  19  20
ENDBRANCH  15  19
ENDBRANCH  14  15
ENDBRANCH  13  14
ENDBRANCH   9  13
BRANCH  11  57
HETATM   57  N   UNK N   1      36.232  12.670  11.980  0.00  0.00    -0.297 N 
HETATM   58  C   UNK N   1      36.695  13.743  12.670  0.00  0.00     0.188 A 
HETATM   59  N   UNK N   1      36.159  13.798  13.923  0.00  0.00    -0.346 N 
HETATM   60  C   UNK N   1      35.354  12.725  13.988  0.00  0.00     0.122 A 
ATOM     61  HN  UNK N   1      36.332  14.495  14.648  1.00  0.00     0.167 HD
HETATM   62  C   UNK N   1      34.503  12.304  15.003  0.00  0.00     0.131 A 
HETATM   63  C   UNK N   1      35.407  12.037  12.831  0.00  0.00     0.142 A 
HETATM   64  N   UNK N   1      33.775  11.168  14.800  0.00  0.00    -0.337 N 
HETATM   65  C   UNK N   1      33.870  10.469  13.621  0.00  0.00     0.183 A 
ATOM     66  HN  UNK N   1      33.152  10.833  15.535  1.00  0.00     0.168 HD
HETATM   67  N   UNK N   1      34.678  10.920  12.614  0.00  0.00    -0.336 N 
ATOM     68  HN  UNK N   1      34.729  10.427  11.723  1.00  0.00     0.168 HD
BRANCH  62  69
HETATM   69  N   UNK N   1      34.363  13.045  16.193  0.00  0.00    -0.383 N 
HETATM   70  H   UNK N   1      34.687  12.683  17.050  0.00  0.00     0.157 HD
HETATM   71  H   UNK N   1      33.938  13.932  16.169  0.00  0.00     0.157 HD
ENDBRANCH  62  69
ENDBRANCH  11  57
BRANCH  12  72
HETATM   72  O   UNK N   1      38.663  13.251  10.137  0.00  0.00    -0.388 OA
HETATM   73  H   UNK N   1      39.026  12.420  10.481  0.00  0.00     0.210 HD
ENDBRANCH  12  72
ENDBRANCH   7   8
ENDBRANCH   3   7
TORSDOF 34
ENDMDL
MODEL 8
REMARK VINA RESULT:      -6.3      2.816      3.683
REMARK WARNING: 32 MAX_TORS EXCEEDED!!!
REMARK  34 active torsions:
REMARK  status: ('A' for Active; 'I' for Inactive)
REMARK    1  A    between atoms: C_7  and  C_6 
REMARK    2  A    between atoms: C_18  and  C_6 
REMARK    3  A    between atoms: N_32  and  C_7 
REMARK    4  A    between atoms: C_9  and  C_8 
REMARK    5  A    between atoms: N_30  and  C_8 
REMARK    6  A    between atoms: S_63  and  C_9 
REMARK    7  A    between atoms: C_16  and  C_10 
REMARK    8  A    between atoms: C_19  and  C_10 
REMARK    9  A    between atoms: C_16  and  C_11 
REMARK   10  A    between atoms: N_41  and  C_11 
REMARK   11  A    between atoms: C_17  and  C_12 
REMARK   12  A    between atoms: O_55  and  C_12 
REMARK   13  A    between atoms: C_28  and  C_13 
REMARK   14  A    between atoms: O_56  and  C_13 
REMARK   15  A    between atoms: C_16  and  O_42 
REMARK   16  A    between atoms: N_30  and  C_18 
REMARK   17  A    between atoms: O_43  and  C_18 
REMARK   18  A    between atoms: S_63  and  C_19 
REMARK   19  A    between atoms: C_21  and  O_45 
REMARK   20  A    between atoms: C_22  and  O_58 
REMARK   21  A    between atoms: C_26  and  C_23 
REMARK   22  A    between atoms: C_28  and  C_23 
REMARK   23  A    between atoms: C_23  and  O_46 
REMARK   24  A    between atoms: N_29  and  C_24 
REMARK   25  A    between atoms: N_32  and  C_26 
REMARK   26  A    between atoms: O_47  and  C_26 
REMARK   27  A    between atoms: C_27  and  N_40 
REMARK   28  A    between atoms: P_60  and  O_49 
REMARK   29  A    between atoms: P_61  and  O_51 
REMARK   30  A    between atoms: P_61  and  O_55 
REMARK   31  A    between atoms: P_62  and  O_56 
REMARK   32  A    between atoms: P_60  and  O_58 
REMARK   33  A    between atoms: P_61  and  O_59 
REMARK   34  A    between atoms: P_62  and  O_59 
ROOT
HETATM    1  O   UNK N   1      35.824  11.028  14.929  0.00  0.00    -0.632 OA
HETATM    2  O   UNK N   1      33.218  10.813  14.650  0.00  0.00    -0.307 OA
HETATM    3  P   UNK N   1      34.553  11.909  14.829  0.00  0.00     0.391 P 
HETATM    4  H   UNK N   1      32.432  10.263  14.509  0.00  0.00     0.222 HD
ENDROOT
BRANCH   3   5
HETATM    5  O   UNK N   1      34.482  12.788  16.323  0.00  0.00    -0.307 OA
HETATM    6  H   UNK N   1      34.318  12.365  17.180  0.00  0.00     0.222 HD
ENDBRANCH   3   5
BRANCH   3   7
HETATM    7  O   UNK N   1      34.770  12.946  13.431  0.00  0.00    -0.286 OA
BRANCH   7   8
HETATM    8  C   UNK N   1      35.462  12.235  12.423  0.00  0.00     0.197 C 
HETATM    9  C   UNK N   1      36.544  13.065  11.726  0.00  0.00     0.180 C 
HETATM   10  O   UNK N   1      36.712  12.553  10.413  0.00  0.00    -0.353 OA
HETATM   11  C   UNK N   1      35.776  11.502  10.297  0.00  0.00     0.262 C 
HETATM   12  C   UNK N   1      34.624  11.858  11.229  0.00  0.00     0.199 C 
BRANCH   9  13
HETATM   13  C   UNK N   1      36.120  14.516  11.620  0.00  0.00     0.215 C 
BRANCH  13  14
HETATM   14  O   UNK N   1      35.910  14.836  10.286  0.00  0.00    -0.294 OA
BRANCH  14  15
HETATM   15  P   UNK N   1      34.739  16.103  10.197  0.00  0.00     0.402 P 
HETATM   16  O   UNK N   1      35.345  17.207  11.122  0.00  0.00    -0.631 OA
BRANCH  15  17
HETATM   17  O   UNK N   1      33.492  15.159  10.955  0.00  0.00    -0.307 OA
HETATM   18  H   UNK N   1      32.976  15.444  11.724  0.00  0.00     0.222 HD
ENDBRANCH  15  17
BRANCH  15  19
HETATM   19  O   UNK N   1      34.875  16.342   8.466  0.00  0.00    -0.188 OA
BRANCH  19  20
HETATM   20  P   UNK N   1      34.277  17.899   7.978  0.00  0.00     0.417 P 
HETATM   21  O   UNK N   1      34.208  17.947   6.425  0.00  0.00    -0.624 OA
HETATM   22  O   UNK N   1      35.325  19.167   8.524  0.00  0.00    -0.624 OA
BRANCH  20  23
HETATM   23  O   UNK N   1      32.665  18.094   8.649  0.00  0.00    -0.289 OA
BRANCH  23  24
HETATM   24  C   UNK N   1      31.776  17.749   7.628  0.00  0.00     0.193 C 
BRANCH  24  25
HETATM   25  C   UNK N   1      30.387  17.333   8.125  0.00  0.00     0.008 C 
HETATM   26  C   UNK N   1      29.637  16.695   6.967  0.00  0.00     0.020 C 
HETATM   27  C   UNK N   1      30.454  16.293   9.244  0.00  0.00     0.020 C 
BRANCH  25  28
HETATM   28  C   UNK N   1      29.634  18.604   8.604  0.00  0.00     0.202 C 
BRANCH  28  29
HETATM   29  C   UNK N   1      28.121  18.507   8.570  0.00  0.00     0.141 C 
BRANCH  29  30
HETATM   30  N   UNK N   1      27.434  19.137   7.676  0.00  0.00    -0.372 N 
ATOM     31  HN  UNK N   1      26.430  18.969   7.618  1.00  0.00     0.161 HD
BRANCH  30  32
HETATM   32  C   UNK N   1      28.038  20.068   6.758  0.00  0.00     0.129 C 
BRANCH  32  33
HETATM   33  C   UNK N   1      27.827  19.568   5.337  0.00  0.00     0.103 C 
BRANCH  33  34
HETATM   34  C   UNK N   1      26.443  19.042   5.159  0.00  0.00     0.112 C 
BRANCH  34  35
HETATM   35  N   UNK N   1      26.236  18.008   4.415  0.00  0.00    -0.374 N 
ATOM     36  HN  UNK N   1      26.070  18.148   3.419  1.00  0.00     0.161 HD
BRANCH  35  37
HETATM   37  C   UNK N   1      26.230  16.659   4.936  0.00  0.00     0.132 C 
BRANCH  37  38
HETATM   38  C   UNK N   1      25.075  15.852   4.361  0.00  0.00     0.102 C 
BRANCH  38  39
HETATM   39  S   UNK N   1      23.476  16.652   4.685  0.00  0.00    -0.091 SA
BRANCH  39  40
HETATM   40  C   UNK N   1      23.110  15.559   6.063  0.00  0.00     0.188 C 
HETATM   41  O   UNK N   1      22.346  15.933   6.936  0.00  0.00    -0.285 OA
BRANCH  40  42
HETATM   42  C   UNK N   1      23.759  14.210   6.174  0.00  0.00     0.124 C 
BRANCH  42  43
HETATM   43  C   UNK N   1      22.977  13.239   7.061  0.00  0.00     0.152 C 
BRANCH  43  44
HETATM   44  C   UNK N   1      23.325  13.448   8.545  0.00  0.00     0.268 C 
BRANCH  44  45
HETATM   45  N   UNK N   1      23.349  12.247   9.394  0.00  0.00    -0.076 N 
HETATM   46  C   UNK N   1      23.614  11.066   8.588  0.00  0.00     0.271 C 
HETATM   47  C   UNK N   1      24.446  12.393  10.331  0.00  0.00     0.271 C 
HETATM   48  C   UNK N   1      22.129  12.052  10.162  0.00  0.00     0.271 C 
ENDBRANCH  44  45
ENDBRANCH  43  44
BRANCH  43  49
HETATM   49  O   UNK N   1      21.603  13.362   6.840  0.00  0.00    -0.393 OA
HETATM   50  H   UNK N   1      20.877  13.165   7.452  0.00  0.00     0.210 HD
ENDBRANCH  43  49
ENDBRANCH  42  43
ENDBRANCH  40  42
ENDBRANCH  39  40
ENDBRANCH  38  39
ENDBRANCH  37  38
ENDBRANCH  35  37
ENDBRANCH  34  35
BRANCH  34  51
HETATM   51  O   UNK N   1      25.420  19.669   5.776  0.00  0.00    -0.350 OA
HETATM   52  H   UNK N   1      25.030  20.518   5.830  0.00  0.00     0.219 HD
ENDBRANCH  34  51
ENDBRANCH  33  34
ENDBRANCH  32  33
ENDBRANCH  30  32
ENDBRANCH  29  30
BRANCH  29  53
HETATM   53  O   UNK N   1      27.493  17.776   9.516  0.00  0.00    -0.348 OA
HETATM   54  H   UNK N   1      27.762  17.204  10.207  0.00  0.00     0.219 HD
ENDBRANCH  29  53
ENDBRANCH  28  29
BRANCH  28  55
HETATM   55  O   UNK N   1      30.033  18.929   9.906  0.00  0.00    -0.387 OA
HETATM   56  H   UNK N   1      29.548  18.583  10.671  0.00  0.00     0.210 HD
ENDBRANCH  28  55
ENDBRANCH  25  28
ENDBRANCH  24  25
ENDBRANCH  23  24
ENDBRANCH  20  23
ENDBRANCH  19  20
ENDBRANCH  15  19
ENDBRANCH  14  15
ENDBRANCH  13  14
ENDBRANCH   9  13
BRANCH  11  57
HETATM   57  N   UNK N   1      35.429  11.224   8.898  0.00  0.00    -0.297 N 
HETATM   58  C   UNK N   1      34.765  10.133   8.435  0.00  0.00     0.188 A 
HETATM   59  N   UNK N   1      34.414  10.284   7.125  0.00  0.00    -0.346 N 
HETATM   60  C   UNK N   1      34.883  11.498   6.793  0.00  0.00     0.122 A 
ATOM     61  HN  UNK N   1      33.911   9.624   6.532  1.00  0.00     0.167 HD
HETATM   62  C   UNK N   1      34.767  12.208   5.604  0.00  0.00     0.131 A 
HETATM   63  C   UNK N   1      35.506  12.058   7.848  0.00  0.00     0.142 A 
HETATM   64  N   UNK N   1      35.334  13.447   5.538  0.00  0.00    -0.337 N 
HETATM   65  C   UNK N   1      35.989  13.983   6.621  0.00  0.00     0.183 A 
ATOM     66  HN  UNK N   1      35.271  13.983   4.673  1.00  0.00     0.168 HD
HETATM   67  N   UNK N   1      36.058  13.290   7.798  0.00  0.00    -0.336 N 
ATOM     68  HN  UNK N   1      36.512  13.693   8.618  1.00  0.00     0.168 HD
BRANCH  62  69
HETATM   69  N   UNK N   1      34.052  11.685   4.508  0.00  0.00    -0.383 N 
HETATM   70  H   UNK N   1      34.522  11.219   3.780  0.00  0.00     0.157 HD
HETATM   71  H   UNK N   1      33.074  11.788   4.470  0.00  0.00     0.157 HD
ENDBRANCH  62  69
ENDBRANCH  11  57
BRANCH  12  72
HETATM   72  O   UNK N   1      33.805  10.764  11.506  0.00  0.00    -0.388 OA
HETATM   73  H   UNK N   1      34.011   9.875  11.178  0.00  0.00     0.210 HD
ENDBRANCH  12  72
ENDBRANCH   7   8
ENDBRANCH   3   7
TORSDOF 34
ENDMDL
MODEL 9
REMARK VINA RESULT:      -6.3      3.889      6.374
REMARK WARNING: 32 MAX_TORS EXCEEDED!!!
REMARK  34 active torsions:
REMARK  status: ('A' for Active; 'I' for Inactive)
REMARK    1  A    between atoms: C_7  and  C_6 
REMARK    2  A    between atoms: C_18  and  C_6 
REMARK    3  A    between atoms: N_32  and  C_7 
REMARK    4  A    between atoms: C_9  and  C_8 
REMARK    5  A    between atoms: N_30  and  C_8 
REMARK    6  A    between atoms: S_63  and  C_9 
REMARK    7  A    between atoms: C_16  and  C_10 
REMARK    8  A    between atoms: C_19  and  C_10 
REMARK    9  A    between atoms: C_16  and  C_11 
REMARK   10  A    between atoms: N_41  and  C_11 
REMARK   11  A    between atoms: C_17  and  C_12 
REMARK   12  A    between atoms: O_55  and  C_12 
REMARK   13  A    between atoms: C_28  and  C_13 
REMARK   14  A    between atoms: O_56  and  C_13 
REMARK   15  A    between atoms: C_16  and  O_42 
REMARK   16  A    between atoms: N_30  and  C_18 
REMARK   17  A    between atoms: O_43  and  C_18 
REMARK   18  A    between atoms: S_63  and  C_19 
REMARK   19  A    between atoms: C_21  and  O_45 
REMARK   20  A    between atoms: C_22  and  O_58 
REMARK   21  A    between atoms: C_26  and  C_23 
REMARK   22  A    between atoms: C_28  and  C_23 
REMARK   23  A    between atoms: C_23  and  O_46 
REMARK   24  A    between atoms: N_29  and  C_24 
REMARK   25  A    between atoms: N_32  and  C_26 
REMARK   26  A    between atoms: O_47  and  C_26 
REMARK   27  A    between atoms: C_27  and  N_40 
REMARK   28  A    between atoms: P_60  and  O_49 
REMARK   29  A    between atoms: P_61  and  O_51 
REMARK   30  A    between atoms: P_61  and  O_55 
REMARK   31  A    between atoms: P_62  and  O_56 
REMARK   32  A    between atoms: P_60  and  O_58 
REMARK   33  A    between atoms: P_61  and  O_59 
REMARK   34  A    between atoms: P_62  and  O_59 
ROOT
HETATM    1  O   UNK N   1      34.401  17.933   6.657  0.00  0.00    -0.632 OA
HETATM    2  O   UNK N   1      35.309  18.483   9.062  0.00  0.00    -0.307 OA
HETATM    3  P   UNK N   1      33.983  17.836   8.146  0.00  0.00     0.391 P 
HETATM    4  H   UNK N   1      36.025  18.794   9.638  0.00  0.00     0.222 HD
ENDROOT
BRANCH   3   5
HETATM    5  O   UNK N   1      32.553  18.808   8.289  0.00  0.00    -0.307 OA
HETATM    6  H   UNK N   1      32.485  19.566   8.890  0.00  0.00     0.222 HD
ENDBRANCH   3   5
BRANCH   3   7
HETATM    7  O   UNK N   1      33.696  16.139   8.478  0.00  0.00    -0.286 OA
BRANCH   7   8
HETATM    8  C   UNK N   1      34.796  15.608   9.193  0.00  0.00     0.197 C 
HETATM    9  C   UNK N   1      35.050  14.125   8.907  0.00  0.00     0.180 C 
HETATM   10  O   UNK N   1      35.676  13.558  10.048  0.00  0.00    -0.353 OA
HETATM   11  C   UNK N   1      35.771  14.611  10.985  0.00  0.00     0.262 C 
HETATM   12  C   UNK N   1      34.606  15.548  10.687  0.00  0.00     0.199 C 
BRANCH   9  13
HETATM   13  C   UNK N   1      33.744  13.394   8.668  0.00  0.00     0.215 C 
BRANCH  13  14
HETATM   14  O   UNK N   1      33.904  12.503   7.616  0.00  0.00    -0.294 OA
BRANCH  14  15
HETATM   15  P   UNK N   1      33.012  13.086   6.255  0.00  0.00     0.402 P 
HETATM   16  O   UNK N   1      32.437  11.777   5.626  0.00  0.00    -0.631 OA
BRANCH  15  17
HETATM   17  O   UNK N   1      34.425  13.691   5.445  0.00  0.00    -0.307 OA
HETATM   18  H   UNK N   1      35.300  13.778   5.852  0.00  0.00     0.222 HD
ENDBRANCH  15  17
BRANCH  15  19
HETATM   19  O   UNK N   1      31.910  14.081   7.186  0.00  0.00    -0.188 OA
BRANCH  19  20
HETATM   20  P   UNK N   1      31.134  15.283   6.200  0.00  0.00     0.417 P 
HETATM   21  O   UNK N   1      29.936  14.626   5.456  0.00  0.00    -0.624 OA
HETATM   22  O   UNK N   1      32.230  15.926   5.022  0.00  0.00    -0.624 OA
BRANCH  20  23
HETATM   23  O   UNK N   1      30.546  16.554   7.261  0.00  0.00    -0.289 OA
BRANCH  23  24
HETATM   24  C   UNK N   1      29.748  17.383   6.470  0.00  0.00     0.193 C 
BRANCH  24  25
HETATM   25  C   UNK N   1      28.411  17.762   7.115  0.00  0.00     0.008 C 
HETATM   26  C   UNK N   1      27.390  16.692   6.762  0.00  0.00     0.020 C 
HETATM   27  C   UNK N   1      28.493  17.818   8.640  0.00  0.00     0.020 C 
BRANCH  25  28
HETATM   28  C   UNK N   1      27.958  19.132   6.541  0.00  0.00     0.202 C 
BRANCH  28  29
HETATM   29  C   UNK N   1      27.336  19.077   5.158  0.00  0.00     0.141 C 
BRANCH  29  30
HETATM   30  N   UNK N   1      26.067  19.248   4.992  0.00  0.00    -0.372 N 
ATOM     31  HN  UNK N   1      25.637  20.106   5.337  1.00  0.00     0.161 HD
BRANCH  30  32
HETATM   32  C   UNK N   1      25.239  18.269   4.336  0.00  0.00     0.129 C 
BRANCH  32  33
HETATM   33  C   UNK N   1      23.993  18.958   3.798  0.00  0.00     0.103 C 
BRANCH  33  34
HETATM   34  C   UNK N   1      22.806  18.644   4.643  0.00  0.00     0.112 C 
BRANCH  34  35
HETATM   35  N   UNK N   1      21.616  18.774   4.160  0.00  0.00    -0.374 N 
ATOM     36  HN  UNK N   1      20.985  19.449   4.589  1.00  0.00     0.161 HD
BRANCH  35  37
HETATM   37  C   UNK N   1      21.142  18.000   3.034  0.00  0.00     0.132 C 
BRANCH  37  38
HETATM   38  C   UNK N   1      20.375  16.770   3.495  0.00  0.00     0.102 C 
BRANCH  38  39
HETATM   39  S   UNK N   1      21.404  15.274   3.418  0.00  0.00    -0.091 SA
BRANCH  39  40
HETATM   40  C   UNK N   1      21.534  15.166   5.206  0.00  0.00     0.188 C 
HETATM   41  O   UNK N   1      21.030  16.035   5.896  0.00  0.00    -0.285 OA
BRANCH  40  42
HETATM   42  C   UNK N   1      22.288  14.044   5.861  0.00  0.00     0.124 C 
BRANCH  42  43
HETATM   43  C   UNK N   1      23.158  14.508   7.030  0.00  0.00     0.152 C 
BRANCH  43  44
HETATM   44  C   UNK N   1      24.039  13.360   7.551  0.00  0.00     0.268 C 
BRANCH  44  45
HETATM   45  N   UNK N   1      23.747  12.864   8.904  0.00  0.00    -0.076 N 
HETATM   46  C   UNK N   1      23.586  11.418   8.888  0.00  0.00     0.271 C 
HETATM   47  C   UNK N   1      24.891  13.168   9.742  0.00  0.00     0.271 C 
HETATM   48  C   UNK N   1      22.575  13.479   9.509  0.00  0.00     0.271 C 
ENDBRANCH  44  45
ENDBRANCH  43  44
BRANCH  43  49
HETATM   49  O   UNK N   1      23.932  15.614   6.664  0.00  0.00    -0.393 OA
HETATM   50  H   UNK N   1      24.624  15.664   5.987  0.00  0.00     0.210 HD
ENDBRANCH  43  49
ENDBRANCH  42  43
ENDBRANCH  40  42
ENDBRANCH  39  40
ENDBRANCH  38  39
ENDBRANCH  37  38
ENDBRANCH  35  37
ENDBRANCH  34  35
BRANCH  34  51
HETATM   51  O   UNK N   1      22.997  18.235   5.916  0.00  0.00    -0.350 OA
HETATM   52  H   UNK N   1      23.295  17.484   6.388  0.00  0.00     0.219 HD
ENDBRANCH  34  51
ENDBRANCH  33  34
ENDBRANCH  32  33
ENDBRANCH  30  32
ENDBRANCH  29  30
BRANCH  29  53
HETATM   53  O   UNK N   1      28.128  18.810   4.097  0.00  0.00    -0.348 OA
HETATM   54  H   UNK N   1      28.254  18.079   3.524  0.00  0.00     0.219 HD
ENDBRANCH  29  53
ENDBRANCH  28  29
BRANCH  28  55
HETATM   55  O   UNK N   1      27.048  19.735   7.416  0.00  0.00    -0.387 OA
HETATM   56  H   UNK N   1      26.155  19.373   7.528  0.00  0.00     0.210 HD
ENDBRANCH  28  55
ENDBRANCH  25  28
ENDBRANCH  24  25
ENDBRANCH  23  24
ENDBRANCH  20  23
ENDBRANCH  19  20
ENDBRANCH  15  19
ENDBRANCH  14  15
ENDBRANCH  13  14
ENDBRANCH   9  13
BRANCH  11  57
HETATM   57  N   UNK N   1      35.879  14.115  12.362  0.00  0.00    -0.297 N 
HETATM   58  C   UNK N   1      36.398  14.787  13.422  0.00  0.00     0.188 A 
HETATM   59  N   UNK N   1      36.154  14.134  14.594  0.00  0.00    -0.346 N 
HETATM   60  C   UNK N   1      35.471  13.037  14.227  0.00  0.00     0.122 A 
ATOM     61  HN  UNK N   1      36.428  14.414  15.536  1.00  0.00     0.167 HD
HETATM   62  C   UNK N   1      34.905  12.033  15.003  0.00  0.00     0.131 A 
HETATM   63  C   UNK N   1      35.318  13.014  12.888  0.00  0.00     0.142 A 
HETATM   64  N   UNK N   1      34.242  11.025  14.366  0.00  0.00    -0.337 N 
HETATM   65  C   UNK N   1      34.126  11.010  12.997  0.00  0.00     0.183 A 
ATOM     66  HN  UNK N   1      33.827  10.271  14.914  1.00  0.00     0.168 HD
HETATM   67  N   UNK N   1      34.651  12.028  12.249  0.00  0.00    -0.336 N 
ATOM     68  HN  UNK N   1      34.540  12.044  11.235  1.00  0.00     0.168 HD
BRANCH  62  69
HETATM   69  N   UNK N   1      34.976  12.071  16.410  0.00  0.00    -0.383 N 
HETATM   70  H   UNK N   1      34.658  12.859  16.907  0.00  0.00     0.157 HD
HETATM   71  H   UNK N   1      35.347  11.303  16.901  0.00  0.00     0.157 HD
ENDBRANCH  62  69
ENDBRANCH  11  57
BRANCH  12  72
HETATM   72  O   UNK N   1      34.769  16.802  11.272  0.00  0.00    -0.388 OA
HETATM   73  H   UNK N   1      35.148  16.908  12.158  0.00  0.00     0.210 HD
ENDBRANCH  12  72
ENDBRANCH   7   8
ENDBRANCH   3   7
TORSDOF 34
ENDMDL
