REMARK  13 active torsions:
REMARK  status: ('A' for Active; 'I' for Inactive)
REMARK    1  A    between atoms: C_6  and  C_1 
REMARK    2  A    between atoms: O_30  and  C_1 
REMARK    3  A    between atoms: C_5  and  C_2 
REMARK    4  A    between atoms: S_32  and  C_2 
REMARK    5  A    between atoms: C_12  and  C_5 
REMARK    6  A    between atoms: C_5  and  N_14 
REMARK    7  A    between atoms: C_8  and  O_25 
REMARK    8  A    between atoms: C_9  and  O_26 
REMARK    9  A    between atoms: N_15  and  C_10 
REMARK   10  A    between atoms: O_27  and  C_12 
REMARK   11  A    between atoms: C_13  and  N_24 
REMARK   12  A    between atoms: N_22  and  S_33 
REMARK   13  A    between atoms: S_33  and  O_30 
ROOT
HETATM    1  C   UNK N   1       0.012  -1.451   0.095  0.00  0.00     0.180 C 
HETATM    2  C   UNK N   1       1.382  -2.119   0.169  0.00  0.00     0.182 C 
HETATM    3  C   UNK N   1       2.208  -0.929  -0.227  0.00  0.00     0.198 C 
HETATM    4  C   UNK N   1       1.528   0.128   0.647  0.00  0.00     0.262 C 
HETATM    5  O   UNK N   1       0.141  -0.152   0.629  0.00  0.00    -0.353 OA
ENDROOT
BRANCH   1   6
HETATM    6  C   UNK N   1      -1.068  -2.227   0.838  0.00  0.00     0.226 C 
BRANCH   6   7
HETATM    7  O   UNK N   1      -1.097  -3.551   0.396  0.00  0.00    -0.257 OA
BRANCH   7   8
HETATM    8  S   UNK N   1      -2.312  -3.627  -0.816  0.00  0.00     0.363 S 
HETATM    9  O   UNK N   1      -2.150  -2.542  -1.895  0.00  0.00    -0.175 OA
HETATM   10  O   UNK N   1      -2.146  -4.942  -1.588  0.00  0.00    -0.175 OA
BRANCH   8  11
HETATM   11  N   UNK N   1      -3.948  -3.597  -0.197  0.00  0.00    -0.243 N 
HETATM   12  C   UNK N   1      -4.566  -2.502   0.085  0.00  0.00     0.150 C 
ATOM     13  HN  UNK N   1      -4.433  -4.483  -0.053  1.00  0.00     0.182 HD
BRANCH  12  14
HETATM   14  C   UNK N   1      -5.999  -2.546   0.528  0.00  0.00     0.159 C 
BRANCH  14  15
HETATM   15  C   UNK N   1      -6.832  -1.920  -0.586  0.00  0.00     0.103 C 
BRANCH  15  16
HETATM   16  S   UNK N   1      -8.620  -2.113  -0.317  0.00  0.00    -0.180 SA
HETATM   17  H   UNK N   1      -9.413  -1.027  -0.116  0.00  0.00     0.101 HD
ENDBRANCH  15  16
ENDBRANCH  14  15
BRANCH  14  18
HETATM   18  N   UNK N   1      -6.422  -3.923   0.748  0.00  0.00    -0.419 N 
HETATM   19  H   UNK N   1      -7.405  -4.149   0.902  0.00  0.00     0.150 HD
HETATM   20  H   UNK N   1      -5.727  -4.670   0.748  0.00  0.00     0.150 HD
ENDBRANCH  14  18
ENDBRANCH  12  14
BRANCH  12  21
HETATM   21  O   UNK N   1      -3.954  -1.307  -0.064  0.00  0.00    -0.347 OA
HETATM   22  H   UNK N   1      -3.024  -1.260  -0.167  0.00  0.00     0.219 HD
ENDBRANCH  12  21
ENDBRANCH   8  11
ENDBRANCH   7   8
ENDBRANCH   6   7
ENDBRANCH   1   6
BRANCH   2  23
HETATM   23  O   UNK N   1       1.670  -2.498   1.490  0.00  0.00    -0.390 OA
HETATM   24  H   UNK N   1       1.543  -2.801   2.402  0.00  0.00     0.210 HD
ENDBRANCH   2  23
BRANCH   3  25
HETATM   25  O   UNK N   1       3.566  -1.097   0.047  0.00  0.00    -0.388 OA
HETATM   26  H   UNK N   1       3.937  -1.973   0.238  0.00  0.00     0.210 HD
ENDBRANCH   3  25
BRANCH   4  27
HETATM   27  N   UNK N   1       1.777   1.504   0.218  0.00  0.00    -0.297 N 
HETATM   28  C   UNK N   1       0.844   2.399  -0.203  0.00  0.00     0.188 A 
HETATM   29  N   UNK N   1       1.395   3.625  -0.422  0.00  0.00    -0.346 N 
HETATM   30  C   UNK N   1       2.694   3.463  -0.117  0.00  0.00     0.122 A 
ATOM     31  HN  UNK N   1       0.928   4.472  -0.745  1.00  0.00     0.167 HD
HETATM   32  C   UNK N   1       3.722   4.389  -0.098  0.00  0.00     0.131 A 
HETATM   33  C   UNK N   1       2.926   2.188   0.252  0.00  0.00     0.142 A 
HETATM   34  N   UNK N   1       4.961   3.961   0.287  0.00  0.00    -0.337 N 
HETATM   35  C   UNK N   1       5.177   2.651   0.646  0.00  0.00     0.183 A 
ATOM     36  HN  UNK N   1       5.737   4.623   0.307  1.00  0.00     0.168 HD
HETATM   37  N   UNK N   1       4.146   1.750   0.642  0.00  0.00    -0.336 N 
ATOM     38  HN  UNK N   1       4.293   0.781   0.923  1.00  0.00     0.168 HD
BRANCH  32  39
HETATM   39  N   UNK N   1       3.496   5.740  -0.431  0.00  0.00    -0.383 N 
HETATM   40  H   UNK N   1       4.234   6.348  -0.663  0.00  0.00     0.157 HD
HETATM   41  H   UNK N   1       2.574   6.085  -0.431  0.00  0.00     0.157 HD
ENDBRANCH  32  39
ENDBRANCH   4  27
TORSDOF 13
