MODEL 1
REMARK VINA RESULT:      -8.3      0.000      0.000
REMARK  7 active torsions:
REMARK  status: ('A' for Active; 'I' for Inactive)
REMARK    1  A    between atoms: C_2  and  N_4 
REMARK    2  A    between atoms: C_2  and  C_5 
REMARK    3  A    between atoms: C_8  and  C_11 
REMARK       I    between atoms: C_14  and  N_15 
REMARK    4  A    between atoms: N_15  and  C_16 
REMARK    5  A    between atoms: C_19  and  C_20 
REMARK    6  A    between atoms: C_20  and  C_21 
REMARK    7  A    between atoms: C_21  and  N_22 
ROOT
HETATM    1  C   UNK N   1      25.314  18.642   4.422  0.00  0.00     0.082 A 
HETATM    2  N   UNK N   1      25.989  18.088   5.455  0.00  0.00    -0.189 N 
ATOM      3  HN  UNK N   1      25.542  17.329   5.970  1.00  0.00     0.184 HD
HETATM    4  C   UNK N   1      27.211  18.479   5.842  0.00  0.00     0.683 A 
HETATM    5  N   UNK N   1      27.795  17.769   6.918  0.00  0.00    -0.192 N 
HETATM    6  N   UNK N   1      27.838  19.489   5.185  0.00  0.00    -0.200 N 
ATOM      7  HN  UNK N   1      28.772  19.784   5.471  1.00  0.00     0.183 HD
HETATM    8  C   UNK N   1      27.213  20.111   4.140  0.00  0.00     0.132 A 
HETATM    9  C   UNK N   1      25.931  19.704   3.724  0.00  0.00     0.078 A 
HETATM   10 Cl   UNK N   1      25.190  20.532   2.360  0.00  0.00    -0.080 Cl
HETATM   11  H   UNK N   1      27.176  17.180   7.407  0.00  0.00     0.184 HD
ENDROOT
BRANCH   5  12
HETATM   12  C   UNK N   1      29.116  17.768   7.403  0.00  0.00     0.049 A 
HETATM   13  C   UNK N   1      30.068  17.080   6.647  0.00  0.00     0.030 A 
HETATM   14  C   UNK N   1      31.404  17.069   7.027  0.00  0.00     0.009 A 
HETATM   15  C   UNK N   1      31.801  17.755   8.172  0.00  0.00    -0.056 A 
HETATM   16  C   UNK N   1      30.855  18.450   8.942  0.00  0.00     0.009 A 
HETATM   17  C   UNK N   1      29.508  18.462   8.554  0.00  0.00     0.030 A 
BRANCH  15  18
HETATM   18  C   UNK N   1      33.226  17.718   8.580  0.00  0.00     0.068 C 
BRANCH  18  19
HETATM   19  C   UNK N   1      33.848  16.423   8.057  0.00  0.00     0.277 C 
BRANCH  19  20
HETATM   20  N   UNK N   1      34.581  15.693   9.091  0.00  0.00     0.092 N 
HETATM   21  C   UNK N   1      34.950  16.619  10.166  0.00  0.00     0.298 C 
HETATM   22  C   UNK N   1      35.595  15.834  11.306  0.00  0.00     0.198 C 
HETATM   23  O   UNK N   1      34.667  14.903  11.805  0.00  0.00    -0.388 OA
HETATM   24  C   UNK N   1      34.490  13.937  10.800  0.00  0.00     0.198 C 
HETATM   25  C   UNK N   1      33.780  14.572   9.604  0.00  0.00     0.298 C 
ENDBRANCH  19  20
ENDBRANCH  18  19
ENDBRANCH  15  18
ENDBRANCH   5  12
BRANCH   1  26
HETATM   26  C   UNK N   1      23.985  18.036   4.139  0.00  0.00    -0.007 A 
HETATM   27  C   UNK N   1      22.880  18.898   4.205  0.00  0.00     0.014 A 
HETATM   28  C   UNK N   1      21.594  18.451   3.964  0.00  0.00     0.010 A 
HETATM   29  C   UNK N   1      21.362  17.113   3.644  0.00  0.00    -0.031 A 
HETATM   30  C   UNK N   1      22.460  16.228   3.577  0.00  0.00     0.010 A 
HETATM   31  C   UNK N   1      23.766  16.687   3.826  0.00  0.00     0.014 A 
BRANCH  29  32
HETATM   32  C   UNK N   1      19.951  16.643   3.368  0.00  0.00     0.043 C 
HETATM   33  C   UNK N   1      19.299  16.169   4.652  0.00  0.00     0.043 C 
HETATM   34  C   UNK N   1      19.975  15.502   2.369  0.00  0.00     0.043 C 
BRANCH  32  35
HETATM   35  N   UNK N   1      19.137  17.717   2.812  0.00  0.00    -0.418 N 
HETATM   36  H   UNK N   1      19.574  18.586   2.509  0.00  0.00     0.151 HD
HETATM   37  H   UNK N   1      18.127  17.599   2.727  0.00  0.00     0.151 HD
ENDBRANCH  32  35
ENDBRANCH  29  32
ENDBRANCH   1  26
TORSDOF 7
ENDMDL
MODEL 2
REMARK VINA RESULT:      -8.2      8.803     13.953
REMARK  7 active torsions:
REMARK  status: ('A' for Active; 'I' for Inactive)
REMARK    1  A    between atoms: C_2  and  N_4 
REMARK    2  A    between atoms: C_2  and  C_5 
REMARK    3  A    between atoms: C_8  and  C_11 
REMARK       I    between atoms: C_14  and  N_15 
REMARK    4  A    between atoms: N_15  and  C_16 
REMARK    5  A    between atoms: C_19  and  C_20 
REMARK    6  A    between atoms: C_20  and  C_21 
REMARK    7  A    between atoms: C_21  and  N_22 
ROOT
HETATM    1  C   UNK N   1      36.059  13.708  12.092  0.00  0.00     0.082 A 
HETATM    2  N   UNK N   1      35.557  13.851  13.340  0.00  0.00    -0.189 N 
ATOM      3  HN  UNK N   1      34.842  14.563  13.492  1.00  0.00     0.184 HD
HETATM    4  C   UNK N   1      35.944  13.111  14.388  0.00  0.00     0.683 A 
HETATM    5  N   UNK N   1      35.290  13.361  15.619  0.00  0.00    -0.192 N 
HETATM    6  N   UNK N   1      36.896  12.156  14.229  0.00  0.00    -0.200 N 
ATOM      7  HN  UNK N   1      37.186  11.585  15.022  1.00  0.00     0.183 HD
HETATM    8  C   UNK N   1      37.465  11.962  13.000  0.00  0.00     0.132 A 
HETATM    9  C   UNK N   1      37.061  12.732  11.892  0.00  0.00     0.078 A 
HETATM   10 Cl   UNK N   1      37.817  12.421  10.335  0.00  0.00    -0.080 Cl
HETATM   11  H   UNK N   1      34.748  14.182  15.638  0.00  0.00     0.184 HD
ENDROOT
BRANCH   5  12
HETATM   12  C   UNK N   1      35.290  12.627  16.819  0.00  0.00     0.049 A 
HETATM   13  C   UNK N   1      35.250  13.358  18.009  0.00  0.00     0.030 A 
HETATM   14  C   UNK N   1      35.197  12.712  19.237  0.00  0.00     0.009 A 
HETATM   15  C   UNK N   1      35.180  11.321  19.286  0.00  0.00    -0.056 A 
HETATM   16  C   UNK N   1      35.221  10.573  18.098  0.00  0.00     0.009 A 
HETATM   17  C   UNK N   1      35.270  11.227  16.860  0.00  0.00     0.030 A 
BRANCH  15  18
HETATM   18  C   UNK N   1      35.147  10.643  20.604  0.00  0.00     0.068 C 
BRANCH  18  19
HETATM   19  C   UNK N   1      34.649   9.212  20.403  0.00  0.00     0.277 C 
BRANCH  19  20
HETATM   20  N   UNK N   1      33.275   9.024  20.868  0.00  0.00     0.092 N 
HETATM   21  C   UNK N   1      32.450   8.545  19.754  0.00  0.00     0.298 C 
HETATM   22  C   UNK N   1      31.050   8.220  20.269  0.00  0.00     0.198 C 
HETATM   23  O   UNK N   1      31.141   7.204  21.237  0.00  0.00    -0.388 OA
HETATM   24  C   UNK N   1      31.779   7.772  22.354  0.00  0.00     0.198 C 
HETATM   25  C   UNK N   1      33.232   8.089  22.002  0.00  0.00     0.298 C 
ENDBRANCH  19  20
ENDBRANCH  18  19
ENDBRANCH  15  18
ENDBRANCH   5  12
BRANCH   1  26
HETATM   26  C   UNK N   1      35.467  14.608  11.067  0.00  0.00    -0.007 A 
HETATM   27  C   UNK N   1      35.802  15.968  11.162  0.00  0.00     0.014 A 
HETATM   28  C   UNK N   1      35.312  16.901  10.267  0.00  0.00     0.010 A 
HETATM   29  C   UNK N   1      34.462  16.508   9.234  0.00  0.00    -0.031 A 
HETATM   30  C   UNK N   1      34.108  15.145   9.123  0.00  0.00     0.010 A 
HETATM   31  C   UNK N   1      34.607  14.199  10.038  0.00  0.00     0.014 A 
BRANCH  29  32
HETATM   32  C   UNK N   1      33.947  17.539   8.254  0.00  0.00     0.043 C 
HETATM   33  C   UNK N   1      32.469  17.788   8.488  0.00  0.00     0.043 C 
HETATM   34  C   UNK N   1      34.151  17.047   6.834  0.00  0.00     0.043 C 
BRANCH  32  35
HETATM   35  N   UNK N   1      34.652  18.805   8.403  0.00  0.00    -0.418 N 
HETATM   36  H   UNK N   1      34.751  19.231   9.324  0.00  0.00     0.151 HD
HETATM   37  H   UNK N   1      35.047  19.268   7.583  0.00  0.00     0.151 HD
ENDBRANCH  32  35
ENDBRANCH  29  32
ENDBRANCH   1  26
TORSDOF 7
ENDMDL
MODEL 3
REMARK VINA RESULT:      -8.2      8.835     14.139
REMARK  7 active torsions:
REMARK  status: ('A' for Active; 'I' for Inactive)
REMARK    1  A    between atoms: C_2  and  N_4 
REMARK    2  A    between atoms: C_2  and  C_5 
REMARK    3  A    between atoms: C_8  and  C_11 
REMARK       I    between atoms: C_14  and  N_15 
REMARK    4  A    between atoms: N_15  and  C_16 
REMARK    5  A    between atoms: C_19  and  C_20 
REMARK    6  A    between atoms: C_20  and  C_21 
REMARK    7  A    between atoms: C_21  and  N_22 
ROOT
HETATM    1  C   UNK N   1      36.017  13.733  12.239  0.00  0.00     0.082 A 
HETATM    2  N   UNK N   1      35.497  13.897  13.477  0.00  0.00    -0.189 N 
ATOM      3  HN  UNK N   1      34.772  14.603  13.604  1.00  0.00     0.184 HD
HETATM    4  C   UNK N   1      35.882  13.187  14.546  0.00  0.00     0.683 A 
HETATM    5  N   UNK N   1      35.210  13.455  15.763  0.00  0.00    -0.192 N 
HETATM    6  N   UNK N   1      36.848  12.241  14.420  0.00  0.00    -0.200 N 
ATOM      7  HN  UNK N   1      37.137  11.692  15.229  1.00  0.00     0.183 HD
HETATM    8  C   UNK N   1      37.434  12.028  13.202  0.00  0.00     0.132 A 
HETATM    9  C   UNK N   1      37.034  12.766  12.072  0.00  0.00     0.078 A 
HETATM   10 Cl   UNK N   1      37.813  12.431  10.532  0.00  0.00    -0.080 Cl
HETATM   11  H   UNK N   1      34.657  14.270  15.757  0.00  0.00     0.184 HD
ENDROOT
BRANCH   5  12
HETATM   12  C   UNK N   1      35.205  12.749  16.980  0.00  0.00     0.049 A 
HETATM   13  C   UNK N   1      35.220  11.354  16.903  0.00  0.00     0.030 A 
HETATM   14  C   UNK N   1      35.266  10.580  18.055  0.00  0.00     0.009 A 
HETATM   15  C   UNK N   1      35.301  11.199  19.302  0.00  0.00    -0.056 A 
HETATM   16  C   UNK N   1      35.285  12.600  19.394  0.00  0.00     0.009 A 
HETATM   17  C   UNK N   1      35.243  13.379  18.230  0.00  0.00     0.030 A 
BRANCH  15  18
HETATM   18  C   UNK N   1      35.327  10.362  20.525  0.00  0.00     0.068 C 
BRANCH  18  19
HETATM   19  C   UNK N   1      33.958   9.701  20.691  0.00  0.00     0.277 C 
BRANCH  19  20
HETATM   20  N   UNK N   1      33.610   9.474  22.093  0.00  0.00     0.092 N 
HETATM   21  C   UNK N   1      34.838   9.300  22.873  0.00  0.00     0.298 C 
HETATM   22  C   UNK N   1      34.482   9.197  24.355  0.00  0.00     0.198 C 
HETATM   23  O   UNK N   1      33.850  10.387  24.759  0.00  0.00    -0.388 OA
HETATM   24  C   UNK N   1      32.598  10.411  24.121  0.00  0.00     0.198 C 
HETATM   25  C   UNK N   1      32.799  10.584  22.615  0.00  0.00     0.298 C 
ENDBRANCH  19  20
ENDBRANCH  18  19
ENDBRANCH  15  18
ENDBRANCH   5  12
BRANCH   1  26
HETATM   26  C   UNK N   1      35.425  14.602  11.186  0.00  0.00    -0.007 A 
HETATM   27  C   UNK N   1      35.799  15.955  11.210  0.00  0.00     0.014 A 
HETATM   28  C   UNK N   1      35.313  16.859  10.284  0.00  0.00     0.010 A 
HETATM   29  C   UNK N   1      34.428  16.443   9.290  0.00  0.00    -0.031 A 
HETATM   30  C   UNK N   1      34.035  15.087   9.251  0.00  0.00     0.010 A 
HETATM   31  C   UNK N   1      34.530  14.171  10.196  0.00  0.00     0.014 A 
BRANCH  29  32
HETATM   32  C   UNK N   1      33.919  17.442   8.275  0.00  0.00     0.043 C 
HETATM   33  C   UNK N   1      32.437  17.690   8.487  0.00  0.00     0.043 C 
HETATM   34  C   UNK N   1      34.140  16.910   6.872  0.00  0.00     0.043 C 
BRANCH  32  35
HETATM   35  N   UNK N   1      34.616  18.716   8.394  0.00  0.00    -0.418 N 
HETATM   36  H   UNK N   1      34.142  19.584   8.145  0.00  0.00     0.151 HD
HETATM   37  H   UNK N   1      35.581  18.740   8.726  0.00  0.00     0.151 HD
ENDBRANCH  32  35
ENDBRANCH  29  32
ENDBRANCH   1  26
TORSDOF 7
ENDMDL
MODEL 4
REMARK VINA RESULT:      -8.0      7.815     14.586
REMARK  7 active torsions:
REMARK  status: ('A' for Active; 'I' for Inactive)
REMARK    1  A    between atoms: C_2  and  N_4 
REMARK    2  A    between atoms: C_2  and  C_5 
REMARK    3  A    between atoms: C_8  and  C_11 
REMARK       I    between atoms: C_14  and  N_15 
REMARK    4  A    between atoms: N_15  and  C_16 
REMARK    5  A    between atoms: C_19  and  C_20 
REMARK    6  A    between atoms: C_20  and  C_21 
REMARK    7  A    between atoms: C_21  and  N_22 
ROOT
HETATM    1  C   UNK N   1      36.242  12.314  14.360  0.00  0.00     0.082 A 
HETATM    2  N   UNK N   1      35.362  13.113  13.713  0.00  0.00    -0.189 N 
ATOM      3  HN  UNK N   1      34.561  13.467  14.236  1.00  0.00     0.184 HD
HETATM    4  C   UNK N   1      35.482  13.463  12.426  0.00  0.00     0.683 A 
HETATM    5  N   UNK N   1      34.495  14.338  11.910  0.00  0.00    -0.192 N 
HETATM    6  N   UNK N   1      36.532  13.008  11.694  0.00  0.00    -0.200 N 
ATOM      7  HN  UNK N   1      36.632  13.280  10.717  1.00  0.00     0.183 HD
HETATM    8  C   UNK N   1      37.456  12.182  12.273  0.00  0.00     0.132 A 
HETATM    9  C   UNK N   1      37.340  11.812  13.627  0.00  0.00     0.078 A 
HETATM   10 Cl   UNK N   1      38.572  10.762  14.317  0.00  0.00    -0.080 Cl
HETATM   11  H   UNK N   1      33.707  14.456  12.489  0.00  0.00     0.184 HD
ENDROOT
BRANCH   5  12
HETATM   12  C   UNK N   1      34.456  15.065  10.706  0.00  0.00     0.049 A 
HETATM   13  C   UNK N   1      33.798  14.469   9.627  0.00  0.00     0.030 A 
HETATM   14  C   UNK N   1      33.671  15.137   8.417  0.00  0.00     0.009 A 
HETATM   15  C   UNK N   1      34.200  16.417   8.276  0.00  0.00    -0.056 A 
HETATM   16  C   UNK N   1      34.865  17.027   9.351  0.00  0.00     0.009 A 
HETATM   17  C   UNK N   1      34.990  16.353  10.573  0.00  0.00     0.030 A 
BRANCH  15  18
HETATM   18  C   UNK N   1      34.078  17.111   6.972  0.00  0.00     0.068 C 
BRANCH  18  19
HETATM   19  C   UNK N   1      32.609  17.099   6.549  0.00  0.00     0.277 C 
BRANCH  19  20
HETATM   20  N   UNK N   1      32.403  16.472   5.244  0.00  0.00     0.092 N 
HETATM   21  C   UNK N   1      31.876  17.470   4.308  0.00  0.00     0.298 C 
HETATM   22  C   UNK N   1      31.789  16.853   2.913  0.00  0.00     0.198 C 
HETATM   23  O   UNK N   1      33.077  16.474   2.498  0.00  0.00    -0.388 OA
HETATM   24  C   UNK N   1      33.459  15.394   3.311  0.00  0.00     0.198 C 
HETATM   25  C   UNK N   1      33.655  15.883   4.746  0.00  0.00     0.298 C 
ENDBRANCH  19  20
ENDBRANCH  18  19
ENDBRANCH  15  18
ENDBRANCH   5  12
BRANCH   1  26
HETATM   26  C   UNK N   1      35.940  12.076  15.797  0.00  0.00    -0.007 A 
HETATM   27  C   UNK N   1      36.160  10.774  16.274  0.00  0.00     0.014 A 
HETATM   28  C   UNK N   1      35.914  10.431  17.590  0.00  0.00     0.010 A 
HETATM   29  C   UNK N   1      35.434  11.384  18.488  0.00  0.00    -0.031 A 
HETATM   30  C   UNK N   1      35.201  12.698  18.029  0.00  0.00     0.010 A 
HETATM   31  C   UNK N   1      35.451  13.042  16.688  0.00  0.00     0.014 A 
BRANCH  29  32
HETATM   32  C   UNK N   1      35.186  10.996  19.929  0.00  0.00     0.043 C 
HETATM   33  C   UNK N   1      36.493  10.622  20.601  0.00  0.00     0.043 C 
HETATM   34  C   UNK N   1      34.238   9.814  19.989  0.00  0.00     0.043 C 
BRANCH  32  35
HETATM   35  N   UNK N   1      34.589  12.096  20.676  0.00  0.00    -0.418 N 
HETATM   36  H   UNK N   1      35.039  13.011  20.687  0.00  0.00     0.151 HD
HETATM   37  H   UNK N   1      33.718  11.951  21.189  0.00  0.00     0.151 HD
ENDBRANCH  32  35
ENDBRANCH  29  32
ENDBRANCH   1  26
TORSDOF 7
ENDMDL
MODEL 5
REMARK VINA RESULT:      -7.7      8.184     13.621
REMARK  7 active torsions:
REMARK  status: ('A' for Active; 'I' for Inactive)
REMARK    1  A    between atoms: C_2  and  N_4 
REMARK    2  A    between atoms: C_2  and  C_5 
REMARK    3  A    between atoms: C_8  and  C_11 
REMARK       I    between atoms: C_14  and  N_15 
REMARK    4  A    between atoms: N_15  and  C_16 
REMARK    5  A    between atoms: C_19  and  C_20 
REMARK    6  A    between atoms: C_20  and  C_21 
REMARK    7  A    between atoms: C_21  and  N_22 
ROOT
HETATM    1  C   UNK N   1      35.966  14.014  12.119  0.00  0.00     0.082 A 
HETATM    2  N   UNK N   1      35.468  14.058  13.377  0.00  0.00    -0.189 N 
ATOM      3  HN  UNK N   1      34.683  14.682  13.561  1.00  0.00     0.184 HD
HETATM    4  C   UNK N   1      35.949  13.331  14.394  0.00  0.00     0.683 A 
HETATM    5  N   UNK N   1      35.289  13.466  15.640  0.00  0.00    -0.192 N 
HETATM    6  N   UNK N   1      36.997  12.492  14.191  0.00  0.00    -0.200 N 
ATOM      7  HN  UNK N   1      37.359  11.930  14.961  1.00  0.00     0.183 HD
HETATM    8  C   UNK N   1      37.566  12.403  12.951  0.00  0.00     0.132 A 
HETATM    9  C   UNK N   1      37.065  13.160  11.875  0.00  0.00     0.078 A 
HETATM   10 Cl   UNK N   1      37.829  12.987  10.300  0.00  0.00    -0.080 Cl
HETATM   11  H   UNK N   1      34.661  14.222  15.693  0.00  0.00     0.184 HD
ENDROOT
BRANCH   5  12
HETATM   12  C   UNK N   1      35.386  12.697  16.814  0.00  0.00     0.049 A 
HETATM   13  C   UNK N   1      35.246  13.373  18.028  0.00  0.00     0.030 A 
HETATM   14  C   UNK N   1      35.280  12.683  19.233  0.00  0.00     0.009 A 
HETATM   15  C   UNK N   1      35.450  11.302  19.233  0.00  0.00    -0.056 A 
HETATM   16  C   UNK N   1      35.592  10.609  18.020  0.00  0.00     0.009 A 
HETATM   17  C   UNK N   1      35.555  11.306  16.805  0.00  0.00     0.030 A 
BRANCH  15  18
HETATM   18  C   UNK N   1      35.507  10.579  20.526  0.00  0.00     0.068 C 
BRANCH  18  19
HETATM   19  C   UNK N   1      34.078  10.284  20.982  0.00  0.00     0.277 C 
BRANCH  19  20
HETATM   20  N   UNK N   1      33.746   8.861  20.908  0.00  0.00     0.092 N 
HETATM   21  C   UNK N   1      32.851   8.634  19.769  0.00  0.00     0.298 C 
HETATM   22  C   UNK N   1      32.613   7.134  19.609  0.00  0.00     0.198 C 
HETATM   23  O   UNK N   1      33.841   6.498  19.358  0.00  0.00    -0.388 OA
HETATM   24  C   UNK N   1      34.589   6.587  20.545  0.00  0.00     0.198 C 
HETATM   25  C   UNK N   1      34.965   8.047  20.799  0.00  0.00     0.298 C 
ENDBRANCH  19  20
ENDBRANCH  18  19
ENDBRANCH  15  18
ENDBRANCH   5  12
BRANCH   1  26
HETATM   26  C   UNK N   1      35.265  14.877  11.132  0.00  0.00    -0.007 A 
HETATM   27  C   UNK N   1      34.131  14.326  10.515  0.00  0.00     0.014 A 
HETATM   28  C   UNK N   1      33.397  15.032   9.580  0.00  0.00     0.010 A 
HETATM   29  C   UNK N   1      33.772  16.327   9.221  0.00  0.00    -0.031 A 
HETATM   30  C   UNK N   1      34.913  16.899   9.826  0.00  0.00     0.010 A 
HETATM   31  C   UNK N   1      35.658  16.176  10.776  0.00  0.00     0.014 A 
BRANCH  29  32
HETATM   32  C   UNK N   1      32.950  17.091   8.208  0.00  0.00     0.043 C 
HETATM   33  C   UNK N   1      32.288  16.128   7.241  0.00  0.00     0.043 C 
HETATM   34  C   UNK N   1      33.841  18.042   7.433  0.00  0.00     0.043 C 
BRANCH  32  35
HETATM   35  N   UNK N   1      31.906  17.873   8.858  0.00  0.00    -0.418 N 
HETATM   36  H   UNK N   1      31.159  18.290   8.304  0.00  0.00     0.151 HD
HETATM   37  H   UNK N   1      31.924  18.005   9.870  0.00  0.00     0.151 HD
ENDBRANCH  32  35
ENDBRANCH  29  32
ENDBRANCH   1  26
TORSDOF 7
ENDMDL
MODEL 6
REMARK VINA RESULT:      -7.5      8.615     13.784
REMARK  7 active torsions:
REMARK  status: ('A' for Active; 'I' for Inactive)
REMARK    1  A    between atoms: C_2  and  N_4 
REMARK    2  A    between atoms: C_2  and  C_5 
REMARK    3  A    between atoms: C_8  and  C_11 
REMARK       I    between atoms: C_14  and  N_15 
REMARK    4  A    between atoms: N_15  and  C_16 
REMARK    5  A    between atoms: C_19  and  C_20 
REMARK    6  A    between atoms: C_20  and  C_21 
REMARK    7  A    between atoms: C_21  and  N_22 
ROOT
HETATM    1  C   UNK N   1      35.925  13.797  11.973  0.00  0.00     0.082 A 
HETATM    2  N   UNK N   1      35.441  13.914  13.231  0.00  0.00    -0.189 N 
ATOM      3  HN  UNK N   1      34.718  14.613  13.404  1.00  0.00     0.184 HD
HETATM    4  C   UNK N   1      35.857  13.167  14.262  0.00  0.00     0.683 A 
HETATM    5  N   UNK N   1      35.220  13.389  15.507  0.00  0.00    -0.192 N 
HETATM    6  N   UNK N   1      36.821  12.228  14.073  0.00  0.00    -0.200 N 
ATOM      7  HN  UNK N   1      37.133  11.651  14.853  1.00  0.00     0.183 HD
HETATM    8  C   UNK N   1      37.372  12.060  12.833  0.00  0.00     0.132 A 
HETATM    9  C   UNK N   1      36.938  12.838  11.742  0.00  0.00     0.078 A 
HETATM   10 Cl   UNK N   1      37.673  12.561  10.169  0.00  0.00    -0.080 Cl
HETATM   11  H   UNK N   1      34.666  14.202  15.546  0.00  0.00     0.184 HD
ENDROOT
BRANCH   5  12
HETATM   12  C   UNK N   1      35.251  12.639  16.697  0.00  0.00     0.049 A 
HETATM   13  C   UNK N   1      35.240  13.354  17.897  0.00  0.00     0.030 A 
HETATM   14  C   UNK N   1      35.219  12.692  19.117  0.00  0.00     0.009 A 
HETATM   15  C   UNK N   1      35.206  11.300  19.147  0.00  0.00    -0.056 A 
HETATM   16  C   UNK N   1      35.218  10.569  17.949  0.00  0.00     0.009 A 
HETATM   17  C   UNK N   1      35.235  11.239  16.718  0.00  0.00     0.030 A 
BRANCH  15  18
HETATM   18  C   UNK N   1      35.207  10.605  20.456  0.00  0.00     0.068 C 
BRANCH  18  19
HETATM   19  C   UNK N   1      35.861   9.234  20.279  0.00  0.00     0.277 C 
BRANCH  19  20
HETATM   20  N   UNK N   1      37.087   9.089  21.063  0.00  0.00     0.092 N 
HETATM   21  C   UNK N   1      38.130   8.495  20.221  0.00  0.00     0.298 C 
HETATM   22  C   UNK N   1      39.446   8.468  20.997  0.00  0.00     0.198 C 
HETATM   23  O   UNK N   1      39.816   9.785  21.319  0.00  0.00    -0.388 OA
HETATM   24  C   UNK N   1      38.885  10.242  22.268  0.00  0.00     0.198 C 
HETATM   25  C   UNK N   1      37.514  10.386  21.606  0.00  0.00     0.298 C 
ENDBRANCH  19  20
ENDBRANCH  18  19
ENDBRANCH  15  18
ENDBRANCH   5  12
BRANCH   1  26
HETATM   26  C   UNK N   1      35.302  14.701  10.970  0.00  0.00    -0.007 A 
HETATM   27  C   UNK N   1      35.767  16.025  10.950  0.00  0.00     0.014 A 
HETATM   28  C   UNK N   1      35.263  16.959  10.063  0.00  0.00     0.010 A 
HETATM   29  C   UNK N   1      34.267  16.602   9.155  0.00  0.00    -0.031 A 
HETATM   30  C   UNK N   1      33.781  15.276   9.161  0.00  0.00     0.010 A 
HETATM   31  C   UNK N   1      34.295  14.330  10.067  0.00  0.00     0.014 A 
BRANCH  29  32
HETATM   32  C   UNK N   1      33.738  17.631   8.181  0.00  0.00     0.043 C 
HETATM   33  C   UNK N   1      32.261  17.872   8.429  0.00  0.00     0.043 C 
HETATM   34  C   UNK N   1      33.932  17.142   6.758  0.00  0.00     0.043 C 
BRANCH  32  35
HETATM   35  N   UNK N   1      34.437  18.902   8.325  0.00  0.00    -0.418 N 
HETATM   36  H   UNK N   1      35.455  18.923   8.373  0.00  0.00     0.151 HD
HETATM   37  H   UNK N   1      33.906  19.772   8.379  0.00  0.00     0.151 HD
ENDBRANCH  32  35
ENDBRANCH  29  32
ENDBRANCH   1  26
TORSDOF 7
ENDMDL
MODEL 7
REMARK VINA RESULT:      -7.3      7.458     14.606
REMARK  7 active torsions:
REMARK  status: ('A' for Active; 'I' for Inactive)
REMARK    1  A    between atoms: C_2  and  N_4 
REMARK    2  A    between atoms: C_2  and  C_5 
REMARK    3  A    between atoms: C_8  and  C_11 
REMARK       I    between atoms: C_14  and  N_15 
REMARK    4  A    between atoms: N_15  and  C_16 
REMARK    5  A    between atoms: C_19  and  C_20 
REMARK    6  A    between atoms: C_20  and  C_21 
REMARK    7  A    between atoms: C_21  and  N_22 
ROOT
HETATM    1  C   UNK N   1      35.966  13.718  15.235  0.00  0.00     0.082 A 
HETATM    2  N   UNK N   1      35.372  13.209  14.131  0.00  0.00    -0.189 N 
ATOM      3  HN  UNK N   1      34.831  12.349  14.229  1.00  0.00     0.184 HD
HETATM    4  C   UNK N   1      35.455  13.767  12.916  0.00  0.00     0.683 A 
HETATM    5  N   UNK N   1      34.742  13.128  11.872  0.00  0.00    -0.192 N 
HETATM    6  N   UNK N   1      36.169  14.909  12.742  0.00  0.00    -0.200 N 
ATOM      7  HN  UNK N   1      36.227  15.342  11.821  1.00  0.00     0.183 HD
HETATM    8  C   UNK N   1      36.812  15.477  13.807  0.00  0.00     0.132 A 
HETATM    9  C   UNK N   1      36.728  14.899  15.088  0.00  0.00     0.078 A 
HETATM   10 Cl   UNK N   1      37.563  15.688  16.421  0.00  0.00    -0.080 Cl
HETATM   11  H   UNK N   1      34.408  12.229  12.093  0.00  0.00     0.184 HD
ENDROOT
BRANCH   5  12
HETATM   12  C   UNK N   1      34.434  13.569  10.572  0.00  0.00     0.049 A 
HETATM   13  C   UNK N   1      34.816  12.739   9.515  0.00  0.00     0.030 A 
HETATM   14  C   UNK N   1      34.508  13.074   8.203  0.00  0.00     0.009 A 
HETATM   15  C   UNK N   1      33.807  14.247   7.936  0.00  0.00    -0.056 A 
HETATM   16  C   UNK N   1      33.418  15.091   8.989  0.00  0.00     0.009 A 
HETATM   17  C   UNK N   1      33.727  14.750  10.312  0.00  0.00     0.030 A 
BRANCH  15  18
HETATM   18  C   UNK N   1      33.505  14.606   6.530  0.00  0.00     0.068 C 
BRANCH  18  19
HETATM   19  C   UNK N   1      32.012  14.914   6.417  0.00  0.00     0.277 C 
BRANCH  19  20
HETATM   20  N   UNK N   1      31.722  15.930   5.405  0.00  0.00     0.092 N 
HETATM   21  C   UNK N   1      32.969  16.597   5.021  0.00  0.00     0.298 C 
HETATM   22  C   UNK N   1      32.688  17.562   3.871  0.00  0.00     0.198 C 
HETATM   23  O   UNK N   1      32.203  16.835   2.770  0.00  0.00    -0.388 OA
HETATM   24  C   UNK N   1      30.925  16.371   3.128  0.00  0.00     0.198 C 
HETATM   25  C   UNK N   1      31.057  15.329   4.239  0.00  0.00     0.298 C 
ENDBRANCH  19  20
ENDBRANCH  18  19
ENDBRANCH  15  18
ENDBRANCH   5  12
BRANCH   1  26
HETATM   26  C   UNK N   1      35.721  12.959  16.490  0.00  0.00    -0.007 A 
HETATM   27  C   UNK N   1      35.911  11.570  16.428  0.00  0.00     0.014 A 
HETATM   28  C   UNK N   1      35.712  10.759  17.530  0.00  0.00     0.010 A 
HETATM   29  C   UNK N   1      35.312  11.310  18.746  0.00  0.00    -0.031 A 
HETATM   30  C   UNK N   1      35.110  12.705  18.830  0.00  0.00     0.010 A 
HETATM   31  C   UNK N   1      35.311  13.526  17.706  0.00  0.00     0.014 A 
BRANCH  29  32
HETATM   32  C   UNK N   1      35.114  10.411  19.947  0.00  0.00     0.043 C 
HETATM   33  C   UNK N   1      36.447   9.845  20.399  0.00  0.00     0.043 C 
HETATM   34  C   UNK N   1      34.184   9.269  19.587  0.00  0.00     0.043 C 
BRANCH  32  35
HETATM   35  N   UNK N   1      34.527  11.142  21.062  0.00  0.00    -0.418 N 
HETATM   36  H   UNK N   1      33.591  11.535  20.980  0.00  0.00     0.151 HD
HETATM   37  H   UNK N   1      35.055  11.260  21.928  0.00  0.00     0.151 HD
ENDBRANCH  32  35
ENDBRANCH  29  32
ENDBRANCH   1  26
TORSDOF 7
ENDMDL
MODEL 8
REMARK VINA RESULT:      -7.2      7.378     12.682
REMARK  7 active torsions:
REMARK  status: ('A' for Active; 'I' for Inactive)
REMARK    1  A    between atoms: C_2  and  N_4 
REMARK    2  A    between atoms: C_2  and  C_5 
REMARK    3  A    between atoms: C_8  and  C_11 
REMARK       I    between atoms: C_14  and  N_15 
REMARK    4  A    between atoms: N_15  and  C_16 
REMARK    5  A    between atoms: C_19  and  C_20 
REMARK    6  A    between atoms: C_20  and  C_21 
REMARK    7  A    between atoms: C_21  and  N_22 
ROOT
HETATM    1  C   UNK N   1      35.481  14.081  10.682  0.00  0.00     0.082 A 
HETATM    2  N   UNK N   1      34.853  13.868  11.862  0.00  0.00    -0.189 N 
ATOM      3  HN  UNK N   1      33.898  14.209  11.966  1.00  0.00     0.184 HD
HETATM    4  C   UNK N   1      35.416  13.238  12.902  0.00  0.00     0.683 A 
HETATM    5  N   UNK N   1      34.609  13.063  14.052  0.00  0.00    -0.192 N 
HETATM    6  N   UNK N   1      36.688  12.773  12.805  0.00  0.00    -0.200 N 
ATOM      7  HN  UNK N   1      37.117  12.284  13.590  1.00  0.00     0.183 HD
HETATM    8  C   UNK N   1      37.395  12.964  11.649  0.00  0.00     0.132 A 
HETATM    9  C   UNK N   1      36.811  13.622  10.550  0.00  0.00     0.078 A 
HETATM   10 Cl   UNK N   1      37.765  13.819   9.086  0.00  0.00    -0.080 Cl
HETATM   11  H   UNK N   1      33.776  13.587  14.054  0.00  0.00     0.184 HD
ENDROOT
BRANCH   5  12
HETATM   12  C   UNK N   1      34.804  12.264  15.193  0.00  0.00     0.049 A 
HETATM   13  C   UNK N   1      35.241  12.909  16.352  0.00  0.00     0.030 A 
HETATM   14  C   UNK N   1      35.413  12.204  17.536  0.00  0.00     0.009 A 
HETATM   15  C   UNK N   1      35.142  10.839  17.572  0.00  0.00    -0.056 A 
HETATM   16  C   UNK N   1      34.703  10.177  16.414  0.00  0.00     0.009 A 
HETATM   17  C   UNK N   1      34.528  10.891  15.221  0.00  0.00     0.030 A 
BRANCH  15  18
HETATM   18  C   UNK N   1      35.351  10.093  18.835  0.00  0.00     0.068 C 
BRANCH  18  19
HETATM   19  C   UNK N   1      34.229   9.065  18.985  0.00  0.00     0.277 C 
BRANCH  19  20
HETATM   20  N   UNK N   1      33.833   8.862  20.378  0.00  0.00     0.092 N 
HETATM   21  C   UNK N   1      34.084  10.092  21.135  0.00  0.00     0.298 C 
HETATM   22  C   UNK N   1      33.547   9.926  22.555  0.00  0.00     0.198 C 
HETATM   23  O   UNK N   1      32.161   9.701  22.498  0.00  0.00    -0.388 OA
HETATM   24  C   UNK N   1      31.985   8.428  21.930  0.00  0.00     0.198 C 
HETATM   25  C   UNK N   1      32.422   8.461  20.465  0.00  0.00     0.298 C 
ENDBRANCH  19  20
ENDBRANCH  18  19
ENDBRANCH  15  18
ENDBRANCH   5  12
BRANCH   1  26
HETATM   26  C   UNK N   1      34.664  14.772   9.649  0.00  0.00    -0.007 A 
HETATM   27  C   UNK N   1      33.855  13.955   8.844  0.00  0.00     0.014 A 
HETATM   28  C   UNK N   1      33.053  14.483   7.848  0.00  0.00     0.010 A 
HETATM   29  C   UNK N   1      33.030  15.858   7.617  0.00  0.00    -0.031 A 
HETATM   30  C   UNK N   1      33.840  16.697   8.413  0.00  0.00     0.010 A 
HETATM   31  C   UNK N   1      34.656  16.156   9.423  0.00  0.00     0.014 A 
BRANCH  29  32
HETATM   32  C   UNK N   1      32.135  16.420   6.535  0.00  0.00     0.043 C 
HETATM   33  C   UNK N   1      32.903  17.419   5.691  0.00  0.00     0.043 C 
HETATM   34  C   UNK N   1      30.939  17.110   7.162  0.00  0.00     0.043 C 
BRANCH  32  35
HETATM   35  N   UNK N   1      31.643  15.366   5.657  0.00  0.00    -0.418 N 
HETATM   36  H   UNK N   1      31.256  14.509   6.053  0.00  0.00     0.151 HD
HETATM   37  H   UNK N   1      31.686  15.484   4.644  0.00  0.00     0.151 HD
ENDBRANCH  32  35
ENDBRANCH  29  32
ENDBRANCH   1  26
TORSDOF 7
ENDMDL
MODEL 9
REMARK VINA RESULT:      -7.1      6.291     14.252
REMARK  7 active torsions:
REMARK  status: ('A' for Active; 'I' for Inactive)
REMARK    1  A    between atoms: C_2  and  N_4 
REMARK    2  A    between atoms: C_2  and  C_5 
REMARK    3  A    between atoms: C_8  and  C_11 
REMARK       I    between atoms: C_14  and  N_15 
REMARK    4  A    between atoms: N_15  and  C_16 
REMARK    5  A    between atoms: C_19  and  C_20 
REMARK    6  A    between atoms: C_20  and  C_21 
REMARK    7  A    between atoms: C_21  and  N_22 
ROOT
HETATM    1  C   UNK N   1      35.776  13.424  14.267  0.00  0.00     0.082 A 
HETATM    2  N   UNK N   1      35.087  13.030  13.172  0.00  0.00    -0.189 N 
ATOM      3  HN  UNK N   1      34.601  12.133  13.206  1.00  0.00     0.184 HD
HETATM    4  C   UNK N   1      35.006  13.748  12.044  0.00  0.00     0.683 A 
HETATM    5  N   UNK N   1      34.212  13.211  11.002  0.00  0.00    -0.192 N 
HETATM    6  N   UNK N   1      35.643  14.945  11.956  0.00  0.00    -0.200 N 
ATOM      7  HN  UNK N   1      35.576  15.499  11.103  1.00  0.00     0.183 HD
HETATM    8  C   UNK N   1      36.374  15.405  13.016  0.00  0.00     0.132 A 
HETATM    9  C   UNK N   1      36.461  14.659  14.207  0.00  0.00     0.078 A 
HETATM   10 Cl   UNK N   1      37.402  15.314  15.541  0.00  0.00    -0.080 Cl
HETATM   11  H   UNK N   1      33.947  12.271  11.130  0.00  0.00     0.184 HD
ENDROOT
BRANCH   5  12
HETATM   12  C   UNK N   1      33.740  13.800   9.815  0.00  0.00     0.049 A 
HETATM   13  C   UNK N   1      34.015  13.129   8.621  0.00  0.00     0.030 A 
HETATM   14  C   UNK N   1      33.544  13.615   7.409  0.00  0.00     0.009 A 
HETATM   15  C   UNK N   1      32.786  14.782   7.381  0.00  0.00    -0.056 A 
HETATM   16  C   UNK N   1      32.502  15.468   8.573  0.00  0.00     0.009 A 
HETATM   17  C   UNK N   1      32.975  14.974   9.796  0.00  0.00     0.030 A 
BRANCH  15  18
HETATM   18  C   UNK N   1      32.308  15.304   6.078  0.00  0.00     0.068 C 
BRANCH  18  19
HETATM   19  C   UNK N   1      31.448  16.541   6.335  0.00  0.00     0.277 C 
BRANCH  19  20
HETATM   20  N   UNK N   1      30.720  16.978   5.143  0.00  0.00     0.092 N 
HETATM   21  C   UNK N   1      30.811  15.938   4.114  0.00  0.00     0.298 C 
HETATM   22  C   UNK N   1      29.941  16.334   2.923  0.00  0.00     0.198 C 
HETATM   23  O   UNK N   1      28.605  16.441   3.346  0.00  0.00    -0.388 OA
HETATM   24  C   UNK N   1      28.540  17.564   4.187  0.00  0.00     0.198 C 
HETATM   25  C   UNK N   1      29.320  17.283   5.471  0.00  0.00     0.298 C 
ENDBRANCH  19  20
ENDBRANCH  18  19
ENDBRANCH  15  18
ENDBRANCH   5  12
BRANCH   1  26
HETATM   26  C   UNK N   1      35.709  12.491  15.424  0.00  0.00    -0.007 A 
HETATM   27  C   UNK N   1      35.062  12.970  16.574  0.00  0.00     0.014 A 
HETATM   28  C   UNK N   1      34.939  12.196  17.713  0.00  0.00     0.010 A 
HETATM   29  C   UNK N   1      35.462  10.904  17.747  0.00  0.00    -0.031 A 
HETATM   30  C   UNK N   1      36.121  10.404  16.602  0.00  0.00     0.010 A 
HETATM   31  C   UNK N   1      36.246  11.196  15.446  0.00  0.00     0.014 A 
BRANCH  29  32
HETATM   32  C   UNK N   1      35.304  10.064  18.995  0.00  0.00     0.043 C 
HETATM   33  C   UNK N   1      34.187   9.055  18.807  0.00  0.00     0.043 C 
HETATM   34  C   UNK N   1      34.977  10.956  20.178  0.00  0.00     0.043 C 
BRANCH  32  35
HETATM   35  N   UNK N   1      36.529   9.336  19.300  0.00  0.00    -0.418 N 
HETATM   36  H   UNK N   1      37.309   9.813  19.752  0.00  0.00     0.151 HD
HETATM   37  H   UNK N   1      36.607   8.347  19.059  0.00  0.00     0.151 HD
ENDBRANCH  32  35
ENDBRANCH  29  32
ENDBRANCH   1  26
TORSDOF 7
ENDMDL
