REMARK  8 active torsions:
REMARK  status: ('A' for Active; 'I' for Inactive)
REMARK    1  A    between atoms: C_2  and  C_1 
REMARK    2  A    between atoms: O_7  and  C_1 
REMARK    3  A    between atoms: C_3  and  O_8 
REMARK    4  A    between atoms: C_4  and  O_9 
REMARK    5  A    between atoms: C_5  and  O_15 
REMARK    6  A    between atoms: C_6  and  O_10 
REMARK    7  A    between atoms: S_16  and  O_11 
REMARK    8  A    between atoms: S_16  and  O_15 
ROOT
HETATM    1  C   UNK N   1       2.025   0.531   0.049  0.00  0.00     0.181 C 
HETATM    2  C   UNK N   1      -0.405   0.525   0.696  0.00  0.00     0.184 C 
HETATM    3  C   UNK N   1      -0.579  -0.618  -0.310  0.00  0.00     0.204 C 
HETATM    4  C   UNK N   1       0.772   1.420   0.260  0.00  0.00     0.206 C 
HETATM    5  C   UNK N   1       0.748  -1.378  -0.445  0.00  0.00     0.288 C 
HETATM    6  O   UNK N   1       1.780  -0.503  -0.891  0.00  0.00    -0.349 OA
ENDROOT
BRANCH   4   7
HETATM    7  O   UNK N   1       0.462   2.094  -0.945  0.00  0.00    -0.253 OA
BRANCH   7   8
HETATM    8  S   UNK N   1      -0.166   3.695  -0.644  0.00  0.00     0.240 S 
HETATM    9  O   UNK N   1       0.834   4.730  -1.178  0.00  0.00    -0.579 OA
HETATM   10  O   UNK N   1      -0.273   4.024   0.856  0.00  0.00    -0.579 OA
BRANCH   8  11
HETATM   11  O   UNK N   1      -1.692   4.006  -1.364  0.00  0.00    -0.274 OA
HETATM   12  H   UNK N   1      -1.971   4.841  -1.772  0.00  0.00     0.234 HD
ENDBRANCH   8  11
ENDBRANCH   7   8
ENDBRANCH   4   7
BRANCH   1  13
HETATM   13  C   UNK N   1       3.199   1.362  -0.472  0.00  0.00     0.199 C 
BRANCH  13  14
HETATM   14  O   UNK N   1       3.557   2.355   0.442  0.00  0.00    -0.398 OA
HETATM   15  H   UNK N   1       4.279   2.485   1.076  0.00  0.00     0.209 HD
ENDBRANCH  13  14
ENDBRANCH   1  13
BRANCH   2  16
HETATM   16  O   UNK N   1      -1.583   1.268   0.797  0.00  0.00    -0.390 OA
HETATM   17  H   UNK N   1      -1.545   2.235   0.867  0.00  0.00     0.210 HD
ENDBRANCH   2  16
BRANCH   3  18
HETATM   18  O   UNK N   1      -1.591  -1.488   0.115  0.00  0.00    -0.388 OA
HETATM   19  H   UNK N   1      -2.463  -1.183   0.410  0.00  0.00     0.210 HD
ENDBRANCH   3  18
BRANCH   5  20
HETATM   20  O   UNK N   1       1.108  -2.007   0.753  0.00  0.00    -0.369 OA
HETATM   21  H   UNK N   1       0.855  -2.441   1.583  0.00  0.00     0.212 HD
ENDBRANCH   5  20
TORSDOF 8
