MODEL 1
REMARK VINA RESULT:      -7.7      0.000      0.000
REMARK  11 active torsions:
REMARK  status: ('A' for Active; 'I' for Inactive)
REMARK    1  A    between atoms: C_6  and  C_7 
REMARK    2  A    between atoms: C_7  and  O_8 
REMARK    3  A    between atoms: C_19  and  C_20 
REMARK    4  A    between atoms: C_20  and  C_21 
REMARK    5  A    between atoms: C_21  and  C_22 
REMARK    6  A    between atoms: C_22  and  O_23 
REMARK    7  A    between atoms: C_30  and  C_31 
REMARK    8  A    between atoms: C_37  and  C_38 
REMARK    9  A    between atoms: C_38  and  C_39 
REMARK   10  A    between atoms: C_39  and  C_40 
REMARK   11  A    between atoms: C_40  and  O_41 
ROOT
HETATM    1  C   UNK N   1      28.751   9.723   1.060  0.00  0.00     0.047 C 
HETATM    2  C   UNK N   1      29.239  11.002   1.656  0.00  0.00    -0.041 A 
HETATM    3  C   UNK N   1      28.441  11.981   2.051  0.00  0.00     0.062 A 
HETATM    4  C   UNK N   1      27.029  11.970   1.800  0.00  0.00     0.060 C 
HETATM    5  C   UNK N   1      26.196  12.955   2.032  0.00  0.00     0.052 C 
HETATM    6  C   UNK N   1      24.865  13.040   1.387  0.00  0.00     0.124 C 
HETATM    7  C   UNK N   1      24.369  14.333   1.932  0.00  0.00    -0.039 C 
HETATM    8  C   UNK N   1      23.052  14.958   1.632  0.00  0.00     0.047 C 
HETATM    9  C   UNK N   1      25.362  14.959   2.532  0.00  0.00     0.062 C 
HETATM   10  C   UNK N   1      25.258  16.309   2.975  0.00  0.00     0.064 C 
HETATM   11  C   UNK N   1      26.273  16.975   3.440  0.00  0.00     0.066 A 
HETATM   12  N   UNK N   1      27.564  16.559   3.486  0.00  0.00    -0.248 N 
HETATM   13  C   UNK N   1      28.233  17.561   4.058  0.00  0.00     0.066 A 
HETATM   14  C   UNK N   1      29.526  17.634   4.303  0.00  0.00     0.064 C 
HETATM   15  C   UNK N   1      30.482  16.636   3.946  0.00  0.00     0.066 C 
HETATM   16  C   UNK N   1      31.834  16.648   4.264  0.00  0.00    -0.021 C 
HETATM   17  C   UNK N   1      32.385  15.573   3.644  0.00  0.00    -0.025 C 
HETATM   18  C   UNK N   1      33.835  15.182   3.660  0.00  0.00     0.051 C 
HETATM   19  C   UNK N   1      31.343  14.878   3.096  0.00  0.00     0.066 C 
HETATM   20  C   UNK N   1      31.513  13.594   2.492  0.00  0.00     0.060 C 
HETATM   21  C   UNK N   1      30.508  12.775   2.283  0.00  0.00     0.049 A 
HETATM   22  C   UNK N   1      30.687  11.409   1.722  0.00  0.00     0.090 A 
HETATM   23  N   UNK N   1      29.150  13.085   2.456  0.00  0.00    -0.252 N 
HETATM   24 Fe   UNK N   1      28.344  14.819   2.969  0.00  0.00     0.000 Fe
HETATM   25  N   UNK N   1      26.515  14.164   2.611  0.00  0.00    -0.252 N 
HETATM   26  N   UNK N   1      30.173  15.497   3.335  0.00  0.00    -0.248 N 
HETATM   27  C   UNK N   1      27.388  18.543   4.418  0.00  0.00    -0.021 A 
HETATM   28  C   UNK N   1      26.141  18.216   3.994  0.00  0.00    -0.025 A 
HETATM   29  C   UNK N   1      24.895  19.042   4.127  0.00  0.00     0.051 C 
ENDROOT
BRANCH  16  30
HETATM   30  C   UNK N   1      32.596  17.510   5.209  0.00  0.00     0.052 C 
BRANCH  30  31
HETATM   31  C   UNK N   1      32.344  17.149   6.651  0.00  0.00     0.115 C 
BRANCH  31  32
HETATM   32  C   UNK N   1      33.541  17.608   7.376  0.00  0.00     0.139 C 
HETATM   33  O   UNK N   1      34.499  18.029   6.753  0.00  0.00    -0.650 OA
BRANCH  32  34
HETATM   34  O   UNK N   1      33.542  17.643   8.718  0.00  0.00    -0.776 OA
HETATM   35  H   UNK N   1      32.907  17.298   9.315  0.00  0.00     0.167 HD
ENDBRANCH  32  34
ENDBRANCH  31  32
ENDBRANCH  30  31
ENDBRANCH  16  30
BRANCH  27  36
HETATM   36  C   UNK N   1      27.823  19.670   5.187  0.00  0.00     0.052 C 
BRANCH  36  37
HETATM   37  C   UNK N   1      27.749  19.489   6.645  0.00  0.00     0.115 C 
BRANCH  37  38
HETATM   38  C   UNK N   1      27.006  20.719   6.888  0.00  0.00     0.139 C 
HETATM   39  O   UNK N   1      26.956  21.547   5.995  0.00  0.00    -0.650 OA
BRANCH  38  40
HETATM   40  O   UNK N   1      26.097  20.751   7.885  0.00  0.00    -0.776 OA
HETATM   41  H   UNK N   1      26.215  21.111   8.742  0.00  0.00     0.167 HD
ENDBRANCH  38  40
ENDBRANCH  37  38
ENDBRANCH  36  37
ENDBRANCH  27  36
BRANCH  22  42
HETATM   42  C   UNK N   1      31.452  10.537   2.641  0.00  0.00    -0.022 C 
HETATM   43  C   UNK N   1      32.455   9.809   2.170  0.00  0.00     0.008 C 
ENDBRANCH  22  42
BRANCH   6  44
HETATM   44  C   UNK N   1      24.050  11.837   1.168  0.00  0.00     0.048 C 
HETATM   45  C   UNK N   1      23.662  11.551  -0.072  0.00  0.00     0.047 C 
BRANCH  44  46
HETATM   46  O   UNK N   1      23.561  11.148   2.208  0.00  0.00    -0.365 OA
HETATM   47  H   UNK N   1      23.450  11.469   3.081  0.00  0.00     0.217 HD
ENDBRANCH  44  46
ENDBRANCH   6  44
TORSDOF 11
ENDMDL
MODEL 2
REMARK VINA RESULT:      -7.6      2.705      7.194
REMARK  11 active torsions:
REMARK  status: ('A' for Active; 'I' for Inactive)
REMARK    1  A    between atoms: C_6  and  C_7 
REMARK    2  A    between atoms: C_7  and  O_8 
REMARK    3  A    between atoms: C_19  and  C_20 
REMARK    4  A    between atoms: C_20  and  C_21 
REMARK    5  A    between atoms: C_21  and  C_22 
REMARK    6  A    between atoms: C_22  and  O_23 
REMARK    7  A    between atoms: C_30  and  C_31 
REMARK    8  A    between atoms: C_37  and  C_38 
REMARK    9  A    between atoms: C_38  and  C_39 
REMARK   10  A    between atoms: C_39  and  C_40 
REMARK   11  A    between atoms: C_40  and  O_41 
ROOT
HETATM    1  C   UNK N   1      23.736  10.388   0.435  0.00  0.00     0.047 C 
HETATM    2  C   UNK N   1      23.639  11.727   1.088  0.00  0.00    -0.041 A 
HETATM    3  C   UNK N   1      24.689  12.466   1.411  0.00  0.00     0.062 A 
HETATM    4  C   UNK N   1      26.034  11.977   1.304  0.00  0.00     0.060 C 
HETATM    5  C   UNK N   1      27.112  12.587   1.731  0.00  0.00     0.052 C 
HETATM    6  C   UNK N   1      28.390  11.874   1.964  0.00  0.00     0.124 C 
HETATM    7  C   UNK N   1      29.241  12.981   2.480  0.00  0.00    -0.039 C 
HETATM    8  C   UNK N   1      30.665  12.865   2.892  0.00  0.00     0.047 C 
HETATM    9  C   UNK N   1      28.481  14.026   2.739  0.00  0.00     0.062 C 
HETATM   10  C   UNK N   1      28.968  15.171   3.435  0.00  0.00     0.064 C 
HETATM   11  C   UNK N   1      28.192  16.142   3.816  0.00  0.00     0.066 A 
HETATM   12  N   UNK N   1      26.840  16.187   3.716  0.00  0.00    -0.248 N 
HETATM   13  C   UNK N   1      26.492  17.375   4.214  0.00  0.00     0.066 A 
HETATM   14  C   UNK N   1      25.279  17.872   4.348  0.00  0.00     0.064 C 
HETATM   15  C   UNK N   1      24.073  17.183   4.016  0.00  0.00     0.066 C 
HETATM   16  C   UNK N   1      22.790  17.711   4.069  0.00  0.00    -0.021 C 
HETATM   17  C   UNK N   1      21.942  16.692   3.774  0.00  0.00    -0.025 C 
HETATM   18  C   UNK N   1      20.443  16.762   3.742  0.00  0.00     0.051 C 
HETATM   19  C   UNK N   1      22.732  15.634   3.420  0.00  0.00     0.066 C 
HETATM   20  C   UNK N   1      22.194  14.421   2.890  0.00  0.00     0.060 C 
HETATM   21  C   UNK N   1      22.929  13.554   2.232  0.00  0.00     0.049 A 
HETATM   22  C   UNK N   1      22.361  12.325   1.614  0.00  0.00     0.090 A 
HETATM   23  N   UNK N   1      24.325  13.596   2.100  0.00  0.00    -0.252 N 
HETATM   24 Fe   UNK N   1      25.593  14.886   2.905  0.00  0.00     0.000 Fe
HETATM   25  N   UNK N   1      27.159  13.835   2.312  0.00  0.00    -0.252 N 
HETATM   26  N   UNK N   1      24.036  15.956   3.508  0.00  0.00    -0.248 N 
HETATM   27  C   UNK N   1      27.587  18.078   4.552  0.00  0.00    -0.021 A 
HETATM   28  C   UNK N   1      28.679  17.298   4.354  0.00  0.00    -0.025 A 
HETATM   29  C   UNK N   1      30.108  17.650   4.650  0.00  0.00     0.051 C 
ENDROOT
BRANCH  16  30
HETATM   30  C   UNK N   1      22.330  19.117   4.239  0.00  0.00     0.052 C 
BRANCH  30  31
HETATM   31  C   UNK N   1      22.242  19.858   2.928  0.00  0.00     0.115 C 
BRANCH  31  32
HETATM   32  C   UNK N   1      20.832  20.265   2.812  0.00  0.00     0.139 C 
HETATM   33  O   UNK N   1      20.256  20.729   3.780  0.00  0.00    -0.650 OA
BRANCH  32  34
HETATM   34  O   UNK N   1      20.211  20.207   1.624  0.00  0.00    -0.776 OA
HETATM   35  H   UNK N   1      19.367  19.855   1.418  0.00  0.00     0.167 HD
ENDBRANCH  32  34
ENDBRANCH  31  32
ENDBRANCH  30  31
ENDBRANCH  16  30
BRANCH  27  36
HETATM   36  C   UNK N   1      27.507  19.445   4.972  0.00  0.00     0.052 C 
BRANCH  36  37
HETATM   37  C   UNK N   1      27.762  19.669   6.403  0.00  0.00     0.115 C 
BRANCH  37  38
HETATM   38  C   UNK N   1      26.777  20.733   6.543  0.00  0.00     0.139 C 
HETATM   39  O   UNK N   1      26.357  21.266   5.531  0.00  0.00    -0.650 OA
BRANCH  38  40
HETATM   40  O   UNK N   1      26.078  20.833   7.694  0.00  0.00    -0.776 OA
HETATM   41  H   UNK N   1      26.212  21.457   8.380  0.00  0.00     0.167 HD
ENDBRANCH  38  40
ENDBRANCH  37  38
ENDBRANCH  36  37
ENDBRANCH  27  36
BRANCH  22  42
HETATM   42  C   UNK N   1      21.424  12.648   0.516  0.00  0.00    -0.022 C 
HETATM   43  C   UNK N   1      20.134  12.368   0.653  0.00  0.00     0.008 C 
ENDBRANCH  22  42
BRANCH   6  44
HETATM   44  C   UNK N   1      28.835  10.802   1.063  0.00  0.00     0.048 C 
HETATM   45  C   UNK N   1      29.369  11.139  -0.108  0.00  0.00     0.047 C 
BRANCH  44  46
HETATM   46  O   UNK N   1      28.547   9.523   1.335  0.00  0.00    -0.365 OA
HETATM   47  H   UNK N   1      29.166   8.839   1.501  0.00  0.00     0.217 HD
ENDBRANCH  44  46
ENDBRANCH   6  44
TORSDOF 11
ENDMDL
MODEL 3
REMARK VINA RESULT:      -7.4      1.972      7.204
REMARK  11 active torsions:
REMARK  status: ('A' for Active; 'I' for Inactive)
REMARK    1  A    between atoms: C_6  and  C_7 
REMARK    2  A    between atoms: C_7  and  O_8 
REMARK    3  A    between atoms: C_19  and  C_20 
REMARK    4  A    between atoms: C_20  and  C_21 
REMARK    5  A    between atoms: C_21  and  C_22 
REMARK    6  A    between atoms: C_22  and  O_23 
REMARK    7  A    between atoms: C_30  and  C_31 
REMARK    8  A    between atoms: C_37  and  C_38 
REMARK    9  A    between atoms: C_38  and  C_39 
REMARK   10  A    between atoms: C_39  and  C_40 
REMARK   11  A    between atoms: C_40  and  O_41 
ROOT
HETATM    1  C   UNK N   1      33.364  11.464   4.165  0.00  0.00     0.047 C 
HETATM    2  C   UNK N   1      32.027  12.047   3.847  0.00  0.00    -0.041 A 
HETATM    3  C   UNK N   1      31.639  13.252   4.232  0.00  0.00     0.062 A 
HETATM    4  C   UNK N   1      32.415  14.059   5.130  0.00  0.00     0.060 C 
HETATM    5  C   UNK N   1      32.041  15.194   5.667  0.00  0.00     0.052 C 
HETATM    6  C   UNK N   1      32.691  15.757   6.873  0.00  0.00     0.124 C 
HETATM    7  C   UNK N   1      31.876  16.983   7.088  0.00  0.00    -0.039 C 
HETATM    8  C   UNK N   1      32.067  17.976   8.179  0.00  0.00     0.047 C 
HETATM    9  C   UNK N   1      30.813  16.937   6.310  0.00  0.00     0.062 C 
HETATM   10  C   UNK N   1      29.737  17.863   6.432  0.00  0.00     0.064 C 
HETATM   11  C   UNK N   1      28.627  17.741   5.765  0.00  0.00     0.066 A 
HETATM   12  N   UNK N   1      28.276  16.709   4.958  0.00  0.00    -0.248 N 
HETATM   13  C   UNK N   1      27.072  17.032   4.483  0.00  0.00     0.066 A 
HETATM   14  C   UNK N   1      26.309  16.330   3.668  0.00  0.00     0.064 C 
HETATM   15  C   UNK N   1      26.627  15.031   3.168  0.00  0.00     0.066 C 
HETATM   16  C   UNK N   1      25.883  14.306   2.247  0.00  0.00    -0.021 C 
HETATM   17  C   UNK N   1      26.485  13.094   2.135  0.00  0.00    -0.025 C 
HETATM   18  C   UNK N   1      26.026  11.947   1.282  0.00  0.00     0.051 C 
HETATM   19  C   UNK N   1      27.633  13.173   2.873  0.00  0.00     0.066 C 
HETATM   20  C   UNK N   1      28.617  12.137   2.870  0.00  0.00     0.060 C 
HETATM   21  C   UNK N   1      29.850  12.336   3.275  0.00  0.00     0.049 A 
HETATM   22  C   UNK N   1      30.899  11.282   3.207  0.00  0.00     0.090 A 
HETATM   23  N   UNK N   1      30.328  13.495   3.905  0.00  0.00    -0.252 N 
HETATM   24 Fe   UNK N   1      29.311  15.108   4.439  0.00  0.00     0.000 Fe
HETATM   25  N   UNK N   1      30.855  15.851   5.424  0.00  0.00    -0.252 N 
HETATM   26  N   UNK N   1      27.750  14.381   3.454  0.00  0.00    -0.248 N 
HETATM   27  C   UNK N   1      26.708  18.250   4.921  0.00  0.00    -0.021 A 
HETATM   28  C   UNK N   1      27.659  18.702   5.776  0.00  0.00    -0.025 A 
HETATM   29  C   UNK N   1      27.642  19.991   6.547  0.00  0.00     0.051 C 
ENDROOT
BRANCH  16  30
HETATM   30  C   UNK N   1      24.747  14.724   1.379  0.00  0.00     0.052 C 
BRANCH  30  31
HETATM   31  C   UNK N   1      23.407  14.483   2.027  0.00  0.00     0.115 C 
BRANCH  31  32
HETATM   32  C   UNK N   1      22.490  14.189   0.913  0.00  0.00     0.139 C 
HETATM   33  O   UNK N   1      21.606  14.980   0.635  0.00  0.00    -0.650 OA
BRANCH  32  34
HETATM   34  O   UNK N   1      22.681  13.100   0.153  0.00  0.00    -0.776 OA
HETATM   35  H   UNK N   1      22.857  13.048  -0.766  0.00  0.00     0.167 HD
ENDBRANCH  32  34
ENDBRANCH  31  32
ENDBRANCH  30  31
ENDBRANCH  16  30
BRANCH  27  36
HETATM   36  C   UNK N   1      25.527  18.903   4.441  0.00  0.00     0.052 C 
BRANCH  36  37
HETATM   37  C   UNK N   1      25.764  19.947   3.432  0.00  0.00     0.115 C 
BRANCH  37  38
HETATM   38  C   UNK N   1      24.353  20.228   3.206  0.00  0.00     0.139 C 
HETATM   39  O   UNK N   1      24.052  20.953   2.274  0.00  0.00    -0.650 OA
BRANCH  38  40
HETATM   40  O   UNK N   1      23.426  19.407   3.745  0.00  0.00    -0.776 OA
HETATM   41  H   UNK N   1      23.481  18.960   4.566  0.00  0.00     0.167 HD
ENDBRANCH  38  40
ENDBRANCH  37  38
ENDBRANCH  36  37
ENDBRANCH  27  36
BRANCH  22  42
HETATM   42  C   UNK N   1      31.217  10.919   1.808  0.00  0.00    -0.022 C 
HETATM   43  C   UNK N   1      31.173   9.647   1.437  0.00  0.00     0.008 C 
ENDBRANCH  22  42
BRANCH   6  44
HETATM   44  C   UNK N   1      34.143  15.650   7.071  0.00  0.00     0.048 C 
HETATM   45  C   UNK N   1      34.593  14.922   8.089  0.00  0.00     0.047 C 
BRANCH  44  46
HETATM   46  O   UNK N   1      34.984  16.411   6.357  0.00  0.00    -0.365 OA
HETATM   47  H   UNK N   1      35.073  17.342   6.415  0.00  0.00     0.217 HD
ENDBRANCH  44  46
ENDBRANCH   6  44
TORSDOF 11
ENDMDL
MODEL 4
REMARK VINA RESULT:      -7.3      1.913      7.110
REMARK  11 active torsions:
REMARK  status: ('A' for Active; 'I' for Inactive)
REMARK    1  A    between atoms: C_6  and  C_7 
REMARK    2  A    between atoms: C_7  and  O_8 
REMARK    3  A    between atoms: C_19  and  C_20 
REMARK    4  A    between atoms: C_20  and  C_21 
REMARK    5  A    between atoms: C_21  and  C_22 
REMARK    6  A    between atoms: C_22  and  O_23 
REMARK    7  A    between atoms: C_30  and  C_31 
REMARK    8  A    between atoms: C_37  and  C_38 
REMARK    9  A    between atoms: C_38  and  C_39 
REMARK   10  A    between atoms: C_39  and  C_40 
REMARK   11  A    between atoms: C_40  and  O_41 
ROOT
HETATM    1  C   UNK N   1      31.788  10.746   1.590  0.00  0.00     0.047 C 
HETATM    2  C   UNK N   1      30.473  11.450   1.648  0.00  0.00    -0.041 A 
HETATM    3  C   UNK N   1      30.321  12.690   2.086  0.00  0.00     0.062 A 
HETATM    4  C   UNK N   1      31.391  13.426   2.696  0.00  0.00     0.060 C 
HETATM    5  C   UNK N   1      31.289  14.595   3.279  0.00  0.00     0.052 C 
HETATM    6  C   UNK N   1      32.306  15.103   4.228  0.00  0.00     0.124 C 
HETATM    7  C   UNK N   1      31.699  16.403   4.625  0.00  0.00    -0.039 C 
HETATM    8  C   UNK N   1      32.283  17.381   5.581  0.00  0.00     0.047 C 
HETATM    9  C   UNK N   1      30.457  16.451   4.186  0.00  0.00     0.062 C 
HETATM   10  C   UNK N   1      29.548  17.477   4.578  0.00  0.00     0.064 C 
HETATM   11  C   UNK N   1      28.287  17.455   4.261  0.00  0.00     0.066 A 
HETATM   12  N   UNK N   1      27.629  16.454   3.624  0.00  0.00    -0.248 N 
HETATM   13  C   UNK N   1      26.372  16.886   3.502  0.00  0.00     0.066 A 
HETATM   14  C   UNK N   1      25.348  16.254   2.964  0.00  0.00     0.064 C 
HETATM   15  C   UNK N   1      25.392  14.927   2.439  0.00  0.00     0.066 C 
HETATM   16  C   UNK N   1      24.354  14.269   1.794  0.00  0.00    -0.021 C 
HETATM   17  C   UNK N   1      24.788  13.005   1.556  0.00  0.00    -0.025 C 
HETATM   18  C   UNK N   1      24.003  11.899   0.910  0.00  0.00     0.051 C 
HETATM   19  C   UNK N   1      26.102  12.980   1.933  0.00  0.00     0.066 C 
HETATM   20  C   UNK N   1      26.948  11.855   1.684  0.00  0.00     0.060 C 
HETATM   21  C   UNK N   1      28.259  11.940   1.713  0.00  0.00     0.049 A 
HETATM   22  C   UNK N   1      29.145  10.791   1.384  0.00  0.00     0.090 A 
HETATM   23  N   UNK N   1      28.998  13.053   2.140  0.00  0.00    -0.252 N 
HETATM   24 Fe   UNK N   1      28.324  14.759   2.886  0.00  0.00     0.000 Fe
HETATM   25  N   UNK N   1      30.146  15.360   3.363  0.00  0.00    -0.252 N 
HETATM   26  N   UNK N   1      26.488  14.175   2.414  0.00  0.00    -0.248 N 
HETATM   27  C   UNK N   1      26.259  18.136   3.983  0.00  0.00    -0.021 A 
HETATM   28  C   UNK N   1      27.452  18.504   4.515  0.00  0.00    -0.025 A 
HETATM   29  C   UNK N   1      27.772  19.794   5.214  0.00  0.00     0.051 C 
ENDROOT
BRANCH  16  30
HETATM   30  C   UNK N   1      23.058  14.786   1.274  0.00  0.00     0.052 C 
BRANCH  30  31
HETATM   31  C   UNK N   1      21.985  14.826   2.333  0.00  0.00     0.115 C 
BRANCH  31  32
HETATM   32  C   UNK N   1      20.839  15.494   1.693  0.00  0.00     0.139 C 
HETATM   33  O   UNK N   1      20.926  15.865   0.536  0.00  0.00    -0.650 OA
BRANCH  32  34
HETATM   34  O   UNK N   1      19.677  15.615   2.354  0.00  0.00    -0.776 OA
HETATM   35  H   UNK N   1      19.431  16.252   2.996  0.00  0.00     0.167 HD
ENDBRANCH  32  34
ENDBRANCH  31  32
ENDBRANCH  30  31
ENDBRANCH  16  30
BRANCH  27  36
HETATM   36  C   UNK N   1      25.053  18.895   3.839  0.00  0.00     0.052 C 
BRANCH  36  37
HETATM   37  C   UNK N   1      25.141  20.026   2.903  0.00  0.00     0.115 C 
BRANCH  37  38
HETATM   38  C   UNK N   1      23.721  20.346   2.955  0.00  0.00     0.139 C 
HETATM   39  O   UNK N   1      22.959  19.513   3.416  0.00  0.00    -0.650 OA
BRANCH  38  40
HETATM   40  O   UNK N   1      23.336  21.637   2.875  0.00  0.00    -0.776 OA
HETATM   41  H   UNK N   1      22.460  21.958   2.788  0.00  0.00     0.167 HD
ENDBRANCH  38  40
ENDBRANCH  37  38
ENDBRANCH  36  37
ENDBRANCH  27  36
BRANCH  22  42
HETATM   42  C   UNK N   1      29.014  10.389  -0.034  0.00  0.00    -0.022 C 
HETATM   43  C   UNK N   1      29.578  11.129  -0.979  0.00  0.00     0.008 C 
ENDBRANCH  22  42
BRANCH   6  44
HETATM   44  C   UNK N   1      33.738  14.861   4.006  0.00  0.00     0.048 C 
HETATM   45  C   UNK N   1      34.226  15.020   2.779  0.00  0.00     0.047 C 
BRANCH  44  46
HETATM   46  O   UNK N   1      34.494  14.321   4.971  0.00  0.00    -0.365 OA
HETATM   47  H   UNK N   1      35.411  14.135   4.917  0.00  0.00     0.217 HD
ENDBRANCH  44  46
ENDBRANCH   6  44
TORSDOF 11
ENDMDL
MODEL 5
REMARK VINA RESULT:      -7.3      2.690      7.304
REMARK  11 active torsions:
REMARK  status: ('A' for Active; 'I' for Inactive)
REMARK    1  A    between atoms: C_6  and  C_7 
REMARK    2  A    between atoms: C_7  and  O_8 
REMARK    3  A    between atoms: C_19  and  C_20 
REMARK    4  A    between atoms: C_20  and  C_21 
REMARK    5  A    between atoms: C_21  and  C_22 
REMARK    6  A    between atoms: C_22  and  O_23 
REMARK    7  A    between atoms: C_30  and  C_31 
REMARK    8  A    between atoms: C_37  and  C_38 
REMARK    9  A    between atoms: C_38  and  C_39 
REMARK   10  A    between atoms: C_39  and  C_40 
REMARK   11  A    between atoms: C_40  and  O_41 
ROOT
HETATM    1  C   UNK N   1      33.111  14.721   6.760  0.00  0.00     0.047 C 
HETATM    2  C   UNK N   1      31.839  15.336   6.275  0.00  0.00    -0.041 A 
HETATM    3  C   UNK N   1      30.903  14.669   5.619  0.00  0.00     0.062 A 
HETATM    4  C   UNK N   1      31.091  13.318   5.173  0.00  0.00     0.060 C 
HETATM    5  C   UNK N   1      30.277  12.639   4.403  0.00  0.00     0.052 C 
HETATM    6  C   UNK N   1      30.707  11.434   3.656  0.00  0.00     0.124 C 
HETATM    7  C   UNK N   1      29.458  11.096   2.921  0.00  0.00    -0.039 C 
HETATM    8  C   UNK N   1      29.279   9.952   1.988  0.00  0.00     0.047 C 
HETATM    9  C   UNK N   1      28.606  12.095   3.036  0.00  0.00     0.062 C 
HETATM   10  C   UNK N   1      27.401  12.161   2.277  0.00  0.00     0.064 C 
HETATM   11  C   UNK N   1      26.626  13.206   2.282  0.00  0.00     0.066 A 
HETATM   12  N   UNK N   1      26.867  14.392   2.895  0.00  0.00    -0.248 N 
HETATM   13  C   UNK N   1      25.793  15.141   2.640  0.00  0.00     0.066 A 
HETATM   14  C   UNK N   1      25.569  16.386   3.011  0.00  0.00     0.064 C 
HETATM   15  C   UNK N   1      26.489  17.199   3.738  0.00  0.00     0.066 C 
HETATM   16  C   UNK N   1      26.248  18.482   4.213  0.00  0.00    -0.021 C 
HETATM   17  C   UNK N   1      27.416  18.920   4.748  0.00  0.00    -0.025 C 
HETATM   18  C   UNK N   1      27.666  20.270   5.356  0.00  0.00     0.051 C 
HETATM   19  C   UNK N   1      28.273  17.856   4.707  0.00  0.00     0.066 C 
HETATM   20  C   UNK N   1      29.560  17.885   5.330  0.00  0.00     0.060 C 
HETATM   21  C   UNK N   1      30.234  16.792   5.603  0.00  0.00     0.049 A 
HETATM   22  C   UNK N   1      31.540  16.811   6.315  0.00  0.00     0.090 A 
HETATM   23  N   UNK N   1      29.893  15.494   5.192  0.00  0.00    -0.252 N 
HETATM   24 Fe   UNK N   1      28.383  14.931   4.041  0.00  0.00     0.000 Fe
HETATM   25  N   UNK N   1      29.062  13.078   3.925  0.00  0.00    -0.252 N 
HETATM   26  N   UNK N   1      27.684  16.784   4.147  0.00  0.00    -0.248 N 
HETATM   27  C   UNK N   1      24.882  14.432   1.951  0.00  0.00    -0.021 A 
HETATM   28  C   UNK N   1      25.407  13.213   1.669  0.00  0.00    -0.025 A 
HETATM   29  C   UNK N   1      24.766  12.116   0.869  0.00  0.00     0.051 C 
ENDROOT
BRANCH  16  30
HETATM   30  C   UNK N   1      24.976  19.250   4.317  0.00  0.00     0.052 C 
BRANCH  30  31
HETATM   31  C   UNK N   1      24.731  20.125   3.114  0.00  0.00     0.115 C 
BRANCH  31  32
HETATM   32  C   UNK N   1      23.268  20.285   3.047  0.00  0.00     0.139 C 
HETATM   33  O   UNK N   1      22.545  19.364   3.385  0.00  0.00    -0.650 OA
BRANCH  32  34
HETATM   34  O   UNK N   1      22.736  21.466   2.699  0.00  0.00    -0.776 OA
HETATM   35  H   UNK N   1      21.833  21.696   2.595  0.00  0.00     0.167 HD
ENDBRANCH  32  34
ENDBRANCH  31  32
ENDBRANCH  30  31
ENDBRANCH  16  30
BRANCH  27  36
HETATM   36  C   UNK N   1      23.574  14.948   1.677  0.00  0.00     0.052 C 
BRANCH  36  37
HETATM   37  C   UNK N   1      22.480  14.264   2.384  0.00  0.00     0.115 C 
BRANCH  37  38
HETATM   38  C   UNK N   1      21.569  14.272   1.246  0.00  0.00     0.139 C 
HETATM   39  O   UNK N   1      21.284  15.346   0.744  0.00  0.00    -0.650 OA
BRANCH  38  40
HETATM   40  O   UNK N   1      21.385  13.133   0.546  0.00  0.00    -0.776 OA
HETATM   41  H   UNK N   1      21.889  12.834  -0.185  0.00  0.00     0.167 HD
ENDBRANCH  38  40
ENDBRANCH  37  38
ENDBRANCH  36  37
ENDBRANCH  27  36
BRANCH  22  42
HETATM   42  C   UNK N   1      31.396  17.295   7.706  0.00  0.00    -0.022 C 
HETATM   43  C   UNK N   1      32.371  18.008   8.255  0.00  0.00     0.008 C 
ENDBRANCH  22  42
BRANCH   6  44
HETATM   44  C   UNK N   1      31.637  10.465   4.251  0.00  0.00     0.048 C 
HETATM   45  C   UNK N   1      32.823  10.287   3.675  0.00  0.00     0.047 C 
BRANCH  44  46
HETATM   46  O   UNK N   1      31.235   9.653   5.238  0.00  0.00    -0.365 OA
HETATM   47  H   UNK N   1      30.963   8.762   5.144  0.00  0.00     0.217 HD
ENDBRANCH  44  46
ENDBRANCH   6  44
TORSDOF 11
ENDMDL
MODEL 6
REMARK VINA RESULT:      -7.2      3.330      7.520
REMARK  11 active torsions:
REMARK  status: ('A' for Active; 'I' for Inactive)
REMARK    1  A    between atoms: C_6  and  C_7 
REMARK    2  A    between atoms: C_7  and  O_8 
REMARK    3  A    between atoms: C_19  and  C_20 
REMARK    4  A    between atoms: C_20  and  C_21 
REMARK    5  A    between atoms: C_21  and  C_22 
REMARK    6  A    between atoms: C_22  and  O_23 
REMARK    7  A    between atoms: C_30  and  C_31 
REMARK    8  A    between atoms: C_37  and  C_38 
REMARK    9  A    between atoms: C_38  and  C_39 
REMARK   10  A    between atoms: C_39  and  C_40 
REMARK   11  A    between atoms: C_40  and  O_41 
ROOT
HETATM    1  C   UNK N   1      25.968   9.452   0.377  0.00  0.00     0.047 C 
HETATM    2  C   UNK N   1      25.203  10.629   0.887  0.00  0.00    -0.041 A 
HETATM    3  C   UNK N   1      25.768  11.760   1.278  0.00  0.00     0.062 A 
HETATM    4  C   UNK N   1      27.191  11.907   1.396  0.00  0.00     0.060 C 
HETATM    5  C   UNK N   1      27.820  12.937   1.906  0.00  0.00     0.052 C 
HETATM    6  C   UNK N   1      29.224  12.862   2.372  0.00  0.00     0.124 C 
HETATM    7  C   UNK N   1      29.424  14.242   2.893  0.00  0.00    -0.039 C 
HETATM    8  C   UNK N   1      30.674  14.771   3.500  0.00  0.00     0.047 C 
HETATM    9  C   UNK N   1      28.258  14.854   2.951  0.00  0.00     0.062 C 
HETATM   10  C   UNK N   1      28.089  16.113   3.598  0.00  0.00     0.064 C 
HETATM   11  C   UNK N   1      26.921  16.656   3.781  0.00  0.00     0.066 A 
HETATM   12  N   UNK N   1      25.716  16.102   3.498  0.00  0.00    -0.248 N 
HETATM   13  C   UNK N   1      24.818  17.030   3.834  0.00  0.00     0.066 A 
HETATM   14  C   UNK N   1      23.505  16.948   3.759  0.00  0.00     0.064 C 
HETATM   15  C   UNK N   1      22.781  15.794   3.333  0.00  0.00     0.066 C 
HETATM   16  C   UNK N   1      21.405  15.707   3.166  0.00  0.00    -0.021 C 
HETATM   17  C   UNK N   1      21.136  14.414   2.855  0.00  0.00    -0.025 C 
HETATM   18  C   UNK N   1      19.778  13.819   2.617  0.00  0.00     0.051 C 
HETATM   19  C   UNK N   1      22.348  13.800   2.709  0.00  0.00     0.066 C 
HETATM   20  C   UNK N   1      22.475  12.461   2.225  0.00  0.00     0.060 C 
HETATM   21  C   UNK N   1      23.605  11.987   1.753  0.00  0.00     0.049 A 
HETATM   22  C   UNK N   1      23.727  10.619   1.181  0.00  0.00     0.090 A 
HETATM   23  N   UNK N   1      24.850  12.634   1.805  0.00  0.00    -0.252 N 
HETATM   24 Fe   UNK N   1      25.296  14.367   2.651  0.00  0.00     0.000 Fe
HETATM   25  N   UNK N   1      27.233  14.094   2.371  0.00  0.00    -0.252 N 
HETATM   26  N   UNK N   1      23.355  14.662   2.940  0.00  0.00    -0.248 N 
HETATM   27  C   UNK N   1      25.436  18.149   4.250  0.00  0.00    -0.021 A 
HETATM   28  C   UNK N   1      26.773  17.921   4.271  0.00  0.00    -0.025 A 
HETATM   29  C   UNK N   1      27.845  18.871   4.722  0.00  0.00     0.051 C 
ENDROOT
BRANCH  16  30
HETATM   30  C   UNK N   1      20.367  16.774   3.144  0.00  0.00     0.052 C 
BRANCH  30  31
HETATM   31  C   UNK N   1      20.325  17.512   1.829  0.00  0.00     0.115 C 
BRANCH  31  32
HETATM   32  C   UNK N   1      20.432  18.937   2.185  0.00  0.00     0.139 C 
HETATM   33  O   UNK N   1      20.325  19.277   3.350  0.00  0.00    -0.650 OA
BRANCH  32  34
HETATM   34  O   UNK N   1      20.733  19.844   1.244  0.00  0.00    -0.776 OA
HETATM   35  H   UNK N   1      20.484  19.858   0.340  0.00  0.00     0.167 HD
ENDBRANCH  32  34
ENDBRANCH  31  32
ENDBRANCH  30  31
ENDBRANCH  16  30
BRANCH  27  36
HETATM   36  C   UNK N   1      24.711  19.352   4.528  0.00  0.00     0.052 C 
BRANCH  36  37
HETATM   37  C   UNK N   1      25.273  20.567   3.918  0.00  0.00     0.115 C 
BRANCH  37  38
HETATM   38  C   UNK N   1      24.348  20.584   2.792  0.00  0.00     0.139 C 
HETATM   39  O   UNK N   1      23.209  20.972   2.988  0.00  0.00    -0.650 OA
BRANCH  38  40
HETATM   40  O   UNK N   1      24.843  20.558   1.536  0.00  0.00    -0.776 OA
HETATM   41  H   UNK N   1      24.565  21.083   0.812  0.00  0.00     0.167 HD
ENDBRANCH  38  40
ENDBRANCH  37  38
ENDBRANCH  36  37
ENDBRANCH  27  36
BRANCH  22  42
HETATM   42  C   UNK N   1      22.930  10.473  -0.058  0.00  0.00    -0.022 C 
HETATM   43  C   UNK N   1      22.027   9.505  -0.145  0.00  0.00     0.008 C 
ENDBRANCH  22  42
BRANCH   6  44
HETATM   44  C   UNK N   1      30.224  12.072   1.640  0.00  0.00     0.048 C 
HETATM   45  C   UNK N   1      30.964  11.200   2.320  0.00  0.00     0.047 C 
BRANCH  44  46
HETATM   46  O   UNK N   1      30.508  12.350   0.361  0.00  0.00    -0.365 OA
HETATM   47  H   UNK N   1      30.426  11.763  -0.364  0.00  0.00     0.217 HD
ENDBRANCH  44  46
ENDBRANCH   6  44
TORSDOF 11
ENDMDL
MODEL 7
REMARK VINA RESULT:      -7.1      2.643      6.493
REMARK  11 active torsions:
REMARK  status: ('A' for Active; 'I' for Inactive)
REMARK    1  A    between atoms: C_6  and  C_7 
REMARK    2  A    between atoms: C_7  and  O_8 
REMARK    3  A    between atoms: C_19  and  C_20 
REMARK    4  A    between atoms: C_20  and  C_21 
REMARK    5  A    between atoms: C_21  and  C_22 
REMARK    6  A    between atoms: C_22  and  O_23 
REMARK    7  A    between atoms: C_30  and  C_31 
REMARK    8  A    between atoms: C_37  and  C_38 
REMARK    9  A    between atoms: C_38  and  C_39 
REMARK   10  A    between atoms: C_39  and  C_40 
REMARK   11  A    between atoms: C_40  and  O_41 
ROOT
HETATM    1  C   UNK N   1      24.863  10.215   0.487  0.00  0.00     0.047 C 
HETATM    2  C   UNK N   1      24.903  11.492   1.259  0.00  0.00    -0.041 A 
HETATM    3  C   UNK N   1      25.990  11.959   1.853  0.00  0.00     0.062 A 
HETATM    4  C   UNK N   1      27.203  11.197   1.943  0.00  0.00     0.060 C 
HETATM    5  C   UNK N   1      28.270  11.525   2.630  0.00  0.00     0.052 C 
HETATM    6  C   UNK N   1      29.304  10.536   3.013  0.00  0.00     0.124 C 
HETATM    7  C   UNK N   1      30.235  11.390   3.800  0.00  0.00    -0.039 C 
HETATM    8  C   UNK N   1      31.491  10.937   4.454  0.00  0.00     0.047 C 
HETATM    9  C   UNK N   1      29.661  12.554   4.032  0.00  0.00     0.062 C 
HETATM   10  C   UNK N   1      30.213  13.512   4.931  0.00  0.00     0.064 C 
HETATM   11  C   UNK N   1      29.585  14.599   5.270  0.00  0.00     0.066 A 
HETATM   12  N   UNK N   1      28.319  14.945   4.926  0.00  0.00    -0.248 N 
HETATM   13  C   UNK N   1      28.121  16.141   5.483  0.00  0.00     0.066 A 
HETATM   14  C   UNK N   1      27.030  16.879   5.445  0.00  0.00     0.064 C 
HETATM   15  C   UNK N   1      25.806  16.497   4.819  0.00  0.00     0.066 C 
HETATM   16  C   UNK N   1      24.671  17.286   4.692  0.00  0.00    -0.021 C 
HETATM   17  C   UNK N   1      23.716  16.501   4.131  0.00  0.00    -0.025 C 
HETATM   18  C   UNK N   1      22.299  16.898   3.829  0.00  0.00     0.051 C 
HETATM   19  C   UNK N   1      24.334  15.324   3.812  0.00  0.00     0.066 C 
HETATM   20  C   UNK N   1      23.686  14.299   3.056  0.00  0.00     0.060 C 
HETATM   21  C   UNK N   1      24.352  13.342   2.451  0.00  0.00     0.049 A 
HETATM   22  C   UNK N   1      23.690  12.314   1.603  0.00  0.00     0.090 A 
HETATM   23  N   UNK N   1      25.726  13.089   2.587  0.00  0.00    -0.252 N 
HETATM   24 Fe   UNK N   1      27.032  14.009   3.755  0.00  0.00     0.000 Fe
HETATM   25  N   UNK N   1      28.444  12.688   3.347  0.00  0.00    -0.252 N 
HETATM   26  N   UNK N   1      25.629  15.346   4.176  0.00  0.00    -0.248 N 
HETATM   27  C   UNK N   1      29.240  16.562   6.097  0.00  0.00    -0.021 A 
HETATM   28  C   UNK N   1      30.172  15.579   6.017  0.00  0.00    -0.025 A 
HETATM   29  C   UNK N   1      31.550  15.589   6.612  0.00  0.00     0.051 C 
ENDROOT
BRANCH  16  30
HETATM   30  C   UNK N   1      24.476  18.743   4.933  0.00  0.00     0.052 C 
BRANCH  30  31
HETATM   31  C   UNK N   1      25.315  19.596   4.017  0.00  0.00     0.115 C 
BRANCH  31  32
HETATM   32  C   UNK N   1      24.351  20.274   3.133  0.00  0.00     0.139 C 
HETATM   33  O   UNK N   1      23.169  20.288   3.429  0.00  0.00    -0.650 OA
BRANCH  32  34
HETATM   34  O   UNK N   1      24.783  20.945   2.055  0.00  0.00    -0.776 OA
HETATM   35  H   UNK N   1      24.282  21.393   1.401  0.00  0.00     0.167 HD
ENDBRANCH  32  34
ENDBRANCH  31  32
ENDBRANCH  30  31
ENDBRANCH  16  30
BRANCH  27  36
HETATM   36  C   UNK N   1      29.350  17.880   6.647  0.00  0.00     0.052 C 
BRANCH  36  37
HETATM   37  C   UNK N   1      29.538  17.927   8.105  0.00  0.00     0.115 C 
BRANCH  37  38
HETATM   38  C   UNK N   1      28.326  18.692   8.365  0.00  0.00     0.139 C 
HETATM   39  O   UNK N   1      27.971  19.511   7.534  0.00  0.00    -0.650 OA
BRANCH  38  40
HETATM   40  O   UNK N   1      27.440  18.229   9.272  0.00  0.00    -0.776 OA
HETATM   41  H   UNK N   1      26.533  18.044   9.128  0.00  0.00     0.167 HD
ENDBRANCH  38  40
ENDBRANCH  37  38
ENDBRANCH  36  37
ENDBRANCH  27  36
BRANCH  22  42
HETATM   42  C   UNK N   1      23.082  12.913   0.395  0.00  0.00    -0.022 C 
HETATM   43  C   UNK N   1      21.770  13.106   0.349  0.00  0.00     0.008 C 
ENDBRANCH  22  42
BRANCH   6  44
HETATM   44  C   UNK N   1      29.702   9.460   2.094  0.00  0.00     0.048 C 
HETATM   45  C   UNK N   1      29.437   8.203   2.437  0.00  0.00     0.047 C 
BRANCH  44  46
HETATM   46  O   UNK N   1      30.471   9.725   1.030  0.00  0.00    -0.365 OA
HETATM   47  H   UNK N   1      30.248   9.569   0.133  0.00  0.00     0.217 HD
ENDBRANCH  44  46
ENDBRANCH   6  44
TORSDOF 11
ENDMDL
MODEL 8
REMARK VINA RESULT:      -7.1      3.075      8.071
REMARK  11 active torsions:
REMARK  status: ('A' for Active; 'I' for Inactive)
REMARK    1  A    between atoms: C_6  and  C_7 
REMARK    2  A    between atoms: C_7  and  O_8 
REMARK    3  A    between atoms: C_19  and  C_20 
REMARK    4  A    between atoms: C_20  and  C_21 
REMARK    5  A    between atoms: C_21  and  C_22 
REMARK    6  A    between atoms: C_22  and  O_23 
REMARK    7  A    between atoms: C_30  and  C_31 
REMARK    8  A    between atoms: C_37  and  C_38 
REMARK    9  A    between atoms: C_38  and  C_39 
REMARK   10  A    between atoms: C_39  and  C_40 
REMARK   11  A    between atoms: C_40  and  O_41 
ROOT
HETATM    1  C   UNK N   1      30.627  12.658   2.344  0.00  0.00     0.047 C 
HETATM    2  C   UNK N   1      29.148  12.732   2.148  0.00  0.00    -0.041 A 
HETATM    3  C   UNK N   1      28.409  13.765   2.518  0.00  0.00     0.062 A 
HETATM    4  C   UNK N   1      28.939  14.853   3.289  0.00  0.00     0.060 C 
HETATM    5  C   UNK N   1      28.249  15.837   3.811  0.00  0.00     0.052 C 
HETATM    6  C   UNK N   1      28.770  16.679   4.913  0.00  0.00     0.124 C 
HETATM    7  C   UNK N   1      27.609  17.575   5.160  0.00  0.00    -0.039 C 
HETATM    8  C   UNK N   1      27.544  18.658   6.177  0.00  0.00     0.047 C 
HETATM    9  C   UNK N   1      26.561  17.114   4.505  0.00  0.00     0.062 C 
HETATM   10  C   UNK N   1      25.249  17.635   4.700  0.00  0.00     0.064 C 
HETATM   11  C   UNK N   1      24.194  17.096   4.164  0.00  0.00     0.066 A 
HETATM   12  N   UNK N   1      24.146  15.945   3.448  0.00  0.00    -0.248 N 
HETATM   13  C   UNK N   1      22.867  15.808   3.092  0.00  0.00     0.066 A 
HETATM   14  C   UNK N   1      22.322  14.830   2.398  0.00  0.00     0.064 C 
HETATM   15  C   UNK N   1      23.018  13.676   1.926  0.00  0.00     0.066 C 
HETATM   16  C   UNK N   1      22.488  12.674   1.125  0.00  0.00    -0.021 C 
HETATM   17  C   UNK N   1      23.454  11.728   1.003  0.00  0.00    -0.025 C 
HETATM   18  C   UNK N   1      23.341  10.429   0.258  0.00  0.00     0.051 C 
HETATM   19  C   UNK N   1      24.567  12.244   1.607  0.00  0.00     0.066 C 
HETATM   20  C   UNK N   1      25.841  11.600   1.544  0.00  0.00     0.060 C 
HETATM   21  C   UNK N   1      26.963  12.231   1.804  0.00  0.00     0.049 A 
HETATM   22  C   UNK N   1      28.297  11.587   1.670  0.00  0.00     0.090 A 
HETATM   23  N   UNK N   1      27.070  13.530   2.325  0.00  0.00    -0.252 N 
HETATM   24 Fe   UNK N   1      25.615  14.746   2.892  0.00  0.00     0.000 Fe
HETATM   25  N   UNK N   1      26.893  16.038   3.670  0.00  0.00    -0.252 N 
HETATM   26  N   UNK N   1      24.316  13.464   2.117  0.00  0.00    -0.248 N 
HETATM   27  C   UNK N   1      22.150  16.865   3.512  0.00  0.00    -0.021 A 
HETATM   28  C   UNK N   1      22.961  17.676   4.237  0.00  0.00    -0.025 A 
HETATM   29  C   UNK N   1      22.573  18.942   4.946  0.00  0.00     0.051 C 
ENDROOT
BRANCH  16  30
HETATM   30  C   UNK N   1      21.207  12.618   0.368  0.00  0.00     0.052 C 
BRANCH  30  31
HETATM   31  C   UNK N   1      20.028  12.300   1.252  0.00  0.00     0.115 C 
BRANCH  31  32
HETATM   32  C   UNK N   1      19.181  13.505   1.211  0.00  0.00     0.139 C 
HETATM   33  O   UNK N   1      18.776  13.921   0.140  0.00  0.00    -0.650 OA
BRANCH  32  34
HETATM   34  O   UNK N   1      18.787  14.089   2.353  0.00  0.00    -0.776 OA
HETATM   35  H   UNK N   1      19.019  13.872   3.234  0.00  0.00     0.167 HD
ENDBRANCH  32  34
ENDBRANCH  31  32
ENDBRANCH  30  31
ENDBRANCH  16  30
BRANCH  27  36
HETATM   36  C   UNK N   1      20.780  17.046   3.134  0.00  0.00     0.052 C 
BRANCH  36  37
HETATM   37  C   UNK N   1      20.566  17.962   2.003  0.00  0.00     0.115 C 
BRANCH  37  38
HETATM   38  C   UNK N   1      19.545  18.755   2.674  0.00  0.00     0.139 C 
HETATM   39  O   UNK N   1      19.890  19.776   3.244  0.00  0.00    -0.650 OA
BRANCH  38  40
HETATM   40  O   UNK N   1      18.250  18.581   2.332  0.00  0.00    -0.776 OA
HETATM   41  H   UNK N   1      17.860  17.804   1.986  0.00  0.00     0.167 HD
ENDBRANCH  38  40
ENDBRANCH  37  38
ENDBRANCH  36  37
ENDBRANCH  27  36
BRANCH  22  42
HETATM   42  C   UNK N   1      28.597  11.241   0.263  0.00  0.00    -0.022 C 
HETATM   43  C   UNK N   1      29.119  10.055  -0.023  0.00  0.00     0.008 C 
ENDBRANCH  22  42
BRANCH   6  44
HETATM   44  C   UNK N   1      30.183  17.080   4.956  0.00  0.00     0.048 C 
HETATM   45  C   UNK N   1      30.882  16.825   6.059  0.00  0.00     0.047 C 
BRANCH  44  46
HETATM   46  O   UNK N   1      30.704  17.842   3.985  0.00  0.00    -0.365 OA
HETATM   47  H   UNK N   1      31.038  17.540   3.164  0.00  0.00     0.217 HD
ENDBRANCH  44  46
ENDBRANCH   6  44
TORSDOF 11
ENDMDL
MODEL 9
REMARK VINA RESULT:      -7.0      1.396      6.260
REMARK  11 active torsions:
REMARK  status: ('A' for Active; 'I' for Inactive)
REMARK    1  A    between atoms: C_6  and  C_7 
REMARK    2  A    between atoms: C_7  and  O_8 
REMARK    3  A    between atoms: C_19  and  C_20 
REMARK    4  A    between atoms: C_20  and  C_21 
REMARK    5  A    between atoms: C_21  and  C_22 
REMARK    6  A    between atoms: C_22  and  O_23 
REMARK    7  A    between atoms: C_30  and  C_31 
REMARK    8  A    between atoms: C_37  and  C_38 
REMARK    9  A    between atoms: C_38  and  C_39 
REMARK   10  A    between atoms: C_39  and  C_40 
REMARK   11  A    between atoms: C_40  and  O_41 
ROOT
HETATM    1  C   UNK N   1      24.507  11.141   0.561  0.00  0.00     0.047 C 
HETATM    2  C   UNK N   1      25.114  12.332   1.226  0.00  0.00    -0.041 A 
HETATM    3  C   UNK N   1      26.410  12.462   1.462  0.00  0.00     0.062 A 
HETATM    4  C   UNK N   1      27.342  11.395   1.239  0.00  0.00     0.060 C 
HETATM    5  C   UNK N   1      28.609  11.394   1.575  0.00  0.00     0.052 C 
HETATM    6  C   UNK N   1      29.400  10.147   1.696  0.00  0.00     0.124 C 
HETATM    7  C   UNK N   1      30.713  10.686   2.141  0.00  0.00    -0.039 C 
HETATM    8  C   UNK N   1      31.932   9.884   2.431  0.00  0.00     0.047 C 
HETATM    9  C   UNK N   1      30.570  11.955   2.469  0.00  0.00     0.062 C 
HETATM   10  C   UNK N   1      31.596  12.695   3.125  0.00  0.00     0.064 C 
HETATM   11  C   UNK N   1      31.413  13.901   3.575  0.00  0.00     0.066 A 
HETATM   12  N   UNK N   1      30.246  14.592   3.590  0.00  0.00    -0.248 N 
HETATM   13  C   UNK N   1      30.550  15.778   4.121  0.00  0.00     0.066 A 
HETATM   14  C   UNK N   1      29.739  16.789   4.360  0.00  0.00     0.064 C 
HETATM   15  C   UNK N   1      28.330  16.778   4.128  0.00  0.00     0.066 C 
HETATM   16  C   UNK N   1      27.467  17.852   4.292  0.00  0.00    -0.021 C 
HETATM   17  C   UNK N   1      26.214  17.379   4.066  0.00  0.00    -0.025 C 
HETATM   18  C   UNK N   1      24.935  18.159   4.162  0.00  0.00     0.051 C 
HETATM   19  C   UNK N   1      26.370  16.088   3.643  0.00  0.00     0.066 C 
HETATM   20  C   UNK N   1      25.278  15.306   3.155  0.00  0.00     0.060 C 
HETATM   21  C   UNK N   1      25.455  14.223   2.433  0.00  0.00     0.049 A 
HETATM   22  C   UNK N   1      24.323  13.444   1.861  0.00  0.00     0.090 A 
HETATM   23  N   UNK N   1      26.686  13.597   2.183  0.00  0.00    -0.252 N 
HETATM   24 Fe   UNK N   1      28.473  14.085   2.883  0.00  0.00     0.000 Fe
HETATM   25  N   UNK N   1      29.292  12.440   2.155  0.00  0.00    -0.252 N 
HETATM   26  N   UNK N   1      27.670  15.742   3.621  0.00  0.00    -0.248 N 
HETATM   27  C   UNK N   1      31.869  15.855   4.368  0.00  0.00    -0.021 A 
HETATM   28  C   UNK N   1      32.434  14.657   4.074  0.00  0.00    -0.025 A 
HETATM   29  C   UNK N   1      33.874  14.269   4.249  0.00  0.00     0.051 C 
ENDROOT
BRANCH  16  30
HETATM   30  C   UNK N   1      27.753  19.298   4.507  0.00  0.00     0.052 C 
BRANCH  30  31
HETATM   31  C   UNK N   1      28.067  19.617   5.946  0.00  0.00     0.115 C 
BRANCH  31  32
HETATM   32  C   UNK N   1      27.131  20.692   6.314  0.00  0.00     0.139 C 
HETATM   33  O   UNK N   1      27.397  21.847   6.030  0.00  0.00    -0.650 OA
BRANCH  32  34
HETATM   34  O   UNK N   1      25.952  20.393   6.881  0.00  0.00    -0.776 OA
HETATM   35  H   UNK N   1      25.550  20.775   7.636  0.00  0.00     0.167 HD
ENDBRANCH  32  34
ENDBRANCH  31  32
ENDBRANCH  30  31
ENDBRANCH  16  30
BRANCH  27  36
HETATM   36  C   UNK N   1      32.487  17.074   4.798  0.00  0.00     0.052 C 
BRANCH  36  37
HETATM   37  C   UNK N   1      32.330  17.375   6.230  0.00  0.00     0.115 C 
BRANCH  37  38
HETATM   38  C   UNK N   1      33.712  17.070   6.576  0.00  0.00     0.139 C 
HETATM   39  O   UNK N   1      34.543  17.955   6.463  0.00  0.00    -0.650 OA
BRANCH  38  40
HETATM   40  O   UNK N   1      33.972  16.001   7.357  0.00  0.00    -0.776 OA
HETATM   41  H   UNK N   1      33.747  15.109   7.182  0.00  0.00     0.167 HD
ENDBRANCH  38  40
ENDBRANCH  37  38
ENDBRANCH  36  37
ENDBRANCH  27  36
BRANCH  22  42
HETATM   42  C   UNK N   1      23.580  14.226   0.849  0.00  0.00    -0.022 C 
HETATM   43  C   UNK N   1      22.254  14.193   0.840  0.00  0.00     0.008 C 
ENDBRANCH  22  42
BRANCH   6  44
HETATM   44  C   UNK N   1      29.208   9.034   0.756  0.00  0.00     0.048 C 
HETATM   45  C   UNK N   1      28.831   7.853   1.239  0.00  0.00     0.047 C 
BRANCH  44  46
HETATM   46  O   UNK N   1      29.576   9.155  -0.527  0.00  0.00    -0.365 OA
HETATM   47  H   UNK N   1      30.165   9.795  -0.875  0.00  0.00     0.217 HD
ENDBRANCH  44  46
ENDBRANCH   6  44
TORSDOF 11
ENDMDL
