MODEL 1
REMARK VINA RESULT:      -6.6      0.000      0.000
REMARK  13 active torsions:
REMARK  status: ('A' for Active; 'I' for Inactive)
REMARK    1  A    between atoms: C_3  and  C_2 
REMARK    2  A    between atoms: C_4  and  C_2 
REMARK    3  A    between atoms: C_5  and  C_3 
REMARK    4  A    between atoms: C_6  and  C_4 
REMARK    5  A    between atoms: C_9  and  C_5 
REMARK    6  A    between atoms: N_15  and  C_6 
REMARK    7  A    between atoms: C_8  and  C_7 
REMARK    8  A    between atoms: O_19  and  C_7 
REMARK    9  A    between atoms: C_9  and  O_20 
REMARK   10  A    between atoms: C_10  and  O_21 
REMARK   11  A    between atoms: C_13  and  N_17 
REMARK   12  A    between atoms: O_24  and  C_14 
REMARK   13  A    between atoms: O_25  and  C_14 
ROOT
HETATM    1  C   UNK N   1      20.786  19.721   1.908  0.00  0.00     0.179 C 
HETATM    2  C   UNK N   1      19.684  19.253   2.885  0.00  0.00     0.180 C 
HETATM    3  C   UNK N   1      20.186  18.027   3.658  0.00  0.00     0.182 C 
HETATM    4  C   UNK N   1      21.509  18.381   4.351  0.00  0.00     0.198 C 
HETATM    5  C   UNK N   1      22.516  18.936   3.308  0.00  0.00     0.254 C 
HETATM    6  O   UNK N   1      20.381  16.954   2.780  0.00  0.00    -0.390 OA
HETATM    7  O   UNK N   1      21.274  19.346   5.334  0.00  0.00    -0.389 OA
HETATM    8  O   UNK N   1      21.959  20.049   2.627  0.00  0.00    -0.354 OA
HETATM    9  H   UNK N   1      20.442  16.232   2.135  0.00  0.00     0.210 HD
HETATM   10  H   UNK N   1      21.109  20.041   5.992  0.00  0.00     0.210 HD
ENDROOT
BRANCH   2  11
HETATM   11  O   UNK N   1      18.507  18.932   2.204  0.00  0.00    -0.390 OA
HETATM   12  H   UNK N   1      17.626  19.273   2.424  0.00  0.00     0.210 HD
ENDBRANCH   2  11
BRANCH   1  13
HETATM   13  C   UNK N   1      20.365  20.995   1.173  0.00  0.00     0.198 C 
BRANCH  13  14
HETATM   14  O   UNK N   1      20.777  20.982  -0.159  0.00  0.00    -0.398 OA
HETATM   15  H   UNK N   1      20.201  20.875  -0.932  0.00  0.00     0.209 HD
ENDBRANCH  13  14
ENDBRANCH   1  13
BRANCH   5  16
HETATM   16  N   UNK N   1      23.712  19.427   3.963  0.00  0.00    -0.346 N 
HETATM   17  C   UNK N   1      24.601  20.198   3.442  0.00  0.00     0.113 C 
ATOM     18  HN  UNK N   1      23.864  19.134   4.929  1.00  0.00     0.164 HD
BRANCH  17  19
HETATM   19  C   UNK N   1      25.782  20.583   4.286  0.00  0.00     0.083 C 
BRANCH  19  20
HETATM   20  C   UNK N   1      27.113  20.173   3.684  0.00  0.00     0.008 C 
BRANCH  20  21
HETATM   21  C   UNK N   1      28.054  19.744   4.794  0.00  0.00     0.002 C 
BRANCH  21  22
HETATM   22  C   UNK N   1      28.188  18.234   4.808  0.00  0.00     0.020 C 
BRANCH  22  23
HETATM   23  C   UNK N   1      27.740  17.674   6.153  0.00  0.00     0.123 C 
BRANCH  23  24
HETATM   24  N   UNK N   1      28.642  17.876   7.282  0.00  0.00    -0.350 N 
HETATM   25  C   UNK N   1      28.446  18.585   8.349  0.00  0.00     0.257 C 
ATOM     26  HN  UNK N   1      29.542  17.399   7.224  1.00  0.00     0.163 HD
BRANCH  25  27
HETATM   27  O   UNK N   1      27.298  19.267   8.543  0.00  0.00    -0.327 OA
HETATM   28  H   UNK N   1      26.643  19.362   7.879  0.00  0.00     0.221 HD
ENDBRANCH  25  27
BRANCH  25  29
HETATM   29  O   UNK N   1      29.417  18.618   9.290  0.00  0.00    -0.322 OA
HETATM   30  C   UNK N   1      30.729  18.332   8.995  0.00  0.00     0.213 C 
ENDBRANCH  25  29
ENDBRANCH  23  24
ENDBRANCH  22  23
ENDBRANCH  21  22
ENDBRANCH  20  21
ENDBRANCH  19  20
ENDBRANCH  17  19
BRANCH  17  31
HETATM   31  O   UNK N   1      24.471  20.653   2.177  0.00  0.00    -0.350 OA
HETATM   32  H   UNK N   1      24.925  21.292   1.663  0.00  0.00     0.219 HD
ENDBRANCH  17  31
ENDBRANCH   5  16
TORSDOF 13
ENDMDL
MODEL 2
REMARK VINA RESULT:      -6.3      5.890     13.634
REMARK  13 active torsions:
REMARK  status: ('A' for Active; 'I' for Inactive)
REMARK    1  A    between atoms: C_3  and  C_2 
REMARK    2  A    between atoms: C_4  and  C_2 
REMARK    3  A    between atoms: C_5  and  C_3 
REMARK    4  A    between atoms: C_6  and  C_4 
REMARK    5  A    between atoms: C_9  and  C_5 
REMARK    6  A    between atoms: N_15  and  C_6 
REMARK    7  A    between atoms: C_8  and  C_7 
REMARK    8  A    between atoms: O_19  and  C_7 
REMARK    9  A    between atoms: C_9  and  O_20 
REMARK   10  A    between atoms: C_10  and  O_21 
REMARK   11  A    between atoms: C_13  and  N_17 
REMARK   12  A    between atoms: O_24  and  C_14 
REMARK   13  A    between atoms: O_25  and  C_14 
ROOT
HETATM    1  C   UNK N   1      37.115  14.666  10.266  0.00  0.00     0.179 C 
HETATM    2  C   UNK N   1      36.672  13.671  11.363  0.00  0.00     0.180 C 
HETATM    3  C   UNK N   1      35.791  14.406  12.381  0.00  0.00     0.182 C 
HETATM    4  C   UNK N   1      34.618  15.064  11.643  0.00  0.00     0.198 C 
HETATM    5  C   UNK N   1      35.157  15.963  10.498  0.00  0.00     0.254 C 
HETATM    6  O   UNK N   1      36.541  15.380  13.049  0.00  0.00    -0.390 OA
HETATM    7  O   UNK N   1      33.789  14.073  11.109  0.00  0.00    -0.389 OA
HETATM    8  O   UNK N   1      35.978  15.208   9.621  0.00  0.00    -0.354 OA
HETATM    9  H   UNK N   1      37.125  15.999  13.517  0.00  0.00     0.210 HD
HETATM   10  H   UNK N   1      33.237  13.381  10.713  0.00  0.00     0.210 HD
ENDROOT
BRANCH   2  11
HETATM   11  O   UNK N   1      37.775  13.109  12.011  0.00  0.00    -0.390 OA
HETATM   12  H   UNK N   1      38.079  13.348  12.901  0.00  0.00     0.210 HD
ENDBRANCH   2  11
BRANCH   1  13
HETATM   13  C   UNK N   1      37.927  13.961   9.179  0.00  0.00     0.198 C 
BRANCH  13  14
HETATM   14  O   UNK N   1      39.113  13.427   9.686  0.00  0.00    -0.398 OA
HETATM   15  H   UNK N   1      39.308  13.264  10.622  0.00  0.00     0.209 HD
ENDBRANCH  13  14
ENDBRANCH   1  13
BRANCH   5  16
HETATM   16  N   UNK N   1      34.066  16.467   9.686  0.00  0.00    -0.346 N 
HETATM   17  C   UNK N   1      34.090  17.525   8.956  0.00  0.00     0.113 C 
ATOM     18  HN  UNK N   1      33.197  15.932   9.696  1.00  0.00     0.164 HD
BRANCH  17  19
HETATM   19  C   UNK N   1      32.844  17.888   8.199  0.00  0.00     0.083 C 
BRANCH  19  20
HETATM   20  C   UNK N   1      32.878  17.465   6.743  0.00  0.00     0.008 C 
BRANCH  20  21
HETATM   21  C   UNK N   1      31.487  17.038   6.313  0.00  0.00     0.002 C 
BRANCH  21  22
HETATM   22  C   UNK N   1      30.580  16.922   7.522  0.00  0.00     0.020 C 
BRANCH  22  23
HETATM   23  C   UNK N   1      29.122  17.076   7.107  0.00  0.00     0.123 C 
BRANCH  23  24
HETATM   24  N   UNK N   1      28.694  18.405   6.688  0.00  0.00    -0.350 N 
HETATM   25  C   UNK N   1      28.005  19.276   7.357  0.00  0.00     0.257 C 
ATOM     26  HN  UNK N   1      28.971  18.686   5.747  1.00  0.00     0.163 HD
BRANCH  25  27
HETATM   27  O   UNK N   1      27.575  19.022   8.611  0.00  0.00    -0.327 OA
HETATM   28  H   UNK N   1      28.123  18.647   9.272  0.00  0.00     0.221 HD
ENDBRANCH  25  27
BRANCH  25  29
HETATM   29  O   UNK N   1      27.734  20.468   6.779  0.00  0.00    -0.322 OA
HETATM   30  C   UNK N   1      26.446  20.901   6.568  0.00  0.00     0.213 C 
ENDBRANCH  25  29
ENDBRANCH  23  24
ENDBRANCH  22  23
ENDBRANCH  21  22
ENDBRANCH  20  21
ENDBRANCH  19  20
ENDBRANCH  17  19
BRANCH  17  31
HETATM   31  O   UNK N   1      35.205  18.283   8.865  0.00  0.00    -0.350 OA
HETATM   32  H   UNK N   1      35.469  18.994   8.313  0.00  0.00     0.219 HD
ENDBRANCH  17  31
ENDBRANCH   5  16
TORSDOF 13
ENDMDL
MODEL 3
REMARK VINA RESULT:      -6.3      8.941     12.810
REMARK  13 active torsions:
REMARK  status: ('A' for Active; 'I' for Inactive)
REMARK    1  A    between atoms: C_3  and  C_2 
REMARK    2  A    between atoms: C_4  and  C_2 
REMARK    3  A    between atoms: C_5  and  C_3 
REMARK    4  A    between atoms: C_6  and  C_4 
REMARK    5  A    between atoms: C_9  and  C_5 
REMARK    6  A    between atoms: N_15  and  C_6 
REMARK    7  A    between atoms: C_8  and  C_7 
REMARK    8  A    between atoms: O_19  and  C_7 
REMARK    9  A    between atoms: C_9  and  O_20 
REMARK   10  A    between atoms: C_10  and  O_21 
REMARK   11  A    between atoms: C_13  and  N_17 
REMARK   12  A    between atoms: O_24  and  C_14 
REMARK   13  A    between atoms: O_25  and  C_14 
ROOT
HETATM    1  C   UNK N   1      35.867  14.317   8.683  0.00  0.00     0.179 C 
HETATM    2  C   UNK N   1      36.083  13.814  10.128  0.00  0.00     0.180 C 
HETATM    3  C   UNK N   1      36.080  15.015  11.083  0.00  0.00     0.182 C 
HETATM    4  C   UNK N   1      34.775  15.799  10.896  0.00  0.00     0.198 C 
HETATM    5  C   UNK N   1      34.597  16.172   9.400  0.00  0.00     0.254 C 
HETATM    6  O   UNK N   1      37.177  15.842  10.814  0.00  0.00    -0.390 OA
HETATM    7  O   UNK N   1      33.697  15.014  11.314  0.00  0.00    -0.389 OA
HETATM    8  O   UNK N   1      34.636  15.006   8.591  0.00  0.00    -0.354 OA
HETATM    9  H   UNK N   1      37.984  16.346  10.620  0.00  0.00     0.210 HD
HETATM   10  H   UNK N   1      32.950  14.451  11.575  0.00  0.00     0.210 HD
ENDROOT
BRANCH   2  11
HETATM   11  O   UNK N   1      37.288  13.118  10.248  0.00  0.00    -0.390 OA
HETATM   12  H   UNK N   1      37.390  12.159  10.144  0.00  0.00     0.210 HD
ENDBRANCH   2  11
BRANCH   1  13
HETATM   13  C   UNK N   1      35.777  13.147   7.702  0.00  0.00     0.198 C 
BRANCH  13  14
HETATM   14  O   UNK N   1      34.471  12.670   7.587  0.00  0.00    -0.398 OA
HETATM   15  H   UNK N   1      34.209  11.818   7.205  0.00  0.00     0.209 HD
ENDBRANCH  13  14
ENDBRANCH   1  13
BRANCH   5  16
HETATM   16  N   UNK N   1      33.296  16.770   9.173  0.00  0.00    -0.346 N 
HETATM   17  C   UNK N   1      33.036  17.738   8.366  0.00  0.00     0.113 C 
ATOM     18  HN  UNK N   1      32.512  16.389   9.704  1.00  0.00     0.164 HD
BRANCH  17  19
HETATM   19  C   UNK N   1      31.619  18.228   8.286  0.00  0.00     0.083 C 
BRANCH  19  20
HETATM   20  C   UNK N   1      30.600  17.211   8.764  0.00  0.00     0.008 C 
BRANCH  20  21
HETATM   21  C   UNK N   1      29.349  17.316   7.913  0.00  0.00     0.002 C 
BRANCH  21  22
HETATM   22  C   UNK N   1      29.713  17.269   6.442  0.00  0.00     0.020 C 
BRANCH  22  23
HETATM   23  C   UNK N   1      29.935  15.829   5.996  0.00  0.00     0.123 C 
BRANCH  23  24
HETATM   24  N   UNK N   1      31.271  15.485   5.524  0.00  0.00    -0.350 N 
HETATM   25  C   UNK N   1      32.197  14.826   6.147  0.00  0.00     0.257 C 
ATOM     26  HN  UNK N   1      31.507  15.804   4.585  1.00  0.00     0.163 HD
BRANCH  25  27
HETATM   27  O   UNK N   1      32.009  14.354   7.397  0.00  0.00    -0.327 OA
HETATM   28  H   UNK N   1      31.603  14.857   8.076  0.00  0.00     0.221 HD
ENDBRANCH  25  27
BRANCH  25  29
HETATM   29  O   UNK N   1      33.369  14.600   5.510  0.00  0.00    -0.322 OA
HETATM   30  C   UNK N   1      34.250  15.614   5.219  0.00  0.00     0.213 C 
ENDBRANCH  25  29
ENDBRANCH  23  24
ENDBRANCH  22  23
ENDBRANCH  21  22
ENDBRANCH  20  21
ENDBRANCH  19  20
ENDBRANCH  17  19
BRANCH  17  31
HETATM   31  O   UNK N   1      34.007  18.290   7.606  0.00  0.00    -0.350 OA
HETATM   32  H   UNK N   1      34.868  18.616   7.784  0.00  0.00     0.219 HD
ENDBRANCH  17  31
ENDBRANCH   5  16
TORSDOF 13
ENDMDL
MODEL 4
REMARK VINA RESULT:      -6.2      2.308      2.955
REMARK  13 active torsions:
REMARK  status: ('A' for Active; 'I' for Inactive)
REMARK    1  A    between atoms: C_3  and  C_2 
REMARK    2  A    between atoms: C_4  and  C_2 
REMARK    3  A    between atoms: C_5  and  C_3 
REMARK    4  A    between atoms: C_6  and  C_4 
REMARK    5  A    between atoms: C_9  and  C_5 
REMARK    6  A    between atoms: N_15  and  C_6 
REMARK    7  A    between atoms: C_8  and  C_7 
REMARK    8  A    between atoms: O_19  and  C_7 
REMARK    9  A    between atoms: C_9  and  O_20 
REMARK   10  A    between atoms: C_10  and  O_21 
REMARK   11  A    between atoms: C_13  and  N_17 
REMARK   12  A    between atoms: O_24  and  C_14 
REMARK   13  A    between atoms: O_25  and  C_14 
ROOT
HETATM    1  C   UNK N   1      20.789  19.708   1.919  0.00  0.00     0.179 C 
HETATM    2  C   UNK N   1      19.682  19.240   2.891  0.00  0.00     0.180 C 
HETATM    3  C   UNK N   1      20.177  18.011   3.663  0.00  0.00     0.182 C 
HETATM    4  C   UNK N   1      21.498  18.358   4.361  0.00  0.00     0.198 C 
HETATM    5  C   UNK N   1      22.511  18.913   3.323  0.00  0.00     0.254 C 
HETATM    6  O   UNK N   1      20.371  16.940   2.783  0.00  0.00    -0.390 OA
HETATM    7  O   UNK N   1      21.263  19.322   5.346  0.00  0.00    -0.389 OA
HETATM    8  O   UNK N   1      21.961  20.029   2.643  0.00  0.00    -0.354 OA
HETATM    9  H   UNK N   1      20.431  16.219   2.136  0.00  0.00     0.210 HD
HETATM   10  H   UNK N   1      21.099  20.016   6.005  0.00  0.00     0.210 HD
ENDROOT
BRANCH   2  11
HETATM   11  O   UNK N   1      18.505  18.925   2.206  0.00  0.00    -0.390 OA
HETATM   12  H   UNK N   1      17.826  19.565   1.943  0.00  0.00     0.210 HD
ENDBRANCH   2  11
BRANCH   1  13
HETATM   13  C   UNK N   1      20.374  20.984   1.186  0.00  0.00     0.198 C 
BRANCH  13  14
HETATM   14  O   UNK N   1      20.772  20.963  -0.151  0.00  0.00    -0.398 OA
HETATM   15  H   UNK N   1      20.253  21.288  -0.903  0.00  0.00     0.209 HD
ENDBRANCH  13  14
ENDBRANCH   1  13
BRANCH   5  16
HETATM   16  N   UNK N   1      23.707  19.398   3.984  0.00  0.00    -0.346 N 
HETATM   17  C   UNK N   1      24.599  20.168   3.468  0.00  0.00     0.113 C 
ATOM     18  HN  UNK N   1      23.855  19.100   4.949  1.00  0.00     0.164 HD
BRANCH  17  19
HETATM   19  C   UNK N   1      25.779  20.547   4.316  0.00  0.00     0.083 C 
BRANCH  19  20
HETATM   20  C   UNK N   1      27.111  20.145   3.712  0.00  0.00     0.008 C 
BRANCH  20  21
HETATM   21  C   UNK N   1      28.100  19.855   4.825  0.00  0.00     0.002 C 
BRANCH  21  22
HETATM   22  C   UNK N   1      27.691  18.601   5.573  0.00  0.00     0.020 C 
BRANCH  22  23
HETATM   23  C   UNK N   1      28.811  17.569   5.529  0.00  0.00     0.123 C 
BRANCH  23  24
HETATM   24  N   UNK N   1      28.584  16.386   4.707  0.00  0.00    -0.350 N 
HETATM   25  C   UNK N   1      28.969  16.170   3.488  0.00  0.00     0.257 C 
ATOM     26  HN  UNK N   1      28.055  15.633   5.146  1.00  0.00     0.163 HD
BRANCH  25  27
HETATM   27  O   UNK N   1      29.672  17.091   2.796  0.00  0.00    -0.327 OA
HETATM   28  H   UNK N   1      29.368  17.966   2.656  0.00  0.00     0.221 HD
ENDBRANCH  25  27
BRANCH  25  29
HETATM   29  O   UNK N   1      28.664  14.983   2.915  0.00  0.00    -0.322 OA
HETATM   30  C   UNK N   1      27.656  14.857   1.989  0.00  0.00     0.213 C 
ENDBRANCH  25  29
ENDBRANCH  23  24
ENDBRANCH  22  23
ENDBRANCH  21  22
ENDBRANCH  20  21
ENDBRANCH  19  20
ENDBRANCH  17  19
BRANCH  17  31
HETATM   31  O   UNK N   1      24.474  20.629   2.204  0.00  0.00    -0.350 OA
HETATM   32  H   UNK N   1      24.133  21.417   1.827  0.00  0.00     0.219 HD
ENDBRANCH  17  31
ENDBRANCH   5  16
TORSDOF 13
ENDMDL
MODEL 5
REMARK VINA RESULT:      -6.0     12.836     15.478
REMARK  13 active torsions:
REMARK  status: ('A' for Active; 'I' for Inactive)
REMARK    1  A    between atoms: C_3  and  C_2 
REMARK    2  A    between atoms: C_4  and  C_2 
REMARK    3  A    between atoms: C_5  and  C_3 
REMARK    4  A    between atoms: C_6  and  C_4 
REMARK    5  A    between atoms: C_9  and  C_5 
REMARK    6  A    between atoms: N_15  and  C_6 
REMARK    7  A    between atoms: C_8  and  C_7 
REMARK    8  A    between atoms: O_19  and  C_7 
REMARK    9  A    between atoms: C_9  and  O_20 
REMARK   10  A    between atoms: C_10  and  O_21 
REMARK   11  A    between atoms: C_13  and  N_17 
REMARK   12  A    between atoms: O_24  and  C_14 
REMARK   13  A    between atoms: O_25  and  C_14 
ROOT
HETATM    1  C   UNK N   1      34.192  14.223   9.773  0.00  0.00     0.179 C 
HETATM    2  C   UNK N   1      34.950  15.224   8.872  0.00  0.00     0.180 C 
HETATM    3  C   UNK N   1      35.205  16.516   9.659  0.00  0.00     0.182 C 
HETATM    4  C   UNK N   1      35.951  16.172  10.954  0.00  0.00     0.198 C 
HETATM    5  C   UNK N   1      35.166  15.088  11.741  0.00  0.00     0.254 C 
HETATM    6  O   UNK N   1      33.989  17.140   9.960  0.00  0.00    -0.390 OA
HETATM    7  O   UNK N   1      37.226  15.692  10.642  0.00  0.00    -0.389 OA
HETATM    8  O   UNK N   1      34.956  13.943  10.930  0.00  0.00    -0.354 OA
HETATM    9  H   UNK N   1      33.121  17.554  10.090  0.00  0.00     0.210 HD
HETATM   10  H   UNK N   1      38.098  15.329  10.418  0.00  0.00     0.210 HD
ENDROOT
BRANCH   2  11
HETATM   11  O   UNK N   1      34.225  15.512   7.713  0.00  0.00    -0.390 OA
HETATM   12  H   UNK N   1      33.279  15.723   7.687  0.00  0.00     0.210 HD
ENDBRANCH   2  11
BRANCH   1  13
HETATM   13  C   UNK N   1      33.990  12.886   9.060  0.00  0.00     0.198 C 
BRANCH  13  14
HETATM   14  O   UNK N   1      33.440  11.926   9.910  0.00  0.00    -0.398 OA
HETATM   15  H   UNK N   1      33.108  11.054   9.644  0.00  0.00     0.209 HD
ENDBRANCH  13  14
ENDBRANCH   1  13
BRANCH   5  16
HETATM   16  N   UNK N   1      35.931  14.631  12.885  0.00  0.00    -0.346 N 
HETATM   17  C   UNK N   1      35.584  13.707  13.709  0.00  0.00     0.113 C 
ATOM     18  HN  UNK N   1      36.829  15.086  13.052  1.00  0.00     0.164 HD
BRANCH  17  19
HETATM   19  C   UNK N   1      36.513  13.391  14.846  0.00  0.00     0.083 C 
BRANCH  19  20
HETATM   20  C   UNK N   1      35.820  13.330  16.194  0.00  0.00     0.008 C 
BRANCH  20  21
HETATM   21  C   UNK N   1      35.366  11.907  16.461  0.00  0.00     0.002 C 
BRANCH  21  22
HETATM   22  C   UNK N   1      36.299  10.926  15.778  0.00  0.00     0.020 C 
BRANCH  22  23
HETATM   23  C   UNK N   1      35.510   9.985  14.875  0.00  0.00     0.123 C 
BRANCH  23  24
HETATM   24  N   UNK N   1      35.801  10.047  13.447  0.00  0.00    -0.350 N 
HETATM   25  C   UNK N   1      34.974  10.234  12.467  0.00  0.00     0.257 C 
ATOM     26  HN  UNK N   1      36.780   9.928  13.187  1.00  0.00     0.163 HD
BRANCH  25  27
HETATM   27  O   UNK N   1      33.652  10.400  12.681  0.00  0.00    -0.327 OA
HETATM   28  H   UNK N   1      33.282  10.502  13.536  0.00  0.00     0.221 HD
ENDBRANCH  25  27
BRANCH  25  29
HETATM   29  O   UNK N   1      35.464  10.277  11.207  0.00  0.00    -0.322 OA
HETATM   30  C   UNK N   1      36.700  10.808  10.923  0.00  0.00     0.213 C 
ENDBRANCH  25  29
ENDBRANCH  23  24
ENDBRANCH  22  23
ENDBRANCH  21  22
ENDBRANCH  20  21
ENDBRANCH  19  20
ENDBRANCH  17  19
BRANCH  17  31
HETATM   31  O   UNK N   1      34.422  13.036  13.553  0.00  0.00    -0.350 OA
HETATM   32  H   UNK N   1      33.684  12.871  14.107  0.00  0.00     0.219 HD
ENDBRANCH  17  31
ENDBRANCH   5  16
TORSDOF 13
ENDMDL
MODEL 6
REMARK VINA RESULT:      -6.0      1.617      2.810
REMARK  13 active torsions:
REMARK  status: ('A' for Active; 'I' for Inactive)
REMARK    1  A    between atoms: C_3  and  C_2 
REMARK    2  A    between atoms: C_4  and  C_2 
REMARK    3  A    between atoms: C_5  and  C_3 
REMARK    4  A    between atoms: C_6  and  C_4 
REMARK    5  A    between atoms: C_9  and  C_5 
REMARK    6  A    between atoms: N_15  and  C_6 
REMARK    7  A    between atoms: C_8  and  C_7 
REMARK    8  A    between atoms: O_19  and  C_7 
REMARK    9  A    between atoms: C_9  and  O_20 
REMARK   10  A    between atoms: C_10  and  O_21 
REMARK   11  A    between atoms: C_13  and  N_17 
REMARK   12  A    between atoms: O_24  and  C_14 
REMARK   13  A    between atoms: O_25  and  C_14 
ROOT
HETATM    1  C   UNK N   1      20.836  18.051   3.378  0.00  0.00     0.179 C 
HETATM    2  C   UNK N   1      20.029  18.932   2.398  0.00  0.00     0.180 C 
HETATM    3  C   UNK N   1      20.336  20.408   2.680  0.00  0.00     0.182 C 
HETATM    4  C   UNK N   1      21.852  20.628   2.594  0.00  0.00     0.198 C 
HETATM    5  C   UNK N   1      22.582  19.631   3.534  0.00  0.00     0.254 C 
HETATM    6  O   UNK N   1      19.876  20.758   3.955  0.00  0.00    -0.390 OA
HETATM    7  O   UNK N   1      22.277  20.425   1.277  0.00  0.00    -0.389 OA
HETATM    8  O   UNK N   1      22.220  18.297   3.218  0.00  0.00    -0.354 OA
HETATM    9  H   UNK N   1      19.486  20.956   4.822  0.00  0.00     0.210 HD
HETATM   10  H   UNK N   1      22.570  20.249   0.369  0.00  0.00     0.210 HD
ENDROOT
BRANCH   2  11
HETATM   11  O   UNK N   1      18.656  18.703   2.524  0.00  0.00    -0.390 OA
HETATM   12  H   UNK N   1      17.964  19.204   2.066  0.00  0.00     0.210 HD
ENDBRANCH   2  11
BRANCH   1  13
HETATM   13  C   UNK N   1      20.629  16.565   3.080  0.00  0.00     0.198 C 
BRANCH  13  14
HETATM   14  O   UNK N   1      19.354  16.138   3.453  0.00  0.00    -0.398 OA
HETATM   15  H   UNK N   1      18.677  16.680   3.888  0.00  0.00     0.209 HD
ENDBRANCH  13  14
ENDBRANCH   1  13
BRANCH   5  16
HETATM   16  N   UNK N   1      24.018  19.710   3.349  0.00  0.00    -0.346 N 
HETATM   17  C   UNK N   1      24.913  19.272   4.163  0.00  0.00     0.113 C 
ATOM     18  HN  UNK N   1      24.350  20.155   2.493  1.00  0.00     0.164 HD
BRANCH  17  19
HETATM   19  C   UNK N   1      26.356  19.465   3.794  0.00  0.00     0.083 C 
BRANCH  19  20
HETATM   20  C   UNK N   1      27.126  20.309   4.791  0.00  0.00     0.008 C 
BRANCH  20  21
HETATM   21  C   UNK N   1      27.961  19.403   5.676  0.00  0.00     0.002 C 
BRANCH  21  22
HETATM   22  C   UNK N   1      27.820  19.819   7.128  0.00  0.00     0.020 C 
BRANCH  22  23
HETATM   23  C   UNK N   1      28.134  18.645   8.048  0.00  0.00     0.123 C 
BRANCH  23  24
HETATM   24  N   UNK N   1      29.255  17.793   7.667  0.00  0.00    -0.350 N 
HETATM   25  C   UNK N   1      30.352  17.571   8.320  0.00  0.00     0.257 C 
ATOM     26  HN  UNK N   1      29.163  17.311   6.773  1.00  0.00     0.163 HD
BRANCH  25  27
HETATM   27  O   UNK N   1      30.593  18.153   9.513  0.00  0.00    -0.327 OA
HETATM   28  H   UNK N   1      29.949  18.649   9.979  0.00  0.00     0.221 HD
ENDBRANCH  25  27
BRANCH  25  29
HETATM   29  O   UNK N   1      31.259  16.720   7.789  0.00  0.00    -0.322 OA
HETATM   30  C   UNK N   1      32.085  17.088   6.752  0.00  0.00     0.213 C 
ENDBRANCH  25  29
ENDBRANCH  23  24
ENDBRANCH  22  23
ENDBRANCH  21  22
ENDBRANCH  20  21
ENDBRANCH  19  20
ENDBRANCH  17  19
BRANCH  17  31
HETATM   31  O   UNK N   1      24.565  18.649   5.310  0.00  0.00    -0.350 OA
HETATM   32  H   UNK N   1      25.004  18.061   5.893  0.00  0.00     0.219 HD
ENDBRANCH  17  31
ENDBRANCH   5  16
TORSDOF 13
ENDMDL
MODEL 7
REMARK VINA RESULT:      -6.0     11.029     14.131
REMARK  13 active torsions:
REMARK  status: ('A' for Active; 'I' for Inactive)
REMARK    1  A    between atoms: C_3  and  C_2 
REMARK    2  A    between atoms: C_4  and  C_2 
REMARK    3  A    between atoms: C_5  and  C_3 
REMARK    4  A    between atoms: C_6  and  C_4 
REMARK    5  A    between atoms: C_9  and  C_5 
REMARK    6  A    between atoms: N_15  and  C_6 
REMARK    7  A    between atoms: C_8  and  C_7 
REMARK    8  A    between atoms: O_19  and  C_7 
REMARK    9  A    between atoms: C_9  and  O_20 
REMARK   10  A    between atoms: C_10  and  O_21 
REMARK   11  A    between atoms: C_13  and  N_17 
REMARK   12  A    between atoms: O_24  and  C_14 
REMARK   13  A    between atoms: O_25  and  C_14 
ROOT
HETATM    1  C   UNK N   1      37.086  14.692  10.195  0.00  0.00     0.179 C 
HETATM    2  C   UNK N   1      36.628  13.703  11.291  0.00  0.00     0.180 C 
HETATM    3  C   UNK N   1      35.756  14.450  12.309  0.00  0.00     0.182 C 
HETATM    4  C   UNK N   1      34.594  15.126  11.570  0.00  0.00     0.198 C 
HETATM    5  C   UNK N   1      35.147  16.017  10.426  0.00  0.00     0.254 C 
HETATM    6  O   UNK N   1      36.520  15.413  12.978  0.00  0.00    -0.390 OA
HETATM    7  O   UNK N   1      33.751  14.147  11.035  0.00  0.00    -0.389 OA
HETATM    8  O   UNK N   1      35.958  15.252   9.550  0.00  0.00    -0.354 OA
HETATM    9  H   UNK N   1      37.112  16.023  13.447  0.00  0.00     0.210 HD
HETATM   10  H   UNK N   1      33.189  13.463  10.637  0.00  0.00     0.210 HD
ENDROOT
BRANCH   2  11
HETATM   11  O   UNK N   1      37.722  13.125  11.940  0.00  0.00    -0.390 OA
HETATM   12  H   UNK N   1      38.468  12.693  11.496  0.00  0.00     0.210 HD
ENDBRANCH   2  11
BRANCH   1  13
HETATM   13  C   UNK N   1      37.889  13.976   9.109  0.00  0.00     0.198 C 
BRANCH  13  14
HETATM   14  O   UNK N   1      39.069  13.430   9.615  0.00  0.00    -0.398 OA
HETATM   15  H   UNK N   1      39.529  13.718  10.419  0.00  0.00     0.209 HD
ENDBRANCH  13  14
ENDBRANCH   1  13
BRANCH   5  16
HETATM   16  N   UNK N   1      34.064  16.538   9.614  0.00  0.00    -0.346 N 
HETATM   17  C   UNK N   1      34.096  17.609   8.902  0.00  0.00     0.113 C 
ATOM     18  HN  UNK N   1      33.194  16.004   9.606  1.00  0.00     0.164 HD
BRANCH  17  19
HETATM   19  C   UNK N   1      32.858  17.987   8.141  0.00  0.00     0.083 C 
BRANCH  19  20
HETATM   20  C   UNK N   1      32.482  16.987   7.065  0.00  0.00     0.008 C 
BRANCH  20  21
HETATM   21  C   UNK N   1      33.023  17.460   5.729  0.00  0.00     0.002 C 
BRANCH  21  22
HETATM   22  C   UNK N   1      33.706  16.314   5.008  0.00  0.00     0.020 C 
BRANCH  22  23
HETATM   23  C   UNK N   1      34.655  15.585   5.951  0.00  0.00     0.123 C 
BRANCH  23  24
HETATM   24  N   UNK N   1      34.580  14.128   5.964  0.00  0.00    -0.350 N 
HETATM   25  C   UNK N   1      34.221  13.351   6.937  0.00  0.00     0.257 C 
ATOM     26  HN  UNK N   1      34.843  13.662   5.095  1.00  0.00     0.163 HD
BRANCH  25  27
HETATM   27  O   UNK N   1      33.854  13.847   8.137  0.00  0.00    -0.327 OA
HETATM   28  H   UNK N   1      33.151  13.489   8.644  0.00  0.00     0.221 HD
ENDBRANCH  25  27
BRANCH  25  29
HETATM   29  O   UNK N   1      34.203  12.016   6.724  0.00  0.00    -0.322 OA
HETATM   30  C   UNK N   1      34.842  11.134   7.563  0.00  0.00     0.213 C 
ENDBRANCH  25  29
ENDBRANCH  23  24
ENDBRANCH  22  23
ENDBRANCH  21  22
ENDBRANCH  20  21
ENDBRANCH  19  20
ENDBRANCH  17  19
BRANCH  17  31
HETATM   31  O   UNK N   1      35.213  18.367   8.836  0.00  0.00    -0.350 OA
HETATM   32  H   UNK N   1      35.564  18.957   8.198  0.00  0.00     0.219 HD
ENDBRANCH  17  31
ENDBRANCH   5  16
TORSDOF 13
ENDMDL
MODEL 8
REMARK VINA RESULT:      -5.8      1.641      2.147
REMARK  13 active torsions:
REMARK  status: ('A' for Active; 'I' for Inactive)
REMARK    1  A    between atoms: C_3  and  C_2 
REMARK    2  A    between atoms: C_4  and  C_2 
REMARK    3  A    between atoms: C_5  and  C_3 
REMARK    4  A    between atoms: C_6  and  C_4 
REMARK    5  A    between atoms: C_9  and  C_5 
REMARK    6  A    between atoms: N_15  and  C_6 
REMARK    7  A    between atoms: C_8  and  C_7 
REMARK    8  A    between atoms: O_19  and  C_7 
REMARK    9  A    between atoms: C_9  and  O_20 
REMARK   10  A    between atoms: C_10  and  O_21 
REMARK   11  A    between atoms: C_13  and  N_17 
REMARK   12  A    between atoms: O_24  and  C_14 
REMARK   13  A    between atoms: O_25  and  C_14 
ROOT
HETATM    1  C   UNK N   1      21.518  19.194   3.019  0.00  0.00     0.179 C 
HETATM    2  C   UNK N   1      20.568  18.390   3.936  0.00  0.00     0.180 C 
HETATM    3  C   UNK N   1      21.327  17.188   4.513  0.00  0.00     0.182 C 
HETATM    4  C   UNK N   1      22.588  17.691   5.229  0.00  0.00     0.198 C 
HETATM    5  C   UNK N   1      23.425  18.571   4.261  0.00  0.00     0.254 C 
HETATM    6  O   UNK N   1      21.681  16.307   3.486  0.00  0.00    -0.390 OA
HETATM    7  O   UNK N   1      22.219  18.445   6.346  0.00  0.00    -0.389 OA
HETATM    8  O   UNK N   1      22.639  19.639   3.758  0.00  0.00    -0.354 OA
HETATM    9  H   UNK N   1      21.849  15.707   2.741  0.00  0.00     0.210 HD
HETATM   10  H   UNK N   1      21.956  18.996   7.101  0.00  0.00     0.210 HD
ENDROOT
BRANCH   2  11
HETATM   11  O   UNK N   1      19.444  17.946   3.235  0.00  0.00    -0.390 OA
HETATM   12  H   UNK N   1      19.329  18.001   2.274  0.00  0.00     0.210 HD
ENDBRANCH   2  11
BRANCH   1  13
HETATM   13  C   UNK N   1      20.831  20.452   2.485  0.00  0.00     0.198 C 
BRANCH  13  14
HETATM   14  O   UNK N   1      21.620  21.587   2.667  0.00  0.00    -0.398 OA
HETATM   15  H   UNK N   1      21.434  22.472   2.315  0.00  0.00     0.209 HD
ENDBRANCH  13  14
ENDBRANCH   1  13
BRANCH   5  16
HETATM   16  N   UNK N   1      24.535  19.187   4.961  0.00  0.00    -0.346 N 
HETATM   17  C   UNK N   1      25.363  20.039   4.468  0.00  0.00     0.113 C 
ATOM     18  HN  UNK N   1      24.672  18.920   5.936  1.00  0.00     0.164 HD
BRANCH  17  19
HETATM   19  C   UNK N   1      26.460  20.551   5.357  0.00  0.00     0.083 C 
BRANCH  19  20
HETATM   20  C   UNK N   1      27.836  20.041   4.972  0.00  0.00     0.008 C 
BRANCH  20  21
HETATM   21  C   UNK N   1      28.233  18.914   5.906  0.00  0.00     0.002 C 
BRANCH  21  22
HETATM   22  C   UNK N   1      27.982  19.318   7.346  0.00  0.00     0.020 C 
BRANCH  22  23
HETATM   23  C   UNK N   1      28.552  18.273   8.298  0.00  0.00     0.123 C 
BRANCH  23  24
HETATM   24  N   UNK N   1      29.526  17.340   7.742  0.00  0.00    -0.350 N 
HETATM   25  C   UNK N   1      30.732  17.101   8.152  0.00  0.00     0.257 C 
ATOM     26  HN  UNK N   1      29.220  16.810   6.927  1.00  0.00     0.163 HD
BRANCH  25  27
HETATM   27  O   UNK N   1      31.256  17.741   9.219  0.00  0.00    -0.327 OA
HETATM   28  H   UNK N   1      31.144  18.659   9.368  0.00  0.00     0.221 HD
ENDBRANCH  25  27
BRANCH  25  29
HETATM   29  O   UNK N   1      31.464  16.172   7.497  0.00  0.00    -0.322 OA
HETATM   30  C   UNK N   1      32.021  16.418   6.264  0.00  0.00     0.213 C 
ENDBRANCH  25  29
ENDBRANCH  23  24
ENDBRANCH  22  23
ENDBRANCH  21  22
ENDBRANCH  20  21
ENDBRANCH  19  20
ENDBRANCH  17  19
BRANCH  17  31
HETATM   31  O   UNK N   1      25.245  20.467   3.192  0.00  0.00    -0.350 OA
HETATM   32  H   UNK N   1      24.517  20.646   2.628  0.00  0.00     0.219 HD
ENDBRANCH  17  31
ENDBRANCH   5  16
TORSDOF 13
ENDMDL
MODEL 9
REMARK VINA RESULT:      -5.8      1.908      2.721
REMARK  13 active torsions:
REMARK  status: ('A' for Active; 'I' for Inactive)
REMARK    1  A    between atoms: C_3  and  C_2 
REMARK    2  A    between atoms: C_4  and  C_2 
REMARK    3  A    between atoms: C_5  and  C_3 
REMARK    4  A    between atoms: C_6  and  C_4 
REMARK    5  A    between atoms: C_9  and  C_5 
REMARK    6  A    between atoms: N_15  and  C_6 
REMARK    7  A    between atoms: C_8  and  C_7 
REMARK    8  A    between atoms: O_19  and  C_7 
REMARK    9  A    between atoms: C_9  and  O_20 
REMARK   10  A    between atoms: C_10  and  O_21 
REMARK   11  A    between atoms: C_13  and  N_17 
REMARK   12  A    between atoms: O_24  and  C_14 
REMARK   13  A    between atoms: O_25  and  C_14 
ROOT
HETATM    1  C   UNK N   1      21.218  18.982   2.895  0.00  0.00     0.179 C 
HETATM    2  C   UNK N   1      20.634  18.003   3.939  0.00  0.00     0.180 C 
HETATM    3  C   UNK N   1      21.629  16.857   4.164  0.00  0.00     0.182 C 
HETATM    4  C   UNK N   1      22.986  17.447   4.571  0.00  0.00     0.198 C 
HETATM    5  C   UNK N   1      23.441  18.492   3.516  0.00  0.00     0.254 C 
HETATM    6  O   UNK N   1      21.768  16.106   2.992  0.00  0.00    -0.390 OA
HETATM    7  O   UNK N   1      22.869  18.064   5.820  0.00  0.00    -0.389 OA
HETATM    8  O   UNK N   1      22.453  19.496   3.355  0.00  0.00    -0.354 OA
HETATM    9  H   UNK N   1      21.780  15.590   2.170  0.00  0.00     0.210 HD
HETATM   10  H   UNK N   1      22.773  18.520   6.671  0.00  0.00     0.210 HD
ENDROOT
BRANCH   2  11
HETATM   11  O   UNK N   1      19.406  17.485   3.517  0.00  0.00    -0.390 OA
HETATM   12  H   UNK N   1      18.543  17.739   3.876  0.00  0.00     0.210 HD
ENDBRANCH   2  11
BRANCH   1  13
HETATM   13  C   UNK N   1      20.299  20.188   2.698  0.00  0.00     0.198 C 
BRANCH  13  14
HETATM   14  O   UNK N   1      20.138  20.498   1.348  0.00  0.00    -0.398 OA
HETATM   15  H   UNK N   1      19.353  20.904   0.947  0.00  0.00     0.209 HD
ENDBRANCH  13  14
ENDBRANCH   1  13
BRANCH   5  16
HETATM   16  N   UNK N   1      24.639  19.178   3.959  0.00  0.00    -0.346 N 
HETATM   17  C   UNK N   1      25.203  20.175   3.374  0.00  0.00     0.113 C 
ATOM     18  HN  UNK N   1      25.076  18.839   4.817  1.00  0.00     0.164 HD
BRANCH  17  19
HETATM   19  C   UNK N   1      26.453  20.738   3.987  0.00  0.00     0.083 C 
BRANCH  19  20
HETATM   20  C   UNK N   1      26.378  20.870   5.497  0.00  0.00     0.008 C 
BRANCH  20  21
HETATM   21  C   UNK N   1      27.759  20.664   6.088  0.00  0.00     0.002 C 
BRANCH  21  22
HETATM   22  C   UNK N   1      27.696  19.660   7.223  0.00  0.00     0.020 C 
BRANCH  22  23
HETATM   23  C   UNK N   1      28.382  18.361   6.821  0.00  0.00     0.123 C 
BRANCH  23  24
HETATM   24  N   UNK N   1      28.016  17.798   5.526  0.00  0.00    -0.350 N 
HETATM   25  C   UNK N   1      26.907  17.220   5.186  0.00  0.00     0.257 C 
ATOM     26  HN  UNK N   1      28.725  17.866   4.795  1.00  0.00     0.163 HD
BRANCH  25  27
HETATM   27  O   UNK N   1      25.894  17.065   6.064  0.00  0.00    -0.327 OA
HETATM   28  H   UNK N   1      25.002  17.260   5.854  0.00  0.00     0.221 HD
ENDBRANCH  25  27
BRANCH  25  29
HETATM   29  O   UNK N   1      26.769  16.785   3.913  0.00  0.00    -0.322 OA
HETATM   30  C   UNK N   1      26.143  15.598   3.611  0.00  0.00     0.213 C 
ENDBRANCH  25  29
ENDBRANCH  23  24
ENDBRANCH  22  23
ENDBRANCH  21  22
ENDBRANCH  20  21
ENDBRANCH  19  20
ENDBRANCH  17  19
BRANCH  17  31
HETATM   31  O   UNK N   1      24.682  20.704   2.245  0.00  0.00    -0.350 OA
HETATM   32  H   UNK N   1      24.751  21.538   1.823  0.00  0.00     0.219 HD
ENDBRANCH  17  31
ENDBRANCH   5  16
TORSDOF 13
ENDMDL
