MODEL 1
REMARK VINA RESULT:      -5.3      0.000      0.000
REMARK  2 active torsions:
REMARK  status: ('A' for Active; 'I' for Inactive)
REMARK    1  A    between atoms: N_2  and  C_4 
REMARK    2  A    between atoms: C_6  and  N_10 
ROOT
HETATM    1  C   UNK N   1      33.699  17.872   7.816  0.00  0.00     0.105 A 
HETATM    2  C   UNK N   1      32.416  17.755   8.357  0.00  0.00     0.072 A 
HETATM    3  C   UNK N   1      31.331  17.368   7.568  0.00  0.00     0.105 A 
HETATM    4  C   UNK N   1      31.536  17.094   6.206  0.00  0.00     0.036 A 
HETATM    5  C   UNK N   1      32.818  17.207   5.652  0.00  0.00     0.005 A 
HETATM    6  C   UNK N   1      33.897  17.595   6.454  0.00  0.00     0.036 A 
ENDROOT
BRANCH   1   7
HETATM    7  N   UNK N   1      34.781  18.267   8.647  0.00  0.00    -0.116 N 
HETATM    8  O   UNK N   1      35.181  17.494   9.633  0.00  0.00    -0.532 OA
HETATM    9  O   UNK N   1      35.339  19.307   8.454  0.00  0.00    -0.532 OA
ENDBRANCH   1   7
BRANCH   3  10
HETATM   10  N   UNK N   1      30.043  17.261   8.157  0.00  0.00    -0.116 N 
HETATM   11  O   UNK N   1      28.999  16.976   7.407  0.00  0.00    -0.532 OA
HETATM   12  O   UNK N   1      29.897  17.428   9.330  0.00  0.00    -0.532 OA
ENDBRANCH   3  10
TORSDOF 2
ENDMDL
MODEL 2
REMARK VINA RESULT:      -5.3      0.082      4.293
REMARK  2 active torsions:
REMARK  status: ('A' for Active; 'I' for Inactive)
REMARK    1  A    between atoms: N_2  and  C_4 
REMARK    2  A    between atoms: C_6  and  N_10 
ROOT
HETATM    1  C   UNK N   1      31.309  17.378   7.582  0.00  0.00     0.105 A 
HETATM    2  C   UNK N   1      32.400  17.772   8.361  0.00  0.00     0.072 A 
HETATM    3  C   UNK N   1      33.681  17.868   7.814  0.00  0.00     0.105 A 
HETATM    4  C   UNK N   1      33.873  17.562   6.456  0.00  0.00     0.036 A 
HETATM    5  C   UNK N   1      32.787  17.166   5.666  0.00  0.00     0.005 A 
HETATM    6  C   UNK N   1      31.508  17.074   6.226  0.00  0.00     0.036 A 
ENDROOT
BRANCH   1   7
HETATM    7  N   UNK N   1      30.019  17.290   8.170  0.00  0.00    -0.116 N 
HETATM    8  O   UNK N   1      29.875  17.350   9.476  0.00  0.00    -0.532 OA
HETATM    9  O   UNK N   1      29.052  17.163   7.478  0.00  0.00    -0.532 OA
ENDBRANCH   1   7
BRANCH   3  10
HETATM   10  N   UNK N   1      34.764  18.272   8.640  0.00  0.00    -0.116 N 
HETATM   11  O   UNK N   1      35.166  17.494   9.623  0.00  0.00    -0.532 OA
HETATM   12  O   UNK N   1      35.315  19.314   8.451  0.00  0.00    -0.532 OA
ENDBRANCH   3  10
TORSDOF 2
ENDMDL
MODEL 3
REMARK VINA RESULT:      -5.2      2.679      3.298
REMARK  2 active torsions:
REMARK  status: ('A' for Active; 'I' for Inactive)
REMARK    1  A    between atoms: N_2  and  C_4 
REMARK    2  A    between atoms: C_6  and  N_10 
ROOT
HETATM    1  C   UNK N   1      33.668  17.827   7.892  0.00  0.00     0.105 A 
HETATM    2  C   UNK N   1      33.885  17.465   6.560  0.00  0.00     0.072 A 
HETATM    3  C   UNK N   1      32.829  17.068   5.738  0.00  0.00     0.105 A 
HETATM    4  C   UNK N   1      31.526  17.032   6.263  0.00  0.00     0.036 A 
HETATM    5  C   UNK N   1      31.296  17.392   7.596  0.00  0.00     0.005 A 
HETATM    6  C   UNK N   1      32.363  17.789   8.409  0.00  0.00     0.036 A 
ENDROOT
BRANCH   1   7
HETATM    7  N   UNK N   1      34.765  18.228   8.702  0.00  0.00    -0.116 N 
HETATM    8  O   UNK N   1      35.378  19.369   8.476  0.00  0.00    -0.532 OA
HETATM    9  O   UNK N   1      35.137  17.529   9.597  0.00  0.00    -0.532 OA
ENDBRANCH   1   7
BRANCH   3  10
HETATM   10  N   UNK N   1      33.092  16.708   4.390  0.00  0.00    -0.116 N 
HETATM   11  O   UNK N   1      32.577  17.418   3.407  0.00  0.00    -0.532 OA
HETATM   12  O   UNK N   1      33.778  15.765   4.136  0.00  0.00    -0.532 OA
ENDBRANCH   3  10
TORSDOF 2
ENDMDL
MODEL 4
REMARK VINA RESULT:      -5.2      1.549      2.007
REMARK  2 active torsions:
REMARK  status: ('A' for Active; 'I' for Inactive)
REMARK    1  A    between atoms: N_2  and  C_4 
REMARK    2  A    between atoms: C_6  and  N_10 
ROOT
HETATM    1  C   UNK N   1      32.334  17.628   7.577  0.00  0.00     0.105 A 
HETATM    2  C   UNK N   1      31.437  17.992   8.583  0.00  0.00     0.072 A 
HETATM    3  C   UNK N   1      30.068  17.747   8.455  0.00  0.00     0.105 A 
HETATM    4  C   UNK N   1      29.589  17.123   7.291  0.00  0.00     0.036 A 
HETATM    5  C   UNK N   1      30.479  16.753   6.275  0.00  0.00     0.005 A 
HETATM    6  C   UNK N   1      31.848  17.004   6.417  0.00  0.00     0.036 A 
ENDROOT
BRANCH   1   7
HETATM    7  N   UNK N   1      33.721  17.891   7.739  0.00  0.00    -0.116 N 
HETATM    8  O   UNK N   1      34.504  18.010   6.690  0.00  0.00    -0.532 OA
HETATM    9  O   UNK N   1      34.185  18.009   8.835  0.00  0.00    -0.532 OA
ENDBRANCH   1   7
BRANCH   3  10
HETATM   10  N   UNK N   1      29.189  18.133   9.501  0.00  0.00    -0.116 N 
HETATM   11  O   UNK N   1      27.942  17.709   9.502  0.00  0.00    -0.532 OA
HETATM   12  O   UNK N   1      29.570  18.840  10.384  0.00  0.00    -0.532 OA
ENDBRANCH   3  10
TORSDOF 2
ENDMDL
MODEL 5
REMARK VINA RESULT:      -5.1     11.143     12.298
REMARK  2 active torsions:
REMARK  status: ('A' for Active; 'I' for Inactive)
REMARK    1  A    between atoms: N_2  and  C_4 
REMARK    2  A    between atoms: C_6  and  N_10 
ROOT
HETATM    1  C   UNK N   1      21.276  13.505   9.331  0.00  0.00     0.105 A 
HETATM    2  C   UNK N   1      21.949  13.210  10.519  0.00  0.00     0.072 A 
HETATM    3  C   UNK N   1      22.937  12.224  10.564  0.00  0.00     0.105 A 
HETATM    4  C   UNK N   1      23.257  11.518   9.392  0.00  0.00     0.036 A 
HETATM    5  C   UNK N   1      22.589  11.805   8.195  0.00  0.00     0.005 A 
HETATM    6  C   UNK N   1      21.601  12.796   8.164  0.00  0.00     0.036 A 
ENDROOT
BRANCH   1   7
HETATM    7  N   UNK N   1      20.277  14.515   9.319  0.00  0.00    -0.116 N 
HETATM    8  O   UNK N   1      20.528  15.695   8.798  0.00  0.00    -0.532 OA
HETATM    9  O   UNK N   1      19.197  14.296   9.784  0.00  0.00    -0.532 OA
ENDBRANCH   1   7
BRANCH   3  10
HETATM   10  N   UNK N   1      23.598  11.954  11.792  0.00  0.00    -0.116 N 
HETATM   11  O   UNK N   1      22.894  11.753  12.887  0.00  0.00    -0.532 OA
HETATM   12  O   UNK N   1      24.789  11.908  11.842  0.00  0.00    -0.532 OA
ENDBRANCH   3  10
TORSDOF 2
ENDMDL
MODEL 6
REMARK VINA RESULT:      -5.1     11.510     12.495
REMARK  2 active torsions:
REMARK  status: ('A' for Active; 'I' for Inactive)
REMARK    1  A    between atoms: N_2  and  C_4 
REMARK    2  A    between atoms: C_6  and  N_10 
ROOT
HETATM    1  C   UNK N   1      21.159  19.343   2.770  0.00  0.00     0.105 A 
HETATM    2  C   UNK N   1      21.456  19.162   4.123  0.00  0.00     0.072 A 
HETATM    3  C   UNK N   1      21.012  18.034   4.816  0.00  0.00     0.105 A 
HETATM    4  C   UNK N   1      20.253  17.066   4.138  0.00  0.00     0.036 A 
HETATM    5  C   UNK N   1      19.948  17.236   2.782  0.00  0.00     0.005 A 
HETATM    6  C   UNK N   1      20.400  18.371   2.098  0.00  0.00     0.036 A 
ENDROOT
BRANCH   1   7
HETATM    7  N   UNK N   1      21.627  20.501   2.094  0.00  0.00    -0.116 N 
HETATM    8  O   UNK N   1      21.457  20.630   0.796  0.00  0.00    -0.532 OA
HETATM    9  O   UNK N   1      22.178  21.370   2.702  0.00  0.00    -0.532 OA
ENDBRANCH   1   7
BRANCH   3  10
HETATM   10  N   UNK N   1      21.336  17.889   6.191  0.00  0.00    -0.116 N 
HETATM   11  O   UNK N   1      20.988  18.823   7.051  0.00  0.00    -0.532 OA
HETATM   12  O   UNK N   1      21.923  16.924   6.577  0.00  0.00    -0.532 OA
ENDBRANCH   3  10
TORSDOF 2
ENDMDL
MODEL 7
REMARK VINA RESULT:      -5.1     11.500     12.527
REMARK  2 active torsions:
REMARK  status: ('A' for Active; 'I' for Inactive)
REMARK    1  A    between atoms: N_2  and  C_4 
REMARK    2  A    between atoms: C_6  and  N_10 
ROOT
HETATM    1  C   UNK N   1      21.019  18.039   4.829  0.00  0.00     0.105 A 
HETATM    2  C   UNK N   1      21.461  19.165   4.130  0.00  0.00     0.072 A 
HETATM    3  C   UNK N   1      21.164  19.338   2.777  0.00  0.00     0.105 A 
HETATM    4  C   UNK N   1      20.408  18.360   2.109  0.00  0.00     0.036 A 
HETATM    5  C   UNK N   1      19.959  17.228   2.799  0.00  0.00     0.005 A 
HETATM    6  C   UNK N   1      20.263  17.066   4.155  0.00  0.00     0.036 A 
ENDROOT
BRANCH   1   7
HETATM    7  N   UNK N   1      21.338  17.894   6.206  0.00  0.00    -0.116 N 
HETATM    8  O   UNK N   1      20.975  18.811   7.075  0.00  0.00    -0.532 OA
HETATM    9  O   UNK N   1      21.940  16.932   6.584  0.00  0.00    -0.532 OA
ENDBRANCH   1   7
BRANCH   3  10
HETATM   10  N   UNK N   1      21.633  20.497   2.102  0.00  0.00    -0.116 N 
HETATM   11  O   UNK N   1      21.460  20.616   0.802  0.00  0.00    -0.532 OA
HETATM   12  O   UNK N   1      22.184  21.368   2.704  0.00  0.00    -0.532 OA
ENDBRANCH   3  10
TORSDOF 2
ENDMDL
MODEL 8
REMARK VINA RESULT:      -5.0     10.537     11.857
REMARK  2 active torsions:
REMARK  status: ('A' for Active; 'I' for Inactive)
REMARK    1  A    between atoms: N_2  and  C_4 
REMARK    2  A    between atoms: C_6  and  N_10 
ROOT
HETATM    1  C   UNK N   1      22.947  12.677  10.683  0.00  0.00     0.105 A 
HETATM    2  C   UNK N   1      22.401  13.556   9.744  0.00  0.00     0.072 A 
HETATM    3  C   UNK N   1      21.023  13.765   9.665  0.00  0.00     0.105 A 
HETATM    4  C   UNK N   1      20.172  13.077  10.546  0.00  0.00     0.036 A 
HETATM    5  C   UNK N   1      20.707  12.194  11.491  0.00  0.00     0.005 A 
HETATM    6  C   UNK N   1      22.090  11.994  11.561  0.00  0.00     0.036 A 
ENDROOT
BRANCH   1   7
HETATM    7  N   UNK N   1      24.353  12.488  10.738  0.00  0.00    -0.116 N 
HETATM    8  O   UNK N   1      25.124  12.929   9.769  0.00  0.00    -0.532 OA
HETATM    9  O   UNK N   1      24.847  11.925  11.670  0.00  0.00    -0.532 OA
ENDBRANCH   1   7
BRANCH   3  10
HETATM   10  N   UNK N   1      20.510  14.667   8.696  0.00  0.00    -0.116 N 
HETATM   11  O   UNK N   1      20.561  15.965   8.913  0.00  0.00    -0.532 OA
HETATM   12  O   UNK N   1      20.029  14.260   7.682  0.00  0.00    -0.532 OA
ENDBRANCH   3  10
TORSDOF 2
ENDMDL
MODEL 9
REMARK VINA RESULT:      -4.9      9.870     11.095
REMARK  2 active torsions:
REMARK  status: ('A' for Active; 'I' for Inactive)
REMARK    1  A    between atoms: N_2  and  C_4 
REMARK    2  A    between atoms: C_6  and  N_10 
ROOT
HETATM    1  C   UNK N   1      34.881  11.993  15.366  0.00  0.00     0.105 A 
HETATM    2  C   UNK N   1      34.967  12.962  16.369  0.00  0.00     0.072 A 
HETATM    3  C   UNK N   1      35.129  12.604  17.708  0.00  0.00     0.105 A 
HETATM    4  C   UNK N   1      35.204  11.244  18.051  0.00  0.00     0.036 A 
HETATM    5  C   UNK N   1      35.119  10.263  17.055  0.00  0.00     0.005 A 
HETATM    6  C   UNK N   1      34.958  10.636  15.716  0.00  0.00     0.036 A 
ENDROOT
BRANCH   1   7
HETATM    7  N   UNK N   1      34.717  12.392  14.013  0.00  0.00    -0.116 N 
HETATM    8  O   UNK N   1      34.336  11.522  13.103  0.00  0.00    -0.532 OA
HETATM    9  O   UNK N   1      34.924  13.524  13.691  0.00  0.00    -0.532 OA
ENDBRANCH   1   7
BRANCH   3  10
HETATM   10  N   UNK N   1      35.213  13.620  18.697  0.00  0.00    -0.116 N 
HETATM   11  O   UNK N   1      35.533  14.850  18.350  0.00  0.00    -0.532 OA
HETATM   12  O   UNK N   1      34.995  13.371  19.844  0.00  0.00    -0.532 OA
ENDBRANCH   3  10
TORSDOF 2
ENDMDL
