MODEL 1
REMARK VINA RESULT:      -4.0      0.000      0.000
REMARK  6 active torsions:
REMARK  status: ('A' for Active; 'I' for Inactive)
REMARK    1  A    between atoms: S_2  and  C_3 
REMARK    2  A    between atoms: C_3  and  C_4 
REMARK    3  A    between atoms: C_4  and  C_5 
REMARK    4  A    between atoms: C_5  and  N_6 
REMARK    5  A    between atoms: C_5  and  C_7 
REMARK    6  A    between atoms: C_7  and  O_8 
ROOT
HETATM    1  C   UNK N   1      34.495  17.038   9.059  0.00  0.00     0.174 C 
ENDROOT
BRANCH   1   2
HETATM    2  C   UNK N   1      33.851  15.689   8.702  0.00  0.00     0.045 C 
BRANCH   2   3
HETATM    3  C   UNK N   1      32.353  15.630   8.975  0.00  0.00     0.076 C 
BRANCH   3   4
HETATM    4  S   UNK N   1      31.265  16.486   7.760  0.00  0.00    -0.173 SA
HETATM    5  C   UNK N   1      30.879  18.003   8.689  0.00  0.00     0.089 C 
ENDBRANCH   3   4
ENDBRANCH   2   3
ENDBRANCH   1   2
BRANCH   1   6
HETATM    6  N   UNK N   1      34.923  17.189  10.439  0.00  0.00    -0.418 N 
HETATM    7  H   UNK N   1      34.242  17.430  11.160  0.00  0.00     0.150 HD
HETATM    8  H   UNK N   1      35.903  17.055  10.688  0.00  0.00     0.150 HD
ENDBRANCH   1   6
BRANCH   1   9
HETATM    9  C   UNK N   1      34.735  18.218   8.152  0.00  0.00     0.163 C 
HETATM   10  O   UNK N   1      34.377  18.196   6.985  0.00  0.00    -0.648 OA
BRANCH   9  11
HETATM   11  O   UNK N   1      35.353  19.315   8.630  0.00  0.00    -0.775 OA
HETATM   12  H   UNK N   1      35.056  19.711   9.426  0.00  0.00     0.167 HD
ENDBRANCH   9  11
ENDBRANCH   1   9
TORSDOF 6
ENDMDL
MODEL 2
REMARK VINA RESULT:      -4.0      1.043      1.161
REMARK  6 active torsions:
REMARK  status: ('A' for Active; 'I' for Inactive)
REMARK    1  A    between atoms: S_2  and  C_3 
REMARK    2  A    between atoms: C_3  and  C_4 
REMARK    3  A    between atoms: C_4  and  C_5 
REMARK    4  A    between atoms: C_5  and  N_6 
REMARK    5  A    between atoms: C_5  and  C_7 
REMARK    6  A    between atoms: C_7  and  O_8 
ROOT
HETATM    1  C   UNK N   1      34.028  17.205   8.996  0.00  0.00     0.174 C 
ENDROOT
BRANCH   1   2
HETATM    2  C   UNK N   1      32.815  16.293   8.754  0.00  0.00     0.045 C 
BRANCH   2   3
HETATM    3  C   UNK N   1      31.521  17.050   8.480  0.00  0.00     0.076 C 
BRANCH   3   4
HETATM    4  S   UNK N   1      30.823  16.891   6.783  0.00  0.00    -0.173 SA
HETATM    5  C   UNK N   1      29.111  17.429   7.089  0.00  0.00     0.089 C 
ENDBRANCH   3   4
ENDBRANCH   2   3
ENDBRANCH   1   2
BRANCH   1   6
HETATM    6  N   UNK N   1      34.697  17.043  10.276  0.00  0.00    -0.418 N 
HETATM    7  H   UNK N   1      34.505  17.696  11.036  0.00  0.00     0.150 HD
HETATM    8  H   UNK N   1      35.357  16.278  10.414  0.00  0.00     0.150 HD
ENDBRANCH   1   6
BRANCH   1   9
HETATM    9  C   UNK N   1      34.606  18.243   8.067  0.00  0.00     0.163 C 
HETATM   10  O   UNK N   1      34.440  18.167   6.860  0.00  0.00    -0.648 OA
BRANCH   9  11
HETATM   11  O   UNK N   1      35.316  19.271   8.571  0.00  0.00    -0.775 OA
HETATM   12  H   UNK N   1      35.948  19.711   8.036  0.00  0.00     0.167 HD
ENDBRANCH   9  11
ENDBRANCH   1   9
TORSDOF 6
ENDMDL
MODEL 3
REMARK VINA RESULT:      -4.0      1.161      1.801
REMARK  6 active torsions:
REMARK  status: ('A' for Active; 'I' for Inactive)
REMARK    1  A    between atoms: S_2  and  C_3 
REMARK    2  A    between atoms: C_3  and  C_4 
REMARK    3  A    between atoms: C_4  and  C_5 
REMARK    4  A    between atoms: C_5  and  N_6 
REMARK    5  A    between atoms: C_5  and  C_7 
REMARK    6  A    between atoms: C_7  and  O_8 
ROOT
HETATM    1  C   UNK N   1      34.068  17.221   9.020  0.00  0.00     0.174 C 
ENDROOT
BRANCH   1   2
HETATM    2  C   UNK N   1      32.873  16.287   8.772  0.00  0.00     0.045 C 
BRANCH   2   3
HETATM    3  C   UNK N   1      31.565  17.019   8.495  0.00  0.00     0.076 C 
BRANCH   3   4
HETATM    4  S   UNK N   1      30.888  16.867   6.789  0.00  0.00    -0.173 SA
HETATM    5  C   UNK N   1      31.998  15.592   6.116  0.00  0.00     0.089 C 
ENDBRANCH   3   4
ENDBRANCH   2   3
ENDBRANCH   1   2
BRANCH   1   6
HETATM    6  N   UNK N   1      34.733  17.072  10.303  0.00  0.00    -0.418 N 
HETATM    7  H   UNK N   1      34.183  16.906  11.146  0.00  0.00     0.150 HD
HETATM    8  H   UNK N   1      35.749  17.132  10.361  0.00  0.00     0.150 HD
ENDBRANCH   1   6
BRANCH   1   9
HETATM    9  C   UNK N   1      34.630  18.271   8.094  0.00  0.00     0.163 C 
HETATM   10  O   UNK N   1      35.258  19.221   8.532  0.00  0.00    -0.648 OA
BRANCH   9  11
HETATM   11  O   UNK N   1      34.439  18.163   6.765  0.00  0.00    -0.775 OA
HETATM   12  H   UNK N   1      34.962  17.569   6.263  0.00  0.00     0.167 HD
ENDBRANCH   9  11
ENDBRANCH   1   9
TORSDOF 6
ENDMDL
MODEL 4
REMARK VINA RESULT:      -3.9      2.751      3.462
REMARK  6 active torsions:
REMARK  status: ('A' for Active; 'I' for Inactive)
REMARK    1  A    between atoms: S_2  and  C_3 
REMARK    2  A    between atoms: C_3  and  C_4 
REMARK    3  A    between atoms: C_4  and  C_5 
REMARK    4  A    between atoms: C_5  and  N_6 
REMARK    5  A    between atoms: C_5  and  C_7 
REMARK    6  A    between atoms: C_7  and  O_8 
ROOT
HETATM    1  C   UNK N   1      34.171  17.099   8.947  0.00  0.00     0.174 C 
ENDROOT
BRANCH   1   2
HETATM    2  C   UNK N   1      35.040  16.009   9.594  0.00  0.00     0.045 C 
BRANCH   2   3
HETATM    3  C   UNK N   1      35.571  16.383  10.973  0.00  0.00     0.076 C 
BRANCH   3   4
HETATM    4  S   UNK N   1      35.836  14.994  12.152  0.00  0.00    -0.173 SA
HETATM    5  C   UNK N   1      34.913  13.674  11.305  0.00  0.00     0.089 C 
ENDBRANCH   3   4
ENDBRANCH   2   3
ENDBRANCH   1   2
BRANCH   1   6
HETATM    6  N   UNK N   1      32.749  17.031   9.238  0.00  0.00    -0.418 N 
HETATM    7  H   UNK N   1      32.429  16.665  10.135  0.00  0.00     0.150 HD
HETATM    8  H   UNK N   1      32.070  17.349   8.546  0.00  0.00     0.150 HD
ENDBRANCH   1   6
BRANCH   1   9
HETATM    9  C   UNK N   1      34.616  18.227   8.049  0.00  0.00     0.163 C 
HETATM   10  O   UNK N   1      34.372  18.210   6.854  0.00  0.00    -0.648 OA
BRANCH   9  11
HETATM   11  O   UNK N   1      35.292  19.269   8.570  0.00  0.00    -0.775 OA
HETATM   12  H   UNK N   1      35.157  19.517   9.463  0.00  0.00     0.167 HD
ENDBRANCH   9  11
ENDBRANCH   1   9
TORSDOF 6
ENDMDL
MODEL 5
REMARK VINA RESULT:      -3.8     11.938     12.466
REMARK  6 active torsions:
REMARK  status: ('A' for Active; 'I' for Inactive)
REMARK    1  A    between atoms: S_2  and  C_3 
REMARK    2  A    between atoms: C_3  and  C_4 
REMARK    3  A    between atoms: C_4  and  C_5 
REMARK    4  A    between atoms: C_5  and  N_6 
REMARK    5  A    between atoms: C_5  and  C_7 
REMARK    6  A    between atoms: C_7  and  O_8 
ROOT
HETATM    1  C   UNK N   1      22.614  12.014  11.232  0.00  0.00     0.174 C 
ENDROOT
BRANCH   1   2
HETATM    2  C   UNK N   1      22.673  12.135   9.701  0.00  0.00     0.045 C 
BRANCH   2   3
HETATM    3  C   UNK N   1      21.398  12.691   9.078  0.00  0.00     0.076 C 
BRANCH   3   4
HETATM    4  S   UNK N   1      21.086  14.490   9.319  0.00  0.00    -0.173 SA
HETATM    5  C   UNK N   1      21.555  15.120   7.677  0.00  0.00     0.089 C 
ENDBRANCH   3   4
ENDBRANCH   2   3
ENDBRANCH   1   2
BRANCH   1   6
HETATM    6  N   UNK N   1      21.296  11.784  11.799  0.00  0.00    -0.418 N 
HETATM    7  H   UNK N   1      20.986  12.328  12.605  0.00  0.00     0.150 HD
HETATM    8  H   UNK N   1      20.681  11.080  11.391  0.00  0.00     0.150 HD
ENDBRANCH   1   6
BRANCH   1   9
HETATM    9  C   UNK N   1      23.756  12.106  12.213  0.00  0.00     0.163 C 
HETATM   10  O   UNK N   1      23.558  12.028  13.415  0.00  0.00    -0.648 OA
BRANCH   9  11
HETATM   11  O   UNK N   1      25.014  12.275  11.762  0.00  0.00    -0.775 OA
HETATM   12  H   UNK N   1      25.174  12.805  11.006  0.00  0.00     0.167 HD
ENDBRANCH   9  11
ENDBRANCH   1   9
TORSDOF 6
ENDMDL
MODEL 6
REMARK VINA RESULT:      -3.8     12.837     14.201
REMARK  6 active torsions:
REMARK  status: ('A' for Active; 'I' for Inactive)
REMARK    1  A    between atoms: S_2  and  C_3 
REMARK    2  A    between atoms: C_3  and  C_4 
REMARK    3  A    between atoms: C_4  and  C_5 
REMARK    4  A    between atoms: C_5  and  N_6 
REMARK    5  A    between atoms: C_5  and  C_7 
REMARK    6  A    between atoms: C_7  and  O_8 
ROOT
HETATM    1  C   UNK N   1      20.293  19.026   2.247  0.00  0.00     0.174 C 
ENDROOT
BRANCH   1   2
HETATM    2  C   UNK N   1      21.164  18.060   3.065  0.00  0.00     0.045 C 
BRANCH   2   3
HETATM    3  C   UNK N   1      21.848  18.711   4.263  0.00  0.00     0.076 C 
BRANCH   3   4
HETATM    4  S   UNK N   1      23.682  18.570   4.335  0.00  0.00    -0.173 SA
HETATM    5  C   UNK N   1      24.156  20.036   3.367  0.00  0.00     0.089 C 
ENDBRANCH   3   4
ENDBRANCH   2   3
ENDBRANCH   1   2
BRANCH   1   6
HETATM    6  N   UNK N   1      18.858  18.810   2.332  0.00  0.00    -0.418 N 
HETATM    7  H   UNK N   1      18.422  18.068   1.784  0.00  0.00     0.150 HD
HETATM    8  H   UNK N   1      18.288  19.400   2.938  0.00  0.00     0.150 HD
ENDBRANCH   1   6
BRANCH   1   9
HETATM    9  C   UNK N   1      20.746  20.167   1.371  0.00  0.00     0.163 C 
HETATM   10  O   UNK N   1      21.183  21.197   1.858  0.00  0.00    -0.648 OA
BRANCH   9  11
HETATM   11  O   UNK N   1      20.669  20.052   0.031  0.00  0.00    -0.775 OA
HETATM   12  H   UNK N   1      20.254  20.723  -0.474  0.00  0.00     0.167 HD
ENDBRANCH   9  11
ENDBRANCH   1   9
TORSDOF 6
ENDMDL
MODEL 7
REMARK VINA RESULT:      -3.8     13.644     14.404
REMARK  6 active torsions:
REMARK  status: ('A' for Active; 'I' for Inactive)
REMARK    1  A    between atoms: S_2  and  C_3 
REMARK    2  A    between atoms: C_3  and  C_4 
REMARK    3  A    between atoms: C_4  and  C_5 
REMARK    4  A    between atoms: C_5  and  N_6 
REMARK    5  A    between atoms: C_5  and  C_7 
REMARK    6  A    between atoms: C_7  and  O_8 
ROOT
HETATM    1  C   UNK N   1      20.251  19.076   2.280  0.00  0.00     0.174 C 
ENDROOT
BRANCH   1   2
HETATM    2  C   UNK N   1      21.085  18.167   3.196  0.00  0.00     0.045 C 
BRANCH   2   3
HETATM    3  C   UNK N   1      21.344  18.757   4.578  0.00  0.00     0.076 C 
BRANCH   3   4
HETATM    4  S   UNK N   1      22.221  17.672   5.780  0.00  0.00    -0.173 SA
HETATM    5  C   UNK N   1      20.853  17.279   6.914  0.00  0.00     0.089 C 
ENDBRANCH   3   4
ENDBRANCH   2   3
ENDBRANCH   1   2
BRANCH   1   6
HETATM    6  N   UNK N   1      18.819  18.830   2.278  0.00  0.00    -0.418 N 
HETATM    7  H   UNK N   1      18.437  18.043   2.803  0.00  0.00     0.150 HD
HETATM    8  H   UNK N   1      18.196  19.443   1.753  0.00  0.00     0.150 HD
ENDBRANCH   1   6
BRANCH   1   9
HETATM    9  C   UNK N   1      20.739  20.189   1.386  0.00  0.00     0.163 C 
HETATM   10  O   UNK N   1      21.206  21.213   1.857  0.00  0.00    -0.648 OA
BRANCH   9  11
HETATM   11  O   UNK N   1      20.659  20.056   0.048  0.00  0.00    -0.775 OA
HETATM   12  H   UNK N   1      20.209  19.323  -0.325  0.00  0.00     0.167 HD
ENDBRANCH   9  11
ENDBRANCH   1   9
TORSDOF 6
ENDMDL
MODEL 8
REMARK VINA RESULT:      -3.7      5.284      5.863
REMARK  6 active torsions:
REMARK  status: ('A' for Active; 'I' for Inactive)
REMARK    1  A    between atoms: S_2  and  C_3 
REMARK    2  A    between atoms: C_3  and  C_4 
REMARK    3  A    between atoms: C_4  and  C_5 
REMARK    4  A    between atoms: C_5  and  N_6 
REMARK    5  A    between atoms: C_5  and  C_7 
REMARK    6  A    between atoms: C_7  and  O_8 
ROOT
HETATM    1  C   UNK N   1      34.885  14.996  11.369  0.00  0.00     0.174 C 
ENDROOT
BRANCH   1   2
HETATM    2  C   UNK N   1      35.289  13.812  12.262  0.00  0.00     0.045 C 
BRANCH   2   3
HETATM    3  C   UNK N   1      36.018  14.222  13.536  0.00  0.00     0.076 C 
BRANCH   3   4
HETATM    4  S   UNK N   1      36.614  12.854  14.615  0.00  0.00    -0.173 SA
HETATM    5  C   UNK N   1      35.770  13.280  16.170  0.00  0.00     0.089 C 
ENDBRANCH   3   4
ENDBRANCH   2   3
ENDBRANCH   1   2
BRANCH   1   6
HETATM    6  N   UNK N   1      33.521  14.976  10.870  0.00  0.00    -0.418 N 
HETATM    7  H   UNK N   1      33.113  14.102  10.535  0.00  0.00     0.150 HD
HETATM    8  H   UNK N   1      32.970  15.834  10.853  0.00  0.00     0.150 HD
ENDBRANCH   1   6
BRANCH   1   9
HETATM    9  C   UNK N   1      35.733  16.171  10.950  0.00  0.00     0.163 C 
HETATM   10  O   UNK N   1      35.229  17.264  10.742  0.00  0.00    -0.648 OA
BRANCH   9  11
HETATM   11  O   UNK N   1      37.063  16.019  10.804  0.00  0.00    -0.775 OA
HETATM   12  H   UNK N   1      37.511  15.338  11.266  0.00  0.00     0.167 HD
ENDBRANCH   9  11
ENDBRANCH   1   9
TORSDOF 6
ENDMDL
MODEL 9
REMARK VINA RESULT:      -3.6      2.541      3.621
REMARK  6 active torsions:
REMARK  status: ('A' for Active; 'I' for Inactive)
REMARK    1  A    between atoms: S_2  and  C_3 
REMARK    2  A    between atoms: C_3  and  C_4 
REMARK    3  A    between atoms: C_4  and  C_5 
REMARK    4  A    between atoms: C_5  and  N_6 
REMARK    5  A    between atoms: C_5  and  C_7 
REMARK    6  A    between atoms: C_7  and  O_8 
ROOT
HETATM    1  C   UNK N   1      34.652  17.025   9.071  0.00  0.00     0.174 C 
ENDROOT
BRANCH   1   2
HETATM    2  C   UNK N   1      34.275  15.580   8.711  0.00  0.00     0.045 C 
BRANCH   2   3
HETATM    3  C   UNK N   1      35.045  14.528   9.501  0.00  0.00     0.076 C 
BRANCH   3   4
HETATM    4  S   UNK N   1      36.451  13.717   8.631  0.00  0.00    -0.173 SA
HETATM    5  C   UNK N   1      37.822  14.185   9.732  0.00  0.00     0.089 C 
ENDBRANCH   3   4
ENDBRANCH   2   3
ENDBRANCH   1   2
BRANCH   1   6
HETATM    6  N   UNK N   1      34.970  17.268  10.468  0.00  0.00    -0.418 N 
HETATM    7  H   UNK N   1      35.157  18.218  10.790  0.00  0.00     0.150 HD
HETATM    8  H   UNK N   1      35.006  16.490  11.126  0.00  0.00     0.150 HD
ENDBRANCH   1   6
BRANCH   1   9
HETATM    9  C   UNK N   1      34.731  18.218   8.151  0.00  0.00     0.163 C 
HETATM   10  O   UNK N   1      35.166  19.288   8.547  0.00  0.00    -0.648 OA
BRANCH   9  11
HETATM   11  O   UNK N   1      34.317  18.107   6.874  0.00  0.00    -0.775 OA
HETATM   12  H   UNK N   1      34.760  18.577   6.195  0.00  0.00     0.167 HD
ENDBRANCH   9  11
ENDBRANCH   1   9
TORSDOF 6
ENDMDL
