MODEL 1
REMARK VINA RESULT:      -3.3      0.000      0.000
REMARK  7 active torsions:
REMARK  status: ('A' for Active; 'I' for Inactive)
REMARK    1  A    between atoms: O_1  and  C_2 
REMARK    2  A    between atoms: C_2  and  C_3 
REMARK    3  A    between atoms: C_3  and  S_4 
REMARK    4  A    between atoms: S_4  and  S_5 
REMARK    5  A    between atoms: S_5  and  C_6 
REMARK    6  A    between atoms: C_6  and  C_7 
REMARK    7  A    between atoms: C_7  and  O_8 
ROOT
HETATM    1  S   UNK N   1      19.639  18.565   2.632  0.00  0.00    -0.096 SA
ENDROOT
BRANCH   1   2
HETATM    2  C   UNK N   1      20.275  17.028   1.924  0.00  0.00     0.112 C 
BRANCH   2   3
HETATM    3  C   UNK N   1      19.812  16.904   0.491  0.00  0.00     0.175 C 
BRANCH   3   4
HETATM    4  O   UNK N   1      20.372  17.934  -0.260  0.00  0.00    -0.400 OA
HETATM    5  H   UNK N   1      20.210  18.858  -0.012  0.00  0.00     0.209 HD
ENDBRANCH   3   4
ENDBRANCH   2   3
ENDBRANCH   1   2
BRANCH   1   6
HETATM    6  S   UNK N   1      21.605  19.186   3.134  0.00  0.00    -0.096 SA
BRANCH   6   7
HETATM    7  C   UNK N   1      21.225  20.884   2.644  0.00  0.00     0.112 C 
BRANCH   7   8
HETATM    8  C   UNK N   1      20.539  20.879   1.297  0.00  0.00     0.175 C 
BRANCH   8   9
HETATM    9  O   UNK N   1      21.491  20.692   0.301  0.00  0.00    -0.400 OA
HETATM   10  H   UNK N   1      21.393  19.966  -0.334  0.00  0.00     0.209 HD
ENDBRANCH   8   9
ENDBRANCH   7   8
ENDBRANCH   6   7
ENDBRANCH   1   6
TORSDOF 7
ENDMDL
MODEL 2
REMARK VINA RESULT:      -3.1     12.268     13.241
REMARK  7 active torsions:
REMARK  status: ('A' for Active; 'I' for Inactive)
REMARK    1  A    between atoms: O_1  and  C_2 
REMARK    2  A    between atoms: C_2  and  C_3 
REMARK    3  A    between atoms: C_3  and  S_4 
REMARK    4  A    between atoms: S_4  and  S_5 
REMARK    5  A    between atoms: S_5  and  C_6 
REMARK    6  A    between atoms: C_6  and  C_7 
REMARK    7  A    between atoms: C_7  and  O_8 
ROOT
HETATM    1  S   UNK N   1      32.137  16.412   8.096  0.00  0.00    -0.096 SA
ENDROOT
BRANCH   1   2
HETATM    2  C   UNK N   1      32.861  18.057   8.294  0.00  0.00     0.112 C 
BRANCH   2   3
HETATM    3  C   UNK N   1      34.292  18.039   7.810  0.00  0.00     0.175 C 
BRANCH   3   4
HETATM    4  O   UNK N   1      34.974  19.119   8.362  0.00  0.00    -0.400 OA
HETATM    5  H   UNK N   1      34.526  19.704   8.993  0.00  0.00     0.209 HD
ENDBRANCH   3   4
ENDBRANCH   2   3
ENDBRANCH   1   2
BRANCH   1   6
HETATM    6  S   UNK N   1      30.467  17.232   7.076  0.00  0.00    -0.096 SA
BRANCH   6   7
HETATM    7  C   UNK N   1      29.655  17.607   8.647  0.00  0.00     0.112 C 
BRANCH   7   8
HETATM    8  C   UNK N   1      28.461  18.499   8.397  0.00  0.00     0.175 C 
BRANCH   8   9
HETATM    9  O   UNK N   1      27.484  18.231   9.350  0.00  0.00    -0.400 OA
HETATM   10  H   UNK N   1      27.715  18.225  10.292  0.00  0.00     0.209 HD
ENDBRANCH   8   9
ENDBRANCH   7   8
ENDBRANCH   6   7
ENDBRANCH   1   6
TORSDOF 7
ENDMDL
MODEL 3
REMARK VINA RESULT:      -3.0     16.121     16.960
REMARK  7 active torsions:
REMARK  status: ('A' for Active; 'I' for Inactive)
REMARK    1  A    between atoms: O_1  and  C_2 
REMARK    2  A    between atoms: C_2  and  C_3 
REMARK    3  A    between atoms: C_3  and  S_4 
REMARK    4  A    between atoms: S_4  and  S_5 
REMARK    5  A    between atoms: S_5  and  C_6 
REMARK    6  A    between atoms: C_6  and  C_7 
REMARK    7  A    between atoms: C_7  and  O_8 
ROOT
HETATM    1  S   UNK N   1      33.494  15.917   8.855  0.00  0.00    -0.096 SA
ENDROOT
BRANCH   1   2
HETATM    2  C   UNK N   1      34.537  17.014   7.867  0.00  0.00     0.112 C 
BRANCH   2   3
HETATM    3  C   UNK N   1      34.152  18.450   8.134  0.00  0.00     0.175 C 
BRANCH   3   4
HETATM    4  O   UNK N   1      35.291  19.171   8.480  0.00  0.00    -0.400 OA
HETATM    5  H   UNK N   1      35.270  19.776   9.239  0.00  0.00     0.209 HD
ENDBRANCH   3   4
ENDBRANCH   2   3
ENDBRANCH   1   2
BRANCH   1   6
HETATM    6  S   UNK N   1      35.142  14.632   9.230  0.00  0.00    -0.096 SA
BRANCH   6   7
HETATM    7  C   UNK N   1      34.900  14.795  11.014  0.00  0.00     0.112 C 
BRANCH   7   8
HETATM    8  C   UNK N   1      35.640  16.013  11.514  0.00  0.00     0.175 C 
BRANCH   8   9
HETATM    9  O   UNK N   1      36.832  16.145  10.809  0.00  0.00    -0.400 OA
HETATM   10  H   UNK N   1      37.503  15.447  10.858  0.00  0.00     0.209 HD
ENDBRANCH   8   9
ENDBRANCH   7   8
ENDBRANCH   6   7
ENDBRANCH   1   6
TORSDOF 7
ENDMDL
MODEL 4
REMARK VINA RESULT:      -3.0     16.548     17.399
REMARK  7 active torsions:
REMARK  status: ('A' for Active; 'I' for Inactive)
REMARK    1  A    between atoms: O_1  and  C_2 
REMARK    2  A    between atoms: C_2  and  C_3 
REMARK    3  A    between atoms: C_3  and  S_4 
REMARK    4  A    between atoms: S_4  and  S_5 
REMARK    5  A    between atoms: S_5  and  C_6 
REMARK    6  A    between atoms: C_6  and  C_7 
REMARK    7  A    between atoms: C_7  and  O_8 
ROOT
HETATM    1  S   UNK N   1      34.839  15.792   8.810  0.00  0.00    -0.096 SA
ENDROOT
BRANCH   1   2
HETATM    2  C   UNK N   1      33.925  17.347   8.946  0.00  0.00     0.112 C 
BRANCH   2   3
HETATM    3  C   UNK N   1      34.450  18.329   7.926  0.00  0.00     0.175 C 
BRANCH   3   4
HETATM    4  O   UNK N   1      35.318  19.218   8.553  0.00  0.00    -0.400 OA
HETATM    5  H   UNK N   1      36.235  18.957   8.732  0.00  0.00     0.209 HD
ENDBRANCH   3   4
ENDBRANCH   2   3
ENDBRANCH   1   2
BRANCH   1   6
HETATM    6  S   UNK N   1      35.535  15.988  10.806  0.00  0.00    -0.096 SA
BRANCH   6   7
HETATM    7  C   UNK N   1      34.504  14.601  11.333  0.00  0.00     0.112 C 
BRANCH   7   8
HETATM    8  C   UNK N   1      35.303  13.694  12.240  0.00  0.00     0.175 C 
BRANCH   8   9
HETATM    9  O   UNK N   1      34.452  13.125  13.181  0.00  0.00    -0.400 OA
HETATM   10  H   UNK N   1      34.321  12.164  13.199  0.00  0.00     0.209 HD
ENDBRANCH   8   9
ENDBRANCH   7   8
ENDBRANCH   6   7
ENDBRANCH   1   6
TORSDOF 7
ENDMDL
MODEL 5
REMARK VINA RESULT:      -3.0     16.142     16.826
REMARK  7 active torsions:
REMARK  status: ('A' for Active; 'I' for Inactive)
REMARK    1  A    between atoms: O_1  and  C_2 
REMARK    2  A    between atoms: C_2  and  C_3 
REMARK    3  A    between atoms: C_3  and  S_4 
REMARK    4  A    between atoms: S_4  and  S_5 
REMARK    5  A    between atoms: S_5  and  C_6 
REMARK    6  A    between atoms: C_6  and  C_7 
REMARK    7  A    between atoms: C_7  and  O_8 
ROOT
HETATM    1  S   UNK N   1      34.938  14.521   8.224  0.00  0.00    -0.096 SA
ENDROOT
BRANCH   1   2
HETATM    2  C   UNK N   1      35.193  15.009   9.946  0.00  0.00     0.112 C 
BRANCH   2   3
HETATM    3  C   UNK N   1      36.651  14.844  10.304  0.00  0.00     0.175 C 
BRANCH   3   4
HETATM    4  O   UNK N   1      37.109  16.015  10.902  0.00  0.00    -0.400 OA
HETATM    5  H   UNK N   1      36.705  16.330  11.725  0.00  0.00     0.209 HD
ENDBRANCH   3   4
ENDBRANCH   2   3
ENDBRANCH   1   2
BRANCH   1   6
HETATM    6  S   UNK N   1      33.327  15.891   8.040  0.00  0.00    -0.096 SA
BRANCH   6   7
HETATM    7  C   UNK N   1      34.271  17.162   8.912  0.00  0.00     0.112 C 
BRANCH   7   8
HETATM    8  C   UNK N   1      34.331  18.414   8.068  0.00  0.00     0.175 C 
BRANCH   8   9
HETATM    9  O   UNK N   1      35.331  19.247   8.558  0.00  0.00    -0.400 OA
HETATM   10  H   UNK N   1      35.133  20.173   8.766  0.00  0.00     0.209 HD
ENDBRANCH   8   9
ENDBRANCH   7   8
ENDBRANCH   6   7
ENDBRANCH   1   6
TORSDOF 7
ENDMDL
MODEL 6
REMARK VINA RESULT:      -3.0     12.238     12.916
REMARK  7 active torsions:
REMARK  status: ('A' for Active; 'I' for Inactive)
REMARK    1  A    between atoms: O_1  and  C_2 
REMARK    2  A    between atoms: C_2  and  C_3 
REMARK    3  A    between atoms: C_3  and  S_4 
REMARK    4  A    between atoms: S_4  and  S_5 
REMARK    5  A    between atoms: S_5  and  C_6 
REMARK    6  A    between atoms: C_6  and  C_7 
REMARK    7  A    between atoms: C_7  and  O_8 
ROOT
HETATM    1  S   UNK N   1      32.634  21.555  -5.478  0.00  0.00    -0.096 SA
ENDROOT
BRANCH   1   2
HETATM    2  C   UNK N   1      32.869  20.310  -4.189  0.00  0.00     0.112 C 
BRANCH   2   3
HETATM    3  C   UNK N   1      33.739  20.878  -3.092  0.00  0.00     0.175 C 
BRANCH   3   4
HETATM    4  O   UNK N   1      32.970  21.058  -1.946  0.00  0.00    -0.400 OA
HETATM    5  H   UNK N   1      33.165  20.545  -1.146  0.00  0.00     0.209 HD
ENDBRANCH   3   4
ENDBRANCH   2   3
ENDBRANCH   1   2
BRANCH   1   6
HETATM    6  S   UNK N   1      30.542  21.578  -5.121  0.00  0.00    -0.096 SA
BRANCH   6   7
HETATM    7  C   UNK N   1      30.726  22.945  -3.954  0.00  0.00     0.112 C 
BRANCH   7   8
HETATM    8  C   UNK N   1      29.870  22.687  -2.735  0.00  0.00     0.175 C 
BRANCH   8   9
HETATM    9  O   UNK N   1      30.630  22.902  -1.590  0.00  0.00    -0.400 OA
HETATM   10  H   UNK N   1      31.043  23.767  -1.438  0.00  0.00     0.209 HD
ENDBRANCH   8   9
ENDBRANCH   7   8
ENDBRANCH   6   7
ENDBRANCH   1   6
TORSDOF 7
ENDMDL
MODEL 7
REMARK VINA RESULT:      -2.9     11.697     12.476
REMARK  7 active torsions:
REMARK  status: ('A' for Active; 'I' for Inactive)
REMARK    1  A    between atoms: O_1  and  C_2 
REMARK    2  A    between atoms: C_2  and  C_3 
REMARK    3  A    between atoms: C_3  and  S_4 
REMARK    4  A    between atoms: S_4  and  S_5 
REMARK    5  A    between atoms: S_5  and  C_6 
REMARK    6  A    between atoms: C_6  and  C_7 
REMARK    7  A    between atoms: C_7  and  O_8 
ROOT
HETATM    1  S   UNK N   1      30.034  16.899   6.777  0.00  0.00    -0.096 SA
ENDROOT
BRANCH   1   2
HETATM    2  C   UNK N   1      28.430  17.512   7.341  0.00  0.00     0.112 C 
BRANCH   2   3
HETATM    3  C   UNK N   1      28.615  18.320   8.604  0.00  0.00     0.175 C 
BRANCH   3   4
HETATM    4  O   UNK N   1      27.454  18.246   9.368  0.00  0.00    -0.400 OA
HETATM    5  H   UNK N   1      26.806  18.968   9.336  0.00  0.00     0.209 HD
ENDBRANCH   3   4
ENDBRANCH   2   3
ENDBRANCH   1   2
BRANCH   1   6
HETATM    6  S   UNK N   1      30.980  17.683   8.508  0.00  0.00    -0.096 SA
BRANCH   6   7
HETATM    7  C   UNK N   1      32.592  17.116   7.920  0.00  0.00     0.112 C 
BRANCH   7   8
HETATM    8  C   UNK N   1      33.577  18.261   7.965  0.00  0.00     0.175 C 
BRANCH   8   9
HETATM    9  O   UNK N   1      34.528  18.084   6.964  0.00  0.00    -0.400 OA
HETATM   10  H   UNK N   1      34.776  18.829   6.394  0.00  0.00     0.209 HD
ENDBRANCH   8   9
ENDBRANCH   7   8
ENDBRANCH   6   7
ENDBRANCH   1   6
TORSDOF 7
ENDMDL
MODEL 8
REMARK VINA RESULT:      -2.9     18.786     19.499
REMARK  7 active torsions:
REMARK  status: ('A' for Active; 'I' for Inactive)
REMARK    1  A    between atoms: O_1  and  C_2 
REMARK    2  A    between atoms: C_2  and  C_3 
REMARK    3  A    between atoms: C_3  and  S_4 
REMARK    4  A    between atoms: S_4  and  S_5 
REMARK    5  A    between atoms: S_5  and  C_6 
REMARK    6  A    between atoms: C_6  and  C_7 
REMARK    7  A    between atoms: C_7  and  O_8 
ROOT
HETATM    1  S   UNK N   1      35.763  13.693  10.575  0.00  0.00    -0.096 SA
ENDROOT
BRANCH   1   2
HETATM    2  C   UNK N   1      34.739  15.135  10.947  0.00  0.00     0.112 C 
BRANCH   2   3
HETATM    3  C   UNK N   1      35.568  16.390  10.808  0.00  0.00     0.175 C 
BRANCH   3   4
HETATM    4  O   UNK N   1      36.912  16.071  10.981  0.00  0.00    -0.400 OA
HETATM    5  H   UNK N   1      37.507  16.044  10.215  0.00  0.00     0.209 HD
ENDBRANCH   3   4
ENDBRANCH   2   3
ENDBRANCH   1   2
BRANCH   1   6
HETATM    6  S   UNK N   1      35.041  12.693  12.303  0.00  0.00    -0.096 SA
BRANCH   6   7
HETATM    7  C   UNK N   1      36.635  12.902  13.127  0.00  0.00     0.112 C 
BRANCH   7   8
HETATM    8  C   UNK N   1      36.476  13.833  14.307  0.00  0.00     0.175 C 
BRANCH   8   9
HETATM    9  O   UNK N   1      36.826  15.122  13.921  0.00  0.00    -0.400 OA
HETATM   10  H   UNK N   1      37.396  15.260  13.148  0.00  0.00     0.209 HD
ENDBRANCH   8   9
ENDBRANCH   7   8
ENDBRANCH   6   7
ENDBRANCH   1   6
TORSDOF 7
ENDMDL
MODEL 9
REMARK VINA RESULT:      -2.8     14.526     15.206
REMARK  7 active torsions:
REMARK  status: ('A' for Active; 'I' for Inactive)
REMARK    1  A    between atoms: O_1  and  C_2 
REMARK    2  A    between atoms: C_2  and  C_3 
REMARK    3  A    between atoms: C_3  and  S_4 
REMARK    4  A    between atoms: S_4  and  S_5 
REMARK    5  A    between atoms: S_5  and  C_6 
REMARK    6  A    between atoms: C_6  and  C_7 
REMARK    7  A    between atoms: C_7  and  O_8 
ROOT
HETATM    1  S   UNK N   1      33.058  15.543   8.671  0.00  0.00    -0.096 SA
ENDROOT
BRANCH   1   2
HETATM    2  C   UNK N   1      34.433  16.191   9.650  0.00  0.00     0.112 C 
BRANCH   2   3
HETATM    3  C   UNK N   1      34.621  15.335  10.880  0.00  0.00     0.175 C 
BRANCH   3   4
HETATM    4  O   UNK N   1      33.382  14.855  11.297  0.00  0.00    -0.400 OA
HETATM    5  H   UNK N   1      32.625  14.876  10.690  0.00  0.00     0.209 HD
ENDBRANCH   3   4
ENDBRANCH   2   3
ENDBRANCH   1   2
BRANCH   1   6
HETATM    6  S   UNK N   1      32.358  17.511   8.292  0.00  0.00    -0.096 SA
BRANCH   6   7
HETATM    7  C   UNK N   1      32.300  17.180   6.516  0.00  0.00     0.112 C 
BRANCH   7   8
HETATM    8  C   UNK N   1      33.705  17.150   5.962  0.00  0.00     0.175 C 
BRANCH   8   9
HETATM    9  O   UNK N   1      34.484  18.078   6.645  0.00  0.00    -0.400 OA
HETATM   10  H   UNK N   1      34.695  18.931   6.234  0.00  0.00     0.209 HD
ENDBRANCH   8   9
ENDBRANCH   7   8
ENDBRANCH   6   7
ENDBRANCH   1   6
TORSDOF 7
ENDMDL
