REMARK  4 active torsions:
REMARK  status: ('A' for Active; 'I' for Inactive)
REMARK    1  A    between atoms: O_1  and  C_2 
REMARK    2  A    between atoms: C_2  and  C_3 
REMARK    3  A    between atoms: C_3  and  C_5 
REMARK    4  A    between atoms: C_5  and  O_6 
ROOT
HETATM    1  C   UNK N   1       1.717   0.758   0.000  0.00  0.00     0.244 C 
HETATM    2  O   UNK N   1       2.881   0.389   0.000  0.00  0.00    -0.284 OA
ENDROOT
BRANCH   1   3
HETATM    3  C   UNK N   1       1.452   2.244  -0.000  0.00  0.00     0.254 C 
BRANCH   3   4
HETATM    4  O   UNK N   1       0.095   2.570  -0.000  0.00  0.00    -0.393 OA
HETATM    5  H   UNK N   1      -0.180   3.500  -0.000  0.00  0.00     0.210 HD
ENDBRANCH   3   4
ENDBRANCH   1   3
BRANCH   1   6
HETATM    6  C   UNK N   1       0.651  -0.278  -0.000  0.00  0.00     0.215 C 
HETATM    7  O   UNK N   1      -0.531   0.030  -0.000  0.00  0.00    -0.644 OA
BRANCH   6   8
HETATM    8  O   UNK N   1       0.992  -1.581   0.000  0.00  0.00    -0.771 OA
HETATM    9  H   UNK N   1       0.325  -2.240   0.000  0.00  0.00     0.167 HD
ENDBRANCH   6   8
ENDBRANCH   1   6
TORSDOF 4
