MODEL 1
REMARK VINA RESULT:     -10.2      0.000      0.000
REMARK  11 active torsions:
REMARK  status: ('A' for Active; 'I' for Inactive)
REMARK    1  A    between atoms: N_1  and  C_2 
REMARK    2  A    between atoms: C_3  and  S_51 
REMARK    3  A    between atoms: C_5  and  N_6 
REMARK    4  A    between atoms: N_6  and  C_7 
REMARK    5  A    between atoms: C_10  and  N_11 
REMARK       I    between atoms: N_11  and  C_12 
REMARK       I    between atoms: C_19  and  N_20 
REMARK    6  A    between atoms: N_20  and  C_21 
REMARK    7  A    between atoms: C_26  and  S_27 
REMARK    8  A    between atoms: S_27  and  O_28 
REMARK    9  A    between atoms: C_33  and  S_35 
REMARK   10  A    between atoms: S_35  and  O_36 
REMARK   11  A    between atoms: S_51  and  O_52 
ROOT
HETATM    1  C   UNK N   1      26.354  15.626   5.774  0.00  0.00     0.034 A 
HETATM    2  C   UNK N   1      26.468  14.258   5.530  0.00  0.00     0.032 A 
HETATM    3  C   UNK N   1      27.686  13.740   5.061  0.00  0.00     0.034 A 
HETATM    4  C   UNK N   1      28.798  14.575   4.837  0.00  0.00     0.072 A 
HETATM    5  C   UNK N   1      28.622  15.986   4.989  0.00  0.00     0.101 A 
HETATM    6  C   UNK N   1      27.414  16.457   5.455  0.00  0.00     0.057 A 
ENDROOT
BRANCH   1   7
HETATM    7  N   UNK N   1      25.208  16.168   6.426  0.00  0.00    -0.355 N 
HETATM    8  H   UNK N   1      25.339  16.879   7.094  0.00  0.00     0.166 HD
BRANCH   7   9
HETATM    9  C   UNK N   1      23.871  15.721   6.147  0.00  0.00     0.049 A 
HETATM   10  C   UNK N   1      23.417  14.509   6.683  0.00  0.00     0.058 A 
HETATM   11  C   UNK N   1      22.144  14.026   6.449  0.00  0.00     0.101 A 
HETATM   12  C   UNK N   1      21.267  14.748   5.637  0.00  0.00     0.065 A 
HETATM   13  C   UNK N   1      21.686  15.977   5.059  0.00  0.00     0.059 A 
HETATM   14  C   UNK N   1      23.000  16.469   5.318  0.00  0.00     0.058 A 
HETATM   15  C   UNK N   1      20.766  16.770   4.187  0.00  0.00     0.196 A 
HETATM   16  C   UNK N   1      23.430  17.770   4.723  0.00  0.00     0.196 A 
HETATM   17  C   UNK N   1      22.497  18.546   3.881  0.00  0.00     0.029 A 
HETATM   18  O   UNK N   1      24.551  18.212   4.933  0.00  0.00    -0.286 OA
HETATM   19  C   UNK N   1      22.897  19.777   3.341  0.00  0.00     0.016 A 
HETATM   20  C   UNK N   1      21.206  18.059   3.621  0.00  0.00     0.029 A 
HETATM   21  C   UNK N   1      22.019  20.517   2.547  0.00  0.00     0.001 A 
HETATM   22  C   UNK N   1      20.737  20.033   2.286  0.00  0.00     0.001 A 
HETATM   23  C   UNK N   1      20.331  18.809   2.820  0.00  0.00     0.016 A 
HETATM   24  O   UNK N   1      19.640  16.363   3.937  0.00  0.00    -0.286 OA
BRANCH  11  25
HETATM   25  S   UNK N   1      21.656  12.486   7.236  0.00  0.00     0.132 S 
HETATM   26  O   UNK N   1      21.026  12.742   8.614  0.00  0.00    -0.597 OA
HETATM   27  O   UNK N   1      22.853  11.602   7.616  0.00  0.00    -0.597 OA
BRANCH  25  28
HETATM   28  O   UNK N   1      20.551  11.455   6.422  0.00  0.00    -0.292 OA
HETATM   29  H   UNK N   1      20.325  10.784   5.757  0.00  0.00     0.232 HD
ENDBRANCH  25  28
ENDBRANCH  11  25
BRANCH  12  30
HETATM   30  N   UNK N   1      19.966  14.244   5.413  0.00  0.00    -0.397 N 
HETATM   31  H   UNK N   1      19.731  13.335   5.707  0.00  0.00     0.156 HD
HETATM   32  H   UNK N   1      19.292  14.805   4.962  0.00  0.00     0.156 HD
ENDBRANCH  12  30
ENDBRANCH   7   9
ENDBRANCH   1   7
BRANCH   5  33
HETATM   33  S   UNK N   1      29.803  17.303   4.718  0.00  0.00     0.132 S 
HETATM   34  O   UNK N   1      30.504  17.548   6.057  0.00  0.00    -0.597 OA
HETATM   35  O   UNK N   1      30.976  17.063   3.758  0.00  0.00    -0.597 OA
BRANCH  33  36
HETATM   36  O   UNK N   1      29.177  18.858   4.355  0.00  0.00    -0.292 OA
HETATM   37  H   UNK N   1      28.716  19.378   3.678  0.00  0.00     0.232 HD
ENDBRANCH  33  36
ENDBRANCH   5  33
BRANCH   4  38
HETATM   38  N   UNK N   1      30.033  13.935   4.514  0.00  0.00    -0.190 N 
HETATM   39  C   UNK N   1      31.181  13.878   5.354  0.00  0.00     0.699 A 
HETATM   40  N   UNK N   1      32.260  13.145   4.976  0.00  0.00    -0.164 N 
HETATM   41  N   UNK N   1      31.210  14.533   6.537  0.00  0.00    -0.022 N 
HETATM   42  C   UNK N   1      33.359  13.093   5.773  0.00  0.00     0.208 A 
ATOM     43  HN  UNK N   1      32.245  12.634   4.093  1.00  0.00     0.186 HD
HETATM   44 Cl   UNK N   1      34.741  12.132   5.292  0.00  0.00    -0.044 Cl
HETATM   45  N   UNK N   1      33.399  13.807   6.931  0.00  0.00    -0.164 N 
HETATM   46  C   UNK N   1      32.316  14.534   7.317  0.00  0.00     0.699 A 
ATOM     47  HN  UNK N   1      34.239  13.797   7.508  1.00  0.00     0.186 HD
HETATM   48  N   UNK N   1      32.360  15.404   8.448  0.00  0.00    -0.190 N 
HETATM   49  H   UNK N   1      31.567  15.967   8.605  0.00  0.00     0.184 HD
ATOM     50  HN  UNK N   1      30.380  15.038   6.849  1.00  0.00     0.203 HD
HETATM   51  H   UNK N   1      30.096  13.496   3.634  0.00  0.00     0.184 HD
BRANCH  48  52
HETATM   52  C   UNK N   1      33.434  15.542   9.372  0.00  0.00     0.072 A 
HETATM   53  C   UNK N   1      33.648  14.574  10.365  0.00  0.00     0.031 A 
HETATM   54  C   UNK N   1      34.690  14.713  11.283  0.00  0.00     0.002 A 
HETATM   55  C   UNK N   1      35.532  15.822  11.220  0.00  0.00     0.002 A 
HETATM   56  C   UNK N   1      35.338  16.790  10.237  0.00  0.00     0.028 A 
HETATM   57  C   UNK N   1      34.299  16.666   9.310  0.00  0.00     0.099 A 
BRANCH  57  58
HETATM   58  S   UNK N   1      34.153  17.963   8.068  0.00  0.00     0.132 S 
HETATM   59  O   UNK N   1      34.978  19.219   8.358  0.00  0.00    -0.597 OA
HETATM   60  O   UNK N   1      32.738  18.561   8.120  0.00  0.00    -0.597 OA
BRANCH  58  61
HETATM   61  O   UNK N   1      34.377  17.590   6.409  0.00  0.00    -0.292 OA
HETATM   62  H   UNK N   1      35.204  17.425   5.929  0.00  0.00     0.232 HD
ENDBRANCH  58  61
ENDBRANCH  57  58
ENDBRANCH  48  52
ENDBRANCH   4  38
TORSDOF 11
ENDMDL
MODEL 2
REMARK VINA RESULT:     -10.0      1.933      4.288
REMARK  11 active torsions:
REMARK  status: ('A' for Active; 'I' for Inactive)
REMARK    1  A    between atoms: N_1  and  C_2 
REMARK    2  A    between atoms: C_3  and  S_51 
REMARK    3  A    between atoms: C_5  and  N_6 
REMARK    4  A    between atoms: N_6  and  C_7 
REMARK    5  A    between atoms: C_10  and  N_11 
REMARK       I    between atoms: N_11  and  C_12 
REMARK       I    between atoms: C_19  and  N_20 
REMARK    6  A    between atoms: N_20  and  C_21 
REMARK    7  A    between atoms: C_26  and  S_27 
REMARK    8  A    between atoms: S_27  and  O_28 
REMARK    9  A    between atoms: C_33  and  S_35 
REMARK   10  A    between atoms: S_35  and  O_36 
REMARK   11  A    between atoms: S_51  and  O_52 
ROOT
HETATM    1  C   UNK N   1      26.665  15.484   5.456  0.00  0.00     0.034 A 
HETATM    2  C   UNK N   1      26.783  14.109   5.257  0.00  0.00     0.032 A 
HETATM    3  C   UNK N   1      28.019  13.570   4.869  0.00  0.00     0.034 A 
HETATM    4  C   UNK N   1      29.148  14.393   4.680  0.00  0.00     0.072 A 
HETATM    5  C   UNK N   1      28.974  15.809   4.783  0.00  0.00     0.101 A 
HETATM    6  C   UNK N   1      27.746  16.299   5.171  0.00  0.00     0.057 A 
ENDROOT
BRANCH   1   7
HETATM    7  N   UNK N   1      25.490  16.050   6.030  0.00  0.00    -0.355 N 
HETATM    8  H   UNK N   1      25.568  16.905   6.514  0.00  0.00     0.166 HD
BRANCH   7   9
HETATM    9  C   UNK N   1      24.199  15.428   5.933  0.00  0.00     0.049 A 
HETATM   10  C   UNK N   1      23.370  15.714   4.841  0.00  0.00     0.058 A 
HETATM   11  C   UNK N   1      22.117  15.149   4.693  0.00  0.00     0.101 A 
HETATM   12  C   UNK N   1      21.634  14.272   5.666  0.00  0.00     0.065 A 
HETATM   13  C   UNK N   1      22.431  13.961   6.800  0.00  0.00     0.059 A 
HETATM   14  C   UNK N   1      23.728  14.544   6.934  0.00  0.00     0.058 A 
HETATM   15  C   UNK N   1      21.937  13.026   7.855  0.00  0.00     0.196 A 
HETATM   16  C   UNK N   1      24.570  14.201   8.119  0.00  0.00     0.196 A 
HETATM   17  C   UNK N   1      24.069  13.257   9.138  0.00  0.00     0.029 A 
HETATM   18  O   UNK N   1      25.684  14.687   8.253  0.00  0.00    -0.286 OA
HETATM   19  C   UNK N   1      24.870  12.922  10.239  0.00  0.00     0.016 A 
HETATM   20  C   UNK N   1      22.791  12.689   9.011  0.00  0.00     0.029 A 
HETATM   21  C   UNK N   1      24.404  12.028  11.205  0.00  0.00     0.001 A 
HETATM   22  C   UNK N   1      23.134  11.465  11.080  0.00  0.00     0.001 A 
HETATM   23  C   UNK N   1      22.329  11.794   9.987  0.00  0.00     0.016 A 
HETATM   24  O   UNK N   1      20.824  12.525   7.772  0.00  0.00    -0.286 OA
BRANCH  11  25
HETATM   25  S   UNK N   1      21.168  15.549   3.221  0.00  0.00     0.132 S 
HETATM   26  O   UNK N   1      21.666  14.751   2.006  0.00  0.00    -0.597 OA
HETATM   27  O   UNK N   1      21.387  16.991   2.739  0.00  0.00    -0.597 OA
BRANCH  25  28
HETATM   28  O   UNK N   1      19.468  15.314   3.244  0.00  0.00    -0.292 OA
HETATM   29  H   UNK N   1      18.638  14.972   2.874  0.00  0.00     0.232 HD
ENDBRANCH  25  28
ENDBRANCH  11  25
BRANCH  12  30
HETATM   30  N   UNK N   1      20.353  13.697   5.497  0.00  0.00    -0.397 N 
HETATM   31  H   UNK N   1      20.084  13.341   4.620  0.00  0.00     0.156 HD
HETATM   32  H   UNK N   1      19.730  13.653   6.258  0.00  0.00     0.156 HD
ENDBRANCH  12  30
ENDBRANCH   7   9
ENDBRANCH   1   7
BRANCH   5  33
HETATM   33  S   UNK N   1      30.176  17.111   4.538  0.00  0.00     0.132 S 
HETATM   34  O   UNK N   1      29.423  18.437   4.671  0.00  0.00    -0.597 OA
HETATM   35  O   UNK N   1      31.321  17.265   5.549  0.00  0.00    -0.597 OA
BRANCH  33  36
HETATM   36  O   UNK N   1      30.874  17.254   2.977  0.00  0.00    -0.292 OA
HETATM   37  H   UNK N   1      30.787  16.976   2.051  0.00  0.00     0.232 HD
ENDBRANCH  33  36
ENDBRANCH   5  33
BRANCH   4  38
HETATM   38  N   UNK N   1      30.393  13.738   4.441  0.00  0.00    -0.190 N 
HETATM   39  C   UNK N   1      31.499  13.708   5.337  0.00  0.00     0.699 A 
HETATM   40  N   UNK N   1      32.592  12.958   5.039  0.00  0.00    -0.164 N 
HETATM   41  N   UNK N   1      31.474  14.407   6.495  0.00  0.00    -0.022 N 
HETATM   42  C   UNK N   1      33.650  12.932   5.890  0.00  0.00     0.208 A 
ATOM     43  HN  UNK N   1      32.616  12.414   4.177  1.00  0.00     0.186 HD
HETATM   44 Cl   UNK N   1      35.049  11.949   5.513  0.00  0.00    -0.044 Cl
HETATM   45  N   UNK N   1      33.638  13.688   7.021  0.00  0.00    -0.164 N 
HETATM   46  C   UNK N   1      32.542  14.432   7.327  0.00  0.00     0.699 A 
ATOM     47  HN  UNK N   1      34.450  13.697   7.639  1.00  0.00     0.186 HD
HETATM   48  N   UNK N   1      32.535  15.345   8.426  0.00  0.00    -0.190 N 
HETATM   49  H   UNK N   1      31.739  15.915   8.523  0.00  0.00     0.184 HD
ATOM     50  HN  UNK N   1      30.633  14.925   6.747  1.00  0.00     0.203 HD
HETATM   51  H   UNK N   1      30.497  13.266   3.582  0.00  0.00     0.184 HD
BRANCH  48  52
HETATM   52  C   UNK N   1      33.564  15.513   9.395  0.00  0.00     0.072 A 
HETATM   53  C   UNK N   1      33.770  14.547  10.391  0.00  0.00     0.031 A 
HETATM   54  C   UNK N   1      34.767  14.715  11.352  0.00  0.00     0.002 A 
HETATM   55  C   UNK N   1      35.572  15.853  11.331  0.00  0.00     0.002 A 
HETATM   56  C   UNK N   1      35.386  16.820  10.347  0.00  0.00     0.028 A 
HETATM   57  C   UNK N   1      34.391  16.667   9.375  0.00  0.00     0.099 A 
BRANCH  57  58
HETATM   58  S   UNK N   1      34.252  17.967   8.136  0.00  0.00     0.132 S 
HETATM   59  O   UNK N   1      35.094  19.213   8.421  0.00  0.00    -0.597 OA
HETATM   60  O   UNK N   1      32.845  18.581   8.198  0.00  0.00    -0.597 OA
BRANCH  58  61
HETATM   61  O   UNK N   1      34.460  17.592   6.475  0.00  0.00    -0.292 OA
HETATM   62  H   UNK N   1      35.263  17.651   5.934  0.00  0.00     0.232 HD
ENDBRANCH  58  61
ENDBRANCH  57  58
ENDBRANCH  48  52
ENDBRANCH   4  38
TORSDOF 11
ENDMDL
MODEL 3
REMARK VINA RESULT:      -9.8      3.042      5.196
REMARK  11 active torsions:
REMARK  status: ('A' for Active; 'I' for Inactive)
REMARK    1  A    between atoms: N_1  and  C_2 
REMARK    2  A    between atoms: C_3  and  S_51 
REMARK    3  A    between atoms: C_5  and  N_6 
REMARK    4  A    between atoms: N_6  and  C_7 
REMARK    5  A    between atoms: C_10  and  N_11 
REMARK       I    between atoms: N_11  and  C_12 
REMARK       I    between atoms: C_19  and  N_20 
REMARK    6  A    between atoms: N_20  and  C_21 
REMARK    7  A    between atoms: C_26  and  S_27 
REMARK    8  A    between atoms: S_27  and  O_28 
REMARK    9  A    between atoms: C_33  and  S_35 
REMARK   10  A    between atoms: S_35  and  O_36 
REMARK   11  A    between atoms: S_51  and  O_52 
ROOT
HETATM    1  C   UNK N   1      26.701  15.393   6.070  0.00  0.00     0.034 A 
HETATM    2  C   UNK N   1      26.757  16.069   7.288  0.00  0.00     0.032 A 
HETATM    3  C   UNK N   1      27.932  16.747   7.649  0.00  0.00     0.034 A 
HETATM    4  C   UNK N   1      29.056  16.763   6.799  0.00  0.00     0.072 A 
HETATM    5  C   UNK N   1      29.011  15.973   5.608  0.00  0.00     0.101 A 
HETATM    6  C   UNK N   1      27.839  15.325   5.286  0.00  0.00     0.057 A 
ENDROOT
BRANCH   1   7
HETATM    7  N   UNK N   1      25.476  14.855   5.579  0.00  0.00    -0.355 N 
HETATM    8  H   UNK N   1      25.510  14.062   4.996  0.00  0.00     0.166 HD
BRANCH   7   9
HETATM    9  C   UNK N   1      24.194  15.420   5.900  0.00  0.00     0.049 A 
HETATM   10  C   UNK N   1      23.713  16.513   5.167  0.00  0.00     0.058 A 
HETATM   11  C   UNK N   1      22.490  17.101   5.430  0.00  0.00     0.101 A 
HETATM   12  C   UNK N   1      21.697  16.614   6.470  0.00  0.00     0.065 A 
HETATM   13  C   UNK N   1      22.147  15.515   7.252  0.00  0.00     0.059 A 
HETATM   14  C   UNK N   1      23.407  14.911   6.962  0.00  0.00     0.058 A 
HETATM   15  C   UNK N   1      21.316  14.975   8.370  0.00  0.00     0.196 A 
HETATM   16  C   UNK N   1      23.869  13.746   7.774  0.00  0.00     0.196 A 
HETATM   17  C   UNK N   1      23.022  13.215   8.861  0.00  0.00     0.029 A 
HETATM   18  O   UNK N   1      24.945  13.212   7.542  0.00  0.00    -0.286 OA
HETATM   19  C   UNK N   1      23.449  12.108   9.608  0.00  0.00     0.016 A 
HETATM   20  C   UNK N   1      21.785  13.813   9.150  0.00  0.00     0.029 A 
HETATM   21  C   UNK N   1      22.652  11.600  10.635  0.00  0.00     0.001 A 
HETATM   22  C   UNK N   1      21.423  12.195  10.924  0.00  0.00     0.001 A 
HETATM   23  C   UNK N   1      20.991  13.297  10.186  0.00  0.00     0.016 A 
HETATM   24  O   UNK N   1      20.239  15.483   8.649  0.00  0.00    -0.286 OA
BRANCH  11  25
HETATM   25  S   UNK N   1      21.955  18.462   4.387  0.00  0.00     0.132 S 
HETATM   26  O   UNK N   1      21.104  19.467   5.179  0.00  0.00    -0.597 OA
HETATM   27  O   UNK N   1      20.964  18.028   3.297  0.00  0.00    -0.597 OA
BRANCH  25  28
HETATM   28  O   UNK N   1      23.143  19.410   3.590  0.00  0.00    -0.292 OA
HETATM   29  H   UNK N   1      23.439  20.203   3.114  0.00  0.00     0.232 HD
ENDBRANCH  25  28
ENDBRANCH  11  25
BRANCH  12  30
HETATM   30  N   UNK N   1      20.445  17.221   6.722  0.00  0.00    -0.397 N 
HETATM   31  H   UNK N   1      19.685  16.675   7.026  0.00  0.00     0.156 HD
HETATM   32  H   UNK N   1      20.335  18.191   6.593  0.00  0.00     0.156 HD
ENDBRANCH  12  30
ENDBRANCH   7   9
ENDBRANCH   1   7
BRANCH   5  33
HETATM   33  S   UNK N   1      30.280  15.730   4.370  0.00  0.00     0.132 S 
HETATM   34  O   UNK N   1      31.031  14.452   4.754  0.00  0.00    -0.597 OA
HETATM   35  O   UNK N   1      29.861  15.456   2.919  0.00  0.00    -0.597 OA
BRANCH  33  36
HETATM   36  O   UNK N   1      31.550  16.883   4.308  0.00  0.00    -0.292 OA
HETATM   37  H   UNK N   1      32.479  17.039   4.541  0.00  0.00     0.232 HD
ENDBRANCH  33  36
ENDBRANCH   5  33
BRANCH   4  38
HETATM   38  N   UNK N   1      30.143  17.608   7.179  0.00  0.00    -0.190 N 
HETATM   39  C   UNK N   1      31.465  17.172   7.478  0.00  0.00     0.699 A 
HETATM   40  N   UNK N   1      32.439  18.086   7.723  0.00  0.00    -0.164 N 
HETATM   41  N   UNK N   1      31.772  15.855   7.508  0.00  0.00    -0.022 N 
HETATM   42  C   UNK N   1      33.701  17.672   8.013  0.00  0.00     0.208 A 
ATOM     43  HN  UNK N   1      32.224  19.082   7.687  1.00  0.00     0.186 HD
HETATM   44 Cl   UNK N   1      34.959  18.853   8.308  0.00  0.00    -0.044 Cl
HETATM   45  N   UNK N   1      33.982  16.343   8.101  0.00  0.00    -0.164 N 
HETATM   46  C   UNK N   1      33.011  15.427   7.847  0.00  0.00     0.699 A 
ATOM     47  HN  UNK N   1      34.920  16.036   8.357  1.00  0.00     0.186 HD
HETATM   48  N   UNK N   1      33.221  14.030   8.060  0.00  0.00    -0.190 N 
HETATM   49  H   UNK N   1      32.440  13.442   7.945  0.00  0.00     0.184 HD
ATOM     50  HN  UNK N   1      31.055  15.169   7.269  1.00  0.00     0.203 HD
HETATM   51  H   UNK N   1      29.963  18.574   7.241  0.00  0.00     0.184 HD
BRANCH  48  52
HETATM   52  C   UNK N   1      34.446  13.402   8.424  0.00  0.00     0.072 A 
HETATM   53  C   UNK N   1      35.096  12.538   7.530  0.00  0.00     0.031 A 
HETATM   54  C   UNK N   1      36.289  11.908   7.888  0.00  0.00     0.002 A 
HETATM   55  C   UNK N   1      36.848  12.134   9.145  0.00  0.00     0.002 A 
HETATM   56  C   UNK N   1      36.218  12.993  10.043  0.00  0.00     0.028 A 
HETATM   57  C   UNK N   1      35.023  13.632   9.700  0.00  0.00     0.099 A 
BRANCH  57  58
HETATM   58  S   UNK N   1      34.307  14.740  10.928  0.00  0.00     0.132 S 
HETATM   59  O   UNK N   1      35.003  16.098  11.044  0.00  0.00    -0.597 OA
HETATM   60  O   UNK N   1      34.579  14.185  12.335  0.00  0.00    -0.597 OA
BRANCH  58  61
HETATM   61  O   UNK N   1      32.619  15.041  10.928  0.00  0.00    -0.292 OA
HETATM   62  H   UNK N   1      32.130  15.765  10.506  0.00  0.00     0.232 HD
ENDBRANCH  58  61
ENDBRANCH  57  58
ENDBRANCH  48  52
ENDBRANCH   4  38
TORSDOF 11
ENDMDL
MODEL 4
REMARK VINA RESULT:      -9.8      3.908     10.273
REMARK  11 active torsions:
REMARK  status: ('A' for Active; 'I' for Inactive)
REMARK    1  A    between atoms: N_1  and  C_2 
REMARK    2  A    between atoms: C_3  and  S_51 
REMARK    3  A    between atoms: C_5  and  N_6 
REMARK    4  A    between atoms: N_6  and  C_7 
REMARK    5  A    between atoms: C_10  and  N_11 
REMARK       I    between atoms: N_11  and  C_12 
REMARK       I    between atoms: C_19  and  N_20 
REMARK    6  A    between atoms: N_20  and  C_21 
REMARK    7  A    between atoms: C_26  and  S_27 
REMARK    8  A    between atoms: S_27  and  O_28 
REMARK    9  A    between atoms: C_33  and  S_35 
REMARK   10  A    between atoms: S_35  and  O_36 
REMARK   11  A    between atoms: S_51  and  O_52 
ROOT
HETATM    1  C   UNK N   1      28.148  17.979   4.130  0.00  0.00     0.034 A 
HETATM    2  C   UNK N   1      27.198  18.967   4.391  0.00  0.00     0.032 A 
HETATM    3  C   UNK N   1      25.836  18.678   4.215  0.00  0.00     0.034 A 
HETATM    4  C   UNK N   1      25.407  17.407   3.785  0.00  0.00     0.072 A 
HETATM    5  C   UNK N   1      26.405  16.449   3.419  0.00  0.00     0.101 A 
HETATM    6  C   UNK N   1      27.731  16.767   3.610  0.00  0.00     0.057 A 
ENDROOT
BRANCH   1   7
HETATM    7  N   UNK N   1      29.519  18.163   4.474  0.00  0.00    -0.355 N 
HETATM    8  H   UNK N   1      30.076  18.734   3.896  0.00  0.00     0.166 HD
BRANCH   7   9
HETATM    9  C   UNK N   1      30.121  17.552   5.627  0.00  0.00     0.049 A 
HETATM   10  C   UNK N   1      29.600  17.810   6.901  0.00  0.00     0.058 A 
HETATM   11  C   UNK N   1      30.138  17.255   8.047  0.00  0.00     0.101 A 
HETATM   12  C   UNK N   1      31.251  16.418   7.955  0.00  0.00     0.065 A 
HETATM   13  C   UNK N   1      31.825  16.137   6.685  0.00  0.00     0.059 A 
HETATM   14  C   UNK N   1      31.252  16.709   5.509  0.00  0.00     0.058 A 
HETATM   15  C   UNK N   1      33.016  15.244   6.559  0.00  0.00     0.196 A 
HETATM   16  C   UNK N   1      31.847  16.398   4.175  0.00  0.00     0.196 A 
HETATM   17  C   UNK N   1      33.012  15.495   4.073  0.00  0.00     0.029 A 
HETATM   18  O   UNK N   1      31.372  16.875   3.154  0.00  0.00    -0.286 OA
HETATM   19  C   UNK N   1      33.555  15.189   2.817  0.00  0.00     0.016 A 
HETATM   20  C   UNK N   1      33.579  14.937   5.230  0.00  0.00     0.029 A 
HETATM   21  C   UNK N   1      34.654  14.334   2.713  0.00  0.00     0.001 A 
HETATM   22  C   UNK N   1      35.219  13.781   3.863  0.00  0.00     0.001 A 
HETATM   23  C   UNK N   1      34.685  14.081   5.117  0.00  0.00     0.016 A 
HETATM   24  O   UNK N   1      33.534  14.753   7.552  0.00  0.00    -0.286 OA
BRANCH  11  25
HETATM   25  S   UNK N   1      29.350  17.614   9.621  0.00  0.00     0.132 S 
HETATM   26  O   UNK N   1      27.828  17.755   9.461  0.00  0.00    -0.597 OA
HETATM   27  O   UNK N   1      29.720  18.998  10.175  0.00  0.00    -0.597 OA
BRANCH  25  28
HETATM   28  O   UNK N   1      29.563  16.515  10.922  0.00  0.00    -0.292 OA
HETATM   29  H   UNK N   1      29.623  16.296  11.866  0.00  0.00     0.232 HD
ENDBRANCH  25  28
ENDBRANCH  11  25
BRANCH  12  30
HETATM   30  N   UNK N   1      31.785  15.852   9.135  0.00  0.00    -0.397 N 
HETATM   31  H   UNK N   1      31.295  15.932   9.986  0.00  0.00     0.156 HD
HETATM   32  H   UNK N   1      32.647  15.376   9.106  0.00  0.00     0.156 HD
ENDBRANCH  12  30
ENDBRANCH   7   9
ENDBRANCH   1   7
BRANCH   5  33
HETATM   33  S   UNK N   1      26.191  14.791   2.780  0.00  0.00     0.132 S 
HETATM   34  O   UNK N   1      25.118  14.873   1.692  0.00  0.00    -0.597 OA
HETATM   35  O   UNK N   1      27.364  14.118   2.053  0.00  0.00    -0.597 OA
BRANCH  33  36
HETATM   36  O   UNK N   1      25.531  13.617   3.843  0.00  0.00    -0.292 OA
HETATM   37  H   UNK N   1      24.706  13.187   4.120  0.00  0.00     0.232 HD
ENDBRANCH  33  36
ENDBRANCH   5  33
BRANCH   4  38
HETATM   38  N   UNK N   1      24.001  17.162   3.788  0.00  0.00    -0.190 N 
HETATM   39  C   UNK N   1      23.300  16.372   4.743  0.00  0.00     0.699 A 
HETATM   40  N   UNK N   1      21.944  16.304   4.700  0.00  0.00    -0.164 N 
HETATM   41  N   UNK N   1      23.965  15.696   5.708  0.00  0.00    -0.022 N 
HETATM   42  C   UNK N   1      21.273  15.547   5.608  0.00  0.00     0.208 A 
ATOM     43  HN  UNK N   1      21.430  16.823   3.988  1.00  0.00     0.186 HD
HETATM   44 Cl   UNK N   1      19.525  15.477   5.562  0.00  0.00    -0.044 Cl
HETATM   45  N   UNK N   1      21.958  14.822   6.534  0.00  0.00    -0.164 N 
HETATM   46  C   UNK N   1      23.314  14.896   6.585  0.00  0.00     0.699 A 
ATOM     47  HN  UNK N   1      21.453  14.224   7.188  1.00  0.00     0.186 HD
HETATM   48  N   UNK N   1      24.081  14.052   7.445  0.00  0.00    -0.190 N 
HETATM   49  H   UNK N   1      25.061  14.099   7.354  0.00  0.00     0.184 HD
ATOM     50  HN  UNK N   1      24.978  15.791   5.776  1.00  0.00     0.203 HD
HETATM   51  H   UNK N   1      23.470  17.575   3.069  0.00  0.00     0.184 HD
BRANCH  48  52
HETATM   52  C   UNK N   1      23.573  13.148   8.420  0.00  0.00     0.072 A 
HETATM   53  C   UNK N   1      23.288  13.590   9.721  0.00  0.00     0.031 A 
HETATM   54  C   UNK N   1      22.805  12.704  10.685  0.00  0.00     0.002 A 
HETATM   55  C   UNK N   1      22.599  11.364  10.361  0.00  0.00     0.002 A 
HETATM   56  C   UNK N   1      22.872  10.909   9.073  0.00  0.00     0.028 A 
HETATM   57  C   UNK N   1      23.356  11.783   8.095  0.00  0.00     0.099 A 
BRANCH  57  58
HETATM   58  S   UNK N   1      23.653  11.094   6.457  0.00  0.00     0.132 S 
HETATM   59  O   UNK N   1      25.001  11.476   5.839  0.00  0.00    -0.597 OA
HETATM   60  O   UNK N   1      22.705  11.757   5.446  0.00  0.00    -0.597 OA
BRANCH  58  61
HETATM   61  O   UNK N   1      23.434   9.415   6.181  0.00  0.00    -0.292 OA
HETATM   62  H   UNK N   1      22.941   8.975   5.472  0.00  0.00     0.232 HD
ENDBRANCH  58  61
ENDBRANCH  57  58
ENDBRANCH  48  52
ENDBRANCH   4  38
TORSDOF 11
ENDMDL
MODEL 5
REMARK VINA RESULT:      -9.7      4.965     11.618
REMARK  11 active torsions:
REMARK  status: ('A' for Active; 'I' for Inactive)
REMARK    1  A    between atoms: N_1  and  C_2 
REMARK    2  A    between atoms: C_3  and  S_51 
REMARK    3  A    between atoms: C_5  and  N_6 
REMARK    4  A    between atoms: N_6  and  C_7 
REMARK    5  A    between atoms: C_10  and  N_11 
REMARK       I    between atoms: N_11  and  C_12 
REMARK       I    between atoms: C_19  and  N_20 
REMARK    6  A    between atoms: N_20  and  C_21 
REMARK    7  A    between atoms: C_26  and  S_27 
REMARK    8  A    between atoms: S_27  and  O_28 
REMARK    9  A    between atoms: C_33  and  S_35 
REMARK   10  A    between atoms: S_35  and  O_36 
REMARK   11  A    between atoms: S_51  and  O_52 
ROOT
HETATM    1  C   UNK N   1      33.788  12.809   5.884  0.00  0.00     0.034 A 
HETATM    2  C   UNK N   1      33.551  13.895   5.042  0.00  0.00     0.032 A 
HETATM    3  C   UNK N   1      32.415  13.895   4.217  0.00  0.00     0.034 A 
HETATM    4  C   UNK N   1      31.506  12.819   4.226  0.00  0.00     0.072 A 
HETATM    5  C   UNK N   1      31.829  11.670   5.015  0.00  0.00     0.101 A 
HETATM    6  C   UNK N   1      32.950  11.710   5.815  0.00  0.00     0.057 A 
ENDROOT
BRANCH   1   7
HETATM    7  N   UNK N   1      34.816  12.849   6.870  0.00  0.00    -0.355 N 
HETATM    8  H   UNK N   1      35.491  12.132   6.875  0.00  0.00     0.166 HD
BRANCH   7   9
HETATM    9  C   UNK N   1      34.909  13.891   7.856  0.00  0.00     0.049 A 
HETATM   10  C   UNK N   1      34.545  15.201   7.518  0.00  0.00     0.058 A 
HETATM   11  C   UNK N   1      34.616  16.245   8.421  0.00  0.00     0.101 A 
HETATM   12  C   UNK N   1      35.080  16.011   9.716  0.00  0.00     0.065 A 
HETATM   13  C   UNK N   1      35.474  14.700  10.103  0.00  0.00     0.059 A 
HETATM   14  C   UNK N   1      35.386  13.630   9.163  0.00  0.00     0.058 A 
HETATM   15  C   UNK N   1      35.974  14.423  11.483  0.00  0.00     0.196 A 
HETATM   16  C   UNK N   1      35.784  12.251   9.578  0.00  0.00     0.196 A 
HETATM   17  C   UNK N   1      36.255  11.997  10.955  0.00  0.00     0.029 A 
HETATM   18  O   UNK N   1      35.715  11.319   8.790  0.00  0.00    -0.286 OA
HETATM   19  C   UNK N   1      36.609  10.698  11.347  0.00  0.00     0.016 A 
HETATM   20  C   UNK N   1      36.349  13.052  11.877  0.00  0.00     0.029 A 
HETATM   21  C   UNK N   1      37.053  10.451  12.647  0.00  0.00     0.001 A 
HETATM   22  C   UNK N   1      37.148  11.498  13.564  0.00  0.00     0.001 A 
HETATM   23  C   UNK N   1      36.798  12.794  13.182  0.00  0.00     0.016 A 
HETATM   24  O   UNK N   1      36.074  15.326  12.303  0.00  0.00    -0.286 OA
BRANCH  11  25
HETATM   25  S   UNK N   1      34.070  17.872   7.889  0.00  0.00     0.132 S 
HETATM   26  O   UNK N   1      34.209  18.035   6.368  0.00  0.00    -0.597 OA
HETATM   27  O   UNK N   1      34.978  19.003   8.394  0.00  0.00    -0.597 OA
BRANCH  25  28
HETATM   28  O   UNK N   1      32.464  18.363   8.248  0.00  0.00    -0.292 OA
HETATM   29  H   UNK N   1      31.532  18.502   8.017  0.00  0.00     0.232 HD
ENDBRANCH  25  28
ENDBRANCH  11  25
BRANCH  12  30
HETATM   30  N   UNK N   1      35.140  17.087  10.630  0.00  0.00    -0.397 N 
HETATM   31  H   UNK N   1      35.474  16.941  11.544  0.00  0.00     0.156 HD
HETATM   32  H   UNK N   1      34.847  17.986  10.351  0.00  0.00     0.156 HD
ENDBRANCH  12  30
ENDBRANCH   7   9
ENDBRANCH   1   7
BRANCH   5  33
HETATM   33  S   UNK N   1      30.929  10.134   5.187  0.00  0.00     0.132 S 
HETATM   34  O   UNK N   1      29.490  10.414   4.744  0.00  0.00    -0.597 OA
HETATM   35  O   UNK N   1      31.327   8.937   4.312  0.00  0.00    -0.597 OA
BRANCH  33  36
HETATM   36  O   UNK N   1      30.700   9.529   6.776  0.00  0.00    -0.292 OA
HETATM   37  H   UNK N   1      30.594   9.788   7.705  0.00  0.00     0.232 HD
ENDBRANCH  33  36
ENDBRANCH   5  33
BRANCH   4  38
HETATM   38  N   UNK N   1      30.304  12.981   3.472  0.00  0.00    -0.190 N 
HETATM   39  C   UNK N   1      29.486  14.146   3.459  0.00  0.00     0.699 A 
HETATM   40  N   UNK N   1      28.424  14.217   2.616  0.00  0.00    -0.164 N 
HETATM   41  N   UNK N   1      29.758  15.196   4.267  0.00  0.00    -0.022 N 
HETATM   42  C   UNK N   1      27.638  15.326   2.605  0.00  0.00     0.208 A 
ATOM     43  HN  UNK N   1      28.217  13.438   1.990  1.00  0.00     0.186 HD
HETATM   44 Cl   UNK N   1      26.281  15.422   1.502  0.00  0.00    -0.044 Cl
HETATM   45  N   UNK N   1      27.886  16.349   3.467  0.00  0.00    -0.164 N 
HETATM   46  C   UNK N   1      28.954  16.284   4.305  0.00  0.00     0.699 A 
ATOM     47  HN  UNK N   1      27.272  17.163   3.483  1.00  0.00     0.186 HD
HETATM   48  N   UNK N   1      29.175  17.267   5.319  0.00  0.00    -0.190 N 
HETATM   49  H   UNK N   1      29.915  17.098   5.946  0.00  0.00     0.184 HD
ATOM     50  HN  UNK N   1      30.588  15.167   4.860  1.00  0.00     0.203 HD
HETATM   51  H   UNK N   1      30.016  12.222   2.914  0.00  0.00     0.184 HD
BRANCH  48  52
HETATM   52  C   UNK N   1      28.433  18.465   5.514  0.00  0.00     0.072 A 
HETATM   53  C   UNK N   1      27.954  19.195   4.415  0.00  0.00     0.031 A 
HETATM   54  C   UNK N   1      27.240  20.378   4.602  0.00  0.00     0.002 A 
HETATM   55  C   UNK N   1      26.993  20.849   5.890  0.00  0.00     0.002 A 
HETATM   56  C   UNK N   1      27.455  20.136   6.993  0.00  0.00     0.028 A 
HETATM   57  C   UNK N   1      28.173  18.947   6.824  0.00  0.00     0.099 A 
BRANCH  57  58
HETATM   58  S   UNK N   1      28.704  18.093   8.319  0.00  0.00     0.132 S 
HETATM   59  O   UNK N   1      29.603  18.921   9.241  0.00  0.00    -0.597 OA
HETATM   60  O   UNK N   1      29.679  16.967   7.943  0.00  0.00    -0.597 OA
BRANCH  58  61
HETATM   61  O   UNK N   1      27.547  17.314   9.317  0.00  0.00    -0.292 OA
HETATM   62  H   UNK N   1      27.148  16.435   9.214  0.00  0.00     0.232 HD
ENDBRANCH  58  61
ENDBRANCH  57  58
ENDBRANCH  48  52
ENDBRANCH   4  38
TORSDOF 11
ENDMDL
MODEL 6
REMARK VINA RESULT:      -9.5      2.115      2.583
REMARK  11 active torsions:
REMARK  status: ('A' for Active; 'I' for Inactive)
REMARK    1  A    between atoms: N_1  and  C_2 
REMARK    2  A    between atoms: C_3  and  S_51 
REMARK    3  A    between atoms: C_5  and  N_6 
REMARK    4  A    between atoms: N_6  and  C_7 
REMARK    5  A    between atoms: C_10  and  N_11 
REMARK       I    between atoms: N_11  and  C_12 
REMARK       I    between atoms: C_19  and  N_20 
REMARK    6  A    between atoms: N_20  and  C_21 
REMARK    7  A    between atoms: C_26  and  S_27 
REMARK    8  A    between atoms: S_27  and  O_28 
REMARK    9  A    between atoms: C_33  and  S_35 
REMARK   10  A    between atoms: S_35  and  O_36 
REMARK   11  A    between atoms: S_51  and  O_52 
ROOT
HETATM    1  C   UNK N   1      27.046  15.064   5.093  0.00  0.00     0.034 A 
HETATM    2  C   UNK N   1      27.195  13.694   4.880  0.00  0.00     0.032 A 
HETATM    3  C   UNK N   1      28.467  13.173   4.596  0.00  0.00     0.034 A 
HETATM    4  C   UNK N   1      29.600  14.008   4.527  0.00  0.00     0.072 A 
HETATM    5  C   UNK N   1      29.403  15.420   4.640  0.00  0.00     0.101 A 
HETATM    6  C   UNK N   1      28.140  15.893   4.923  0.00  0.00     0.057 A 
ENDROOT
BRANCH   1   7
HETATM    7  N   UNK N   1      25.818  15.609   5.568  0.00  0.00    -0.355 N 
HETATM    8  H   UNK N   1      25.683  16.583   5.514  0.00  0.00     0.166 HD
BRANCH   7   9
HETATM    9  C   UNK N   1      24.768  14.797   6.119  0.00  0.00     0.049 A 
HETATM   10  C   UNK N   1      24.908  14.258   7.404  0.00  0.00     0.058 A 
HETATM   11  C   UNK N   1      23.935  13.468   7.987  0.00  0.00     0.101 A 
HETATM   12  C   UNK N   1      22.769  13.170   7.279  0.00  0.00     0.065 A 
HETATM   13  C   UNK N   1      22.586  13.682   5.966  0.00  0.00     0.059 A 
HETATM   14  C   UNK N   1      23.595  14.505   5.381  0.00  0.00     0.058 A 
HETATM   15  C   UNK N   1      21.347  13.379   5.187  0.00  0.00     0.196 A 
HETATM   16  C   UNK N   1      23.391  15.056   4.008  0.00  0.00     0.196 A 
HETATM   17  C   UNK N   1      22.149  14.760   3.265  0.00  0.00     0.029 A 
HETATM   18  O   UNK N   1      24.241  15.765   3.488  0.00  0.00    -0.286 OA
HETATM   19  C   UNK N   1      21.952  15.295   1.984  0.00  0.00     0.016 A 
HETATM   20  C   UNK N   1      21.159  13.945   3.838  0.00  0.00     0.029 A 
HETATM   21  C   UNK N   1      20.779  15.021   1.278  0.00  0.00     0.001 A 
HETATM   22  C   UNK N   1      19.796  14.210   1.846  0.00  0.00     0.001 A 
HETATM   23  C   UNK N   1      19.984  13.672   3.120  0.00  0.00     0.016 A 
HETATM   24  O   UNK N   1      20.474  12.664   5.660  0.00  0.00    -0.286 OA
BRANCH  11  25
HETATM   25  S   UNK N   1      24.203  12.879   9.663  0.00  0.00     0.132 S 
HETATM   26  O   UNK N   1      24.324  11.348   9.701  0.00  0.00    -0.597 OA
HETATM   27  O   UNK N   1      22.990  13.105  10.578  0.00  0.00    -0.597 OA
BRANCH  25  28
HETATM   28  O   UNK N   1      25.563  13.458  10.535  0.00  0.00    -0.292 OA
HETATM   29  H   UNK N   1      26.503  13.687  10.617  0.00  0.00     0.232 HD
ENDBRANCH  25  28
ENDBRANCH  11  25
BRANCH  12  30
HETATM   30  N   UNK N   1      21.780  12.367   7.891  0.00  0.00    -0.397 N 
HETATM   31  H   UNK N   1      21.894  11.391   7.934  0.00  0.00     0.156 HD
HETATM   32  H   UNK N   1      20.976  12.786   8.277  0.00  0.00     0.156 HD
ENDBRANCH  12  30
ENDBRANCH   7   9
ENDBRANCH   1   7
BRANCH   5  33
HETATM   33  S   UNK N   1      30.610  16.736   4.531  0.00  0.00     0.132 S 
HETATM   34  O   UNK N   1      31.235  16.878   5.922  0.00  0.00    -0.597 OA
HETATM   35  O   UNK N   1      31.835  16.548   3.625  0.00  0.00    -0.597 OA
BRANCH  33  36
HETATM   36  O   UNK N   1      30.022  18.322   4.243  0.00  0.00    -0.292 OA
HETATM   37  H   UNK N   1      29.305  18.828   3.828  0.00  0.00     0.232 HD
ENDBRANCH  33  36
ENDBRANCH   5  33
BRANCH   4  38
HETATM   38  N   UNK N   1      30.868  13.368   4.391  0.00  0.00    -0.190 N 
HETATM   39  C   UNK N   1      31.921  13.402   5.349  0.00  0.00     0.699 A 
HETATM   40  N   UNK N   1      33.042  12.662   5.150  0.00  0.00    -0.164 N 
HETATM   41  N   UNK N   1      31.817  14.154   6.469  0.00  0.00    -0.022 N 
HETATM   42  C   UNK N   1      34.050  12.697   6.060  0.00  0.00     0.208 A 
ATOM     43  HN  UNK N   1      33.126  12.078   4.317  1.00  0.00     0.186 HD
HETATM   44 Cl   UNK N   1      35.485  11.726   5.810  0.00  0.00    -0.044 Cl
HETATM   45  N   UNK N   1      33.959  13.505   7.151  0.00  0.00    -0.164 N 
HETATM   46  C   UNK N   1      32.834  14.240   7.358  0.00  0.00     0.699 A 
ATOM     47  HN  UNK N   1      34.733  13.559   7.813  1.00  0.00     0.186 HD
HETATM   48  N   UNK N   1      32.747  15.202   8.410  0.00  0.00    -0.190 N 
HETATM   49  H   UNK N   1      31.937  15.760   8.435  0.00  0.00     0.184 HD
ATOM     50  HN  UNK N   1      30.953  14.666   6.648  1.00  0.00     0.203 HD
HETATM   51  H   UNK N   1      31.030  12.859   3.563  0.00  0.00     0.184 HD
BRANCH  48  52
HETATM   52  C   UNK N   1      33.715  15.437   9.427  0.00  0.00     0.072 A 
HETATM   53  C   UNK N   1      33.935  14.485  10.435  0.00  0.00     0.031 A 
HETATM   54  C   UNK N   1      34.871  14.718  11.443  0.00  0.00     0.002 A 
HETATM   55  C   UNK N   1      35.602  15.905  11.456  0.00  0.00     0.002 A 
HETATM   56  C   UNK N   1      35.402  16.858  10.461  0.00  0.00     0.028 A 
HETATM   57  C   UNK N   1      34.467  16.641   9.443  0.00  0.00     0.099 A 
BRANCH  57  58
HETATM   58  S   UNK N   1      34.305  17.929   8.194  0.00  0.00     0.132 S 
HETATM   59  O   UNK N   1      35.211  19.143   8.409  0.00  0.00    -0.597 OA
HETATM   60  O   UNK N   1      32.930  18.600   8.330  0.00  0.00    -0.597 OA
BRANCH  58  61
HETATM   61  O   UNK N   1      34.398  17.524   6.530  0.00  0.00    -0.292 OA
HETATM   62  H   UNK N   1      34.774  16.731   6.116  0.00  0.00     0.232 HD
ENDBRANCH  58  61
ENDBRANCH  57  58
ENDBRANCH  48  52
ENDBRANCH   4  38
TORSDOF 11
ENDMDL
MODEL 7
REMARK VINA RESULT:      -9.3      3.726     11.161
REMARK  11 active torsions:
REMARK  status: ('A' for Active; 'I' for Inactive)
REMARK    1  A    between atoms: N_1  and  C_2 
REMARK    2  A    between atoms: C_3  and  S_51 
REMARK    3  A    between atoms: C_5  and  N_6 
REMARK    4  A    between atoms: N_6  and  C_7 
REMARK    5  A    between atoms: C_10  and  N_11 
REMARK       I    between atoms: N_11  and  C_12 
REMARK       I    between atoms: C_19  and  N_20 
REMARK    6  A    between atoms: N_20  and  C_21 
REMARK    7  A    between atoms: C_26  and  S_27 
REMARK    8  A    between atoms: S_27  and  O_28 
REMARK    9  A    between atoms: C_33  and  S_35 
REMARK   10  A    between atoms: S_35  and  O_36 
REMARK   11  A    between atoms: S_51  and  O_52 
ROOT
HETATM    1  C   UNK N   1      30.643  16.922   4.031  0.00  0.00     0.034 A 
HETATM    2  C   UNK N   1      29.792  16.451   3.032  0.00  0.00     0.032 A 
HETATM    3  C   UNK N   1      28.403  16.559   3.200  0.00  0.00     0.034 A 
HETATM    4  C   UNK N   1      27.850  17.139   4.359  0.00  0.00     0.072 A 
HETATM    5  C   UNK N   1      28.739  17.513   5.415  0.00  0.00     0.101 A 
HETATM    6  C   UNK N   1      30.097  17.396   5.210  0.00  0.00     0.057 A 
ENDROOT
BRANCH   1   7
HETATM    7  N   UNK N   1      32.050  17.008   3.824  0.00  0.00    -0.355 N 
HETATM    8  H   UNK N   1      32.379  17.385   2.976  0.00  0.00     0.166 HD
BRANCH   7   9
HETATM    9  C   UNK N   1      33.009  16.568   4.800  0.00  0.00     0.049 A 
HETATM   10  C   UNK N   1      33.182  17.299   5.983  0.00  0.00     0.058 A 
HETATM   11  C   UNK N   1      34.089  16.928   6.957  0.00  0.00     0.101 A 
HETATM   12  C   UNK N   1      34.886  15.798   6.767  0.00  0.00     0.065 A 
HETATM   13  C   UNK N   1      34.758  15.030   5.577  0.00  0.00     0.059 A 
HETATM   14  C   UNK N   1      33.808  15.419   4.585  0.00  0.00     0.058 A 
HETATM   15  C   UNK N   1      35.598  13.816   5.351  0.00  0.00     0.196 A 
HETATM   16  C   UNK N   1      33.665  14.601   3.343  0.00  0.00     0.196 A 
HETATM   17  C   UNK N   1      34.491  13.393   3.151  0.00  0.00     0.029 A 
HETATM   18  O   UNK N   1      32.857  14.914   2.481  0.00  0.00    -0.286 OA
HETATM   19  C   UNK N   1      34.339  12.615   1.993  0.00  0.00     0.016 A 
HETATM   20  C   UNK N   1      35.430  13.013   4.124  0.00  0.00     0.029 A 
HETATM   21  C   UNK N   1      35.115  11.470   1.806  0.00  0.00     0.001 A 
HETATM   22  C   UNK N   1      36.049  11.094   2.772  0.00  0.00     0.001 A 
HETATM   23  C   UNK N   1      36.207  11.862   3.926  0.00  0.00     0.016 A 
HETATM   24  O   UNK N   1      36.429  13.470   6.178  0.00  0.00    -0.286 OA
BRANCH  11  25
HETATM   25  S   UNK N   1      34.182  17.913   8.457  0.00  0.00     0.132 S 
HETATM   26  O   UNK N   1      32.894  18.723   8.670  0.00  0.00    -0.597 OA
HETATM   27  O   UNK N   1      35.228  19.034   8.374  0.00  0.00    -0.597 OA
BRANCH  25  28
HETATM   28  O   UNK N   1      34.464  17.117   9.952  0.00  0.00    -0.292 OA
HETATM   29  H   UNK N   1      34.175  16.611  10.728  0.00  0.00     0.232 HD
ENDBRANCH  25  28
ENDBRANCH  11  25
BRANCH  12  30
HETATM   30  N   UNK N   1      35.804  15.427   7.776  0.00  0.00    -0.397 N 
HETATM   31  H   UNK N   1      35.508  14.873   8.533  0.00  0.00     0.156 HD
HETATM   32  H   UNK N   1      36.742  15.724   7.720  0.00  0.00     0.156 HD
ENDBRANCH  12  30
ENDBRANCH   7   9
ENDBRANCH   1   7
BRANCH   5  33
HETATM   33  S   UNK N   1      28.353  18.204   7.020  0.00  0.00     0.132 S 
HETATM   34  O   UNK N   1      29.670  18.273   7.798  0.00  0.00    -0.597 OA
HETATM   35  O   UNK N   1      27.833  19.646   7.102  0.00  0.00    -0.597 OA
BRANCH  33  36
HETATM   36  O   UNK N   1      27.370  17.264   8.066  0.00  0.00    -0.292 OA
HETATM   37  H   UNK N   1      27.007  16.376   8.212  0.00  0.00     0.232 HD
ENDBRANCH  33  36
ENDBRANCH   5  33
BRANCH   4  38
HETATM   38  N   UNK N   1      26.438  17.346   4.368  0.00  0.00    -0.190 N 
HETATM   39  C   UNK N   1      25.506  16.666   5.203  0.00  0.00     0.699 A 
HETATM   40  N   UNK N   1      24.198  17.030   5.195  0.00  0.00    -0.164 N 
HETATM   41  N   UNK N   1      25.908  15.666   6.021  0.00  0.00    -0.022 N 
HETATM   42  C   UNK N   1      23.306  16.379   5.987  0.00  0.00     0.208 A 
ATOM     43  HN  UNK N   1      23.885  17.793   4.594  1.00  0.00     0.186 HD
HETATM   44 Cl   UNK N   1      21.624  16.864   5.987  0.00  0.00    -0.044 Cl
HETATM   45  N   UNK N   1      23.712  15.335   6.758  0.00  0.00    -0.164 N 
HETATM   46  C   UNK N   1      25.023  14.974   6.777  0.00  0.00     0.699 A 
ATOM     47  HN  UNK N   1      23.033  14.823   7.322  1.00  0.00     0.186 HD
HETATM   48  N   UNK N   1      25.471  13.803   7.461  0.00  0.00    -0.190 N 
HETATM   49  H   UNK N   1      26.418  13.559   7.347  0.00  0.00     0.184 HD
ATOM     50  HN  UNK N   1      26.898  15.430   6.071  1.00  0.00     0.203 HD
HETATM   51  H   UNK N   1      26.076  18.017   3.744  0.00  0.00     0.184 HD
BRANCH  48  52
HETATM   52  C   UNK N   1      24.687  12.953   8.291  0.00  0.00     0.072 A 
HETATM   53  C   UNK N   1      24.615  13.177   9.674  0.00  0.00     0.031 A 
HETATM   54  C   UNK N   1      23.861  12.337  10.494  0.00  0.00     0.002 A 
HETATM   55  C   UNK N   1      23.167  11.261   9.942  0.00  0.00     0.002 A 
HETATM   56  C   UNK N   1      23.223  11.027   8.570  0.00  0.00     0.028 A 
HETATM   57  C   UNK N   1      23.974  11.859   7.734  0.00  0.00     0.099 A 
BRANCH  57  58
HETATM   58  S   UNK N   1      23.957  11.479   5.973  0.00  0.00     0.132 S 
HETATM   59  O   UNK N   1      25.327  11.552   5.293  0.00  0.00    -0.597 OA
HETATM   60  O   UNK N   1      23.230  12.601   5.216  0.00  0.00    -0.597 OA
BRANCH  58  61
HETATM   61  O   UNK N   1      23.196  10.048   5.412  0.00  0.00    -0.292 OA
HETATM   62  H   UNK N   1      22.250   9.835   5.381  0.00  0.00     0.232 HD
ENDBRANCH  58  61
ENDBRANCH  57  58
ENDBRANCH  48  52
ENDBRANCH   4  38
TORSDOF 11
ENDMDL
MODEL 8
REMARK VINA RESULT:      -9.2      6.360     13.021
REMARK  11 active torsions:
REMARK  status: ('A' for Active; 'I' for Inactive)
REMARK    1  A    between atoms: N_1  and  C_2 
REMARK    2  A    between atoms: C_3  and  S_51 
REMARK    3  A    between atoms: C_5  and  N_6 
REMARK    4  A    between atoms: N_6  and  C_7 
REMARK    5  A    between atoms: C_10  and  N_11 
REMARK       I    between atoms: N_11  and  C_12 
REMARK       I    between atoms: C_19  and  N_20 
REMARK    6  A    between atoms: N_20  and  C_21 
REMARK    7  A    between atoms: C_26  and  S_27 
REMARK    8  A    between atoms: S_27  and  O_28 
REMARK    9  A    between atoms: C_33  and  S_35 
REMARK   10  A    between atoms: S_35  and  O_36 
REMARK   11  A    between atoms: S_51  and  O_52 
ROOT
HETATM    1  C   UNK N   1      35.037   9.434  10.509  0.00  0.00     0.034 A 
HETATM    2  C   UNK N   1      36.035   9.604   9.551  0.00  0.00     0.032 A 
HETATM    3  C   UNK N   1      35.713   9.489   8.189  0.00  0.00     0.034 A 
HETATM    4  C   UNK N   1      34.396   9.210   7.771  0.00  0.00     0.072 A 
HETATM    5  C   UNK N   1      33.416   8.932   8.775  0.00  0.00     0.101 A 
HETATM    6  C   UNK N   1      33.770   9.059  10.100  0.00  0.00     0.057 A 
ENDROOT
BRANCH   1   7
HETATM    7  N   UNK N   1      35.274   9.727  11.883  0.00  0.00    -0.355 N 
HETATM    8  H   UNK N   1      35.194   8.998  12.540  0.00  0.00     0.166 HD
BRANCH   7   9
HETATM    9  C   UNK N   1      35.627  11.040  12.350  0.00  0.00     0.049 A 
HETATM   10  C   UNK N   1      36.006  12.026  11.430  0.00  0.00     0.058 A 
HETATM   11  C   UNK N   1      36.359  13.304  11.817  0.00  0.00     0.101 A 
HETATM   12  C   UNK N   1      36.360  13.642  13.172  0.00  0.00     0.065 A 
HETATM   13  C   UNK N   1      35.996  12.672  14.146  0.00  0.00     0.059 A 
HETATM   14  C   UNK N   1      35.624  11.358  13.730  0.00  0.00     0.058 A 
HETATM   15  C   UNK N   1      35.990  13.009  15.601  0.00  0.00     0.196 A 
HETATM   16  C   UNK N   1      35.226  10.347  14.754  0.00  0.00     0.196 A 
HETATM   17  C   UNK N   1      35.206  10.709  16.186  0.00  0.00     0.029 A 
HETATM   18  O   UNK N   1      34.902   9.216  14.421  0.00  0.00    -0.286 OA
HETATM   19  C   UNK N   1      34.812   9.763  17.144  0.00  0.00     0.016 A 
HETATM   20  C   UNK N   1      35.578  11.999  16.596  0.00  0.00     0.029 A 
HETATM   21  C   UNK N   1      34.789  10.099  18.498  0.00  0.00     0.001 A 
HETATM   22  C   UNK N   1      35.160  11.380  18.907  0.00  0.00     0.001 A 
HETATM   23  C   UNK N   1      35.554  12.327  17.960  0.00  0.00     0.016 A 
HETATM   24  O   UNK N   1      36.319  14.122  15.985  0.00  0.00    -0.286 OA
BRANCH  11  25
HETATM   25  S   UNK N   1      36.773  14.500  10.542  0.00  0.00     0.132 S 
HETATM   26  O   UNK N   1      35.845  14.358   9.325  0.00  0.00    -0.597 OA
HETATM   27  O   UNK N   1      38.145  14.242   9.901  0.00  0.00    -0.597 OA
BRANCH  25  28
HETATM   28  O   UNK N   1      36.746  16.171  10.935  0.00  0.00    -0.292 OA
HETATM   29  H   UNK N   1      36.847  16.915  11.549  0.00  0.00     0.232 HD
ENDBRANCH  25  28
ENDBRANCH  11  25
BRANCH  12  30
HETATM   30  N   UNK N   1      36.716  14.956  13.552  0.00  0.00    -0.397 N 
HETATM   31  H   UNK N   1      37.493  15.107  14.138  0.00  0.00     0.156 HD
HETATM   32  H   UNK N   1      36.187  15.722  13.229  0.00  0.00     0.156 HD
ENDBRANCH  12  30
ENDBRANCH   7   9
ENDBRANCH   1   7
BRANCH   5  33
HETATM   33  S   UNK N   1      31.696   8.484   8.573  0.00  0.00     0.132 S 
HETATM   34  O   UNK N   1      31.674   7.067   7.994  0.00  0.00    -0.597 OA
HETATM   35  O   UNK N   1      30.810   8.356   9.821  0.00  0.00    -0.597 OA
BRANCH  33  36
HETATM   36  O   UNK N   1      30.786   9.357   7.410  0.00  0.00    -0.292 OA
HETATM   37  H   UNK N   1      30.471  10.242   7.165  0.00  0.00     0.232 HD
ENDBRANCH  33  36
ENDBRANCH   5  33
BRANCH   4  38
HETATM   38  N   UNK N   1      34.137   9.269   6.369  0.00  0.00    -0.190 N 
HETATM   39  C   UNK N   1      33.609  10.392   5.671  0.00  0.00     0.699 A 
HETATM   40  N   UNK N   1      33.508  10.362   4.317  0.00  0.00    -0.164 N 
HETATM   41  N   UNK N   1      33.217  11.503   6.337  0.00  0.00    -0.022 N 
HETATM   42  C   UNK N   1      33.000  11.431   3.649  0.00  0.00     0.208 A 
ATOM     43  HN  UNK N   1      33.816   9.536   3.802  1.00  0.00     0.186 HD
HETATM   44 Cl   UNK N   1      32.890  11.395   1.902  0.00  0.00    -0.044 Cl
HETATM   45  N   UNK N   1      32.552  12.517   4.335  0.00  0.00    -0.164 N 
HETATM   46  C   UNK N   1      32.661  12.554   5.690  0.00  0.00     0.699 A 
ATOM     47  HN  UNK N   1      32.136  13.301   3.834  1.00  0.00     0.186 HD
HETATM   48  N   UNK N   1      32.082  13.608   6.461  0.00  0.00    -0.190 N 
HETATM   49  H   UNK N   1      32.121  13.513   7.441  0.00  0.00     0.184 HD
ATOM     50  HN  UNK N   1      33.344  11.550   7.347  1.00  0.00     0.203 HD
HETATM   51  H   UNK N   1      34.339   8.464   5.838  0.00  0.00     0.184 HD
BRANCH  48  52
HETATM   52  C   UNK N   1      31.453  14.781   5.958  0.00  0.00     0.072 A 
HETATM   53  C   UNK N   1      30.173  14.714   5.386  0.00  0.00     0.031 A 
HETATM   54  C   UNK N   1      29.560  15.859   4.876  0.00  0.00     0.002 A 
HETATM   55  C   UNK N   1      30.217  17.087   4.932  0.00  0.00     0.002 A 
HETATM   56  C   UNK N   1      31.485  17.173   5.501  0.00  0.00     0.028 A 
HETATM   57  C   UNK N   1      32.114  16.036   6.017  0.00  0.00     0.099 A 
BRANCH  57  58
HETATM   58  S   UNK N   1      33.744  16.265   6.750  0.00  0.00     0.132 S 
HETATM   59  O   UNK N   1      34.456  17.553   6.331  0.00  0.00    -0.597 OA
HETATM   60  O   UNK N   1      34.715  15.227   6.168  0.00  0.00    -0.597 OA
BRANCH  58  61
HETATM   61  O   UNK N   1      33.949  16.109   8.446  0.00  0.00    -0.292 OA
HETATM   62  H   UNK N   1      34.282  16.763   9.081  0.00  0.00     0.232 HD
ENDBRANCH  58  61
ENDBRANCH  57  58
ENDBRANCH  48  52
ENDBRANCH   4  38
TORSDOF 11
ENDMDL
MODEL 9
REMARK VINA RESULT:      -9.1      3.713     11.208
REMARK  11 active torsions:
REMARK  status: ('A' for Active; 'I' for Inactive)
REMARK    1  A    between atoms: N_1  and  C_2 
REMARK    2  A    between atoms: C_3  and  S_51 
REMARK    3  A    between atoms: C_5  and  N_6 
REMARK    4  A    between atoms: N_6  and  C_7 
REMARK    5  A    between atoms: C_10  and  N_11 
REMARK       I    between atoms: N_11  and  C_12 
REMARK       I    between atoms: C_19  and  N_20 
REMARK    6  A    between atoms: N_20  and  C_21 
REMARK    7  A    between atoms: C_26  and  S_27 
REMARK    8  A    between atoms: S_27  and  O_28 
REMARK    9  A    between atoms: C_33  and  S_35 
REMARK   10  A    between atoms: S_35  and  O_36 
REMARK   11  A    between atoms: S_51  and  O_52 
ROOT
HETATM    1  C   UNK N   1      31.002  17.200   4.679  0.00  0.00     0.034 A 
HETATM    2  C   UNK N   1      30.276  16.746   3.579  0.00  0.00     0.032 A 
HETATM    3  C   UNK N   1      28.874  16.814   3.601  0.00  0.00     0.034 A 
HETATM    4  C   UNK N   1      28.185  17.338   4.713  0.00  0.00     0.072 A 
HETATM    5  C   UNK N   1      28.946  17.694   5.870  0.00  0.00     0.101 A 
HETATM    6  C   UNK N   1      30.321  17.618   5.808  0.00  0.00     0.057 A 
ENDROOT
BRANCH   1   7
HETATM    7  N   UNK N   1      32.421  17.327   4.627  0.00  0.00    -0.355 N 
HETATM    8  H   UNK N   1      32.811  18.231   4.591  0.00  0.00     0.166 HD
BRANCH   7   9
HETATM    9  C   UNK N   1      33.304  16.194   4.625  0.00  0.00     0.049 A 
HETATM   10  C   UNK N   1      33.456  15.433   3.458  0.00  0.00     0.058 A 
HETATM   11  C   UNK N   1      34.287  14.331   3.395  0.00  0.00     0.101 A 
HETATM   12  C   UNK N   1      34.998  13.934   4.529  0.00  0.00     0.065 A 
HETATM   13  C   UNK N   1      34.867  14.666   5.741  0.00  0.00     0.059 A 
HETATM   14  C   UNK N   1      34.013  15.808   5.788  0.00  0.00     0.058 A 
HETATM   15  C   UNK N   1      35.618  14.262   6.969  0.00  0.00     0.196 A 
HETATM   16  C   UNK N   1      33.891  16.584   7.058  0.00  0.00     0.196 A 
HETATM   17  C   UNK N   1      34.658  16.178   8.253  0.00  0.00     0.029 A 
HETATM   18  O   UNK N   1      33.166  17.567   7.121  0.00  0.00    -0.286 OA
HETATM   19  C   UNK N   1      34.558  16.921   9.438  0.00  0.00     0.016 A 
HETATM   20  C   UNK N   1      35.494  15.051   8.209  0.00  0.00     0.029 A 
HETATM   21  C   UNK N   1      35.282  16.545  10.570  0.00  0.00     0.001 A 
HETATM   22  C   UNK N   1      36.112  15.424  10.528  0.00  0.00     0.001 A 
HETATM   23  C   UNK N   1      36.217  14.679   9.353  0.00  0.00     0.016 A 
HETATM   24  O   UNK N   1      36.345  13.278   6.959  0.00  0.00    -0.286 OA
BRANCH  11  25
HETATM   25  S   UNK N   1      34.444  13.467   1.828  0.00  0.00     0.132 S 
HETATM   26  O   UNK N   1      35.057  14.376   0.751  0.00  0.00    -0.597 OA
HETATM   27  O   UNK N   1      33.087  13.128   1.193  0.00  0.00    -0.597 OA
BRANCH  25  28
HETATM   28  O   UNK N   1      35.365  12.020   1.770  0.00  0.00    -0.292 OA
HETATM   29  H   UNK N   1      35.456  11.057   1.687  0.00  0.00     0.232 HD
ENDBRANCH  25  28
ENDBRANCH  11  25
BRANCH  12  30
HETATM   30  N   UNK N   1      35.851  12.809   4.447  0.00  0.00    -0.397 N 
HETATM   31  H   UNK N   1      36.774  12.913   4.123  0.00  0.00     0.156 HD
HETATM   32  H   UNK N   1      35.520  11.921   4.715  0.00  0.00     0.156 HD
ENDBRANCH  12  30
ENDBRANCH   7   9
ENDBRANCH   1   7
BRANCH   5  33
HETATM   33  S   UNK N   1      28.373  18.317   7.446  0.00  0.00     0.132 S 
HETATM   34  O   UNK N   1      29.616  18.535   8.312  0.00  0.00    -0.597 OA
HETATM   35  O   UNK N   1      27.679  19.686   7.496  0.00  0.00    -0.597 OA
BRANCH  33  36
HETATM   36  O   UNK N   1      27.442  17.256   8.420  0.00  0.00    -0.292 OA
HETATM   37  H   UNK N   1      26.573  17.132   8.835  0.00  0.00     0.232 HD
ENDBRANCH  33  36
ENDBRANCH   5  33
BRANCH   4  38
HETATM   38  N   UNK N   1      26.774  17.511   4.577  0.00  0.00    -0.190 N 
HETATM   39  C   UNK N   1      25.779  16.802   5.308  0.00  0.00     0.699 A 
HETATM   40  N   UNK N   1      24.470  17.134   5.167  0.00  0.00    -0.164 N 
HETATM   41  N   UNK N   1      26.119  15.806   6.158  0.00  0.00    -0.022 N 
HETATM   42  C   UNK N   1      23.518  16.456   5.859  0.00  0.00     0.208 A 
ATOM     43  HN  UNK N   1      24.202  17.894   4.541  1.00  0.00     0.186 HD
HETATM   44 Cl   UNK N   1      21.833  16.899   5.689  0.00  0.00    -0.044 Cl
HETATM   45  N   UNK N   1      23.868  15.415   6.663  0.00  0.00    -0.164 N 
HETATM   46  C   UNK N   1      25.179  15.087   6.815  0.00  0.00     0.699 A 
ATOM     47  HN  UNK N   1      23.148  14.883   7.152  1.00  0.00     0.186 HD
HETATM   48  N   UNK N   1      25.583  13.922   7.536  0.00  0.00    -0.190 N 
HETATM   49  H   UNK N   1      26.543  13.701   7.519  0.00  0.00     0.184 HD
ATOM     50  HN  UNK N   1      27.105  15.593   6.309  1.00  0.00     0.203 HD
HETATM   51  H   UNK N   1      26.462  18.177   3.922  0.00  0.00     0.184 HD
BRANCH  48  52
HETATM   52  C   UNK N   1      24.740  13.047   8.276  0.00  0.00     0.072 A 
HETATM   53  C   UNK N   1      24.542  13.243   9.652  0.00  0.00     0.031 A 
HETATM   54  C   UNK N   1      23.728  12.378  10.384  0.00  0.00     0.002 A 
HETATM   55  C   UNK N   1      23.101  11.306   9.752  0.00  0.00     0.002 A 
HETATM   56  C   UNK N   1      23.282  11.099   8.387  0.00  0.00     0.028 A 
HETATM   57  C   UNK N   1      24.094  11.956   7.637  0.00  0.00     0.099 A 
BRANCH  57  58
HETATM   58  S   UNK N   1      24.240  11.611   5.875  0.00  0.00     0.132 S 
HETATM   59  O   UNK N   1      25.666  11.697   5.325  0.00  0.00    -0.597 OA
HETATM   60  O   UNK N   1      23.582  12.746   5.077  0.00  0.00    -0.597 OA
BRANCH  58  61
HETATM   61  O   UNK N   1      23.536  10.190   5.219  0.00  0.00    -0.292 OA
HETATM   62  H   UNK N   1      22.597   9.977   5.097  0.00  0.00     0.232 HD
ENDBRANCH  58  61
ENDBRANCH  57  58
ENDBRANCH  48  52
ENDBRANCH   4  38
TORSDOF 11
ENDMDL
