REMARK  9 active torsions:
REMARK  status: ('A' for Active; 'I' for Inactive)
REMARK    1  A    between atoms: C_2  and  N_1 
REMARK    2  A    between atoms: C_3  and  O_4 
REMARK    3  A    between atoms: C_6  and  C_7 
REMARK    4  A    between atoms: C_7  and  O_8 
REMARK    5  A    between atoms: C_9  and  O_10 
REMARK    6  A    between atoms: O_10  and  P_11 
REMARK    7  A    between atoms: P_11  and  O_12 
REMARK    8  A    between atoms: P_11  and  O_13 
REMARK    9  A    between atoms: C_15  and  O_16 
ROOT
HETATM    1  C   UNK N   1       2.702   1.230  -0.333  0.00  0.00     0.161 C 
HETATM    2  C   UNK N   1       2.859  -0.284  -0.185  0.00  0.00     0.282 C 
HETATM    3  O   UNK N   1       1.769  -0.909  -0.810  0.00  0.00    -0.349 OA
HETATM    4  C   UNK N   1       0.654  -0.718   0.029  0.00  0.00     0.180 C 
HETATM    5  C   UNK N   1       0.230   0.767  -0.001  0.00  0.00     0.195 C 
HETATM    6  C   UNK N   1       1.425   1.638   0.406  0.00  0.00     0.177 C 
ENDROOT
BRANCH   5   7
HETATM    7  O   UNK N   1      -0.814   0.985   0.908  0.00  0.00    -0.286 OA
BRANCH   7   8
HETATM    8  P   UNK N   1      -2.145   1.639  -0.004  0.00  0.00     0.391 P 
HETATM    9  O   UNK N   1      -3.436   1.256   0.768  0.00  0.00    -0.632 OA
BRANCH   8  10
HETATM   10  O   UNK N   1      -2.292   0.931  -1.583  0.00  0.00    -0.307 OA
HETATM   11  H   UNK N   1      -2.676   0.804  -2.465  0.00  0.00     0.222 HD
ENDBRANCH   8  10
BRANCH   8  12
HETATM   12  O   UNK N   1      -2.101   3.373  -0.070  0.00  0.00    -0.307 OA
HETATM   13  H   UNK N   1      -1.249   3.836  -0.107  0.00  0.00     0.222 HD
ENDBRANCH   8  12
ENDBRANCH   7   8
ENDBRANCH   5   7
BRANCH   4  14
HETATM   14  C   UNK N   1      -0.464  -1.636  -0.450  0.00  0.00     0.198 C 
BRANCH  14  15
HETATM   15  O   UNK N   1      -1.511  -1.666   0.471  0.00  0.00    -0.398 OA
HETATM   16  H   UNK N   1      -1.894  -1.046   1.111  0.00  0.00     0.209 HD
ENDBRANCH  14  15
ENDBRANCH   4  14
BRANCH   6  17
HETATM   17  O   UNK N   1       1.144   2.986   0.177  0.00  0.00    -0.391 OA
HETATM   18  H   UNK N   1       1.857   3.624   0.019  0.00  0.00     0.210 HD
ENDBRANCH   6  17
BRANCH   1  19
HETATM   19  N   UNK N   1       3.842   1.915   0.254  0.00  0.00    -0.420 N 
HETATM   20  H   UNK N   1       4.658   1.462   0.666  0.00  0.00     0.150 HD
HETATM   21  H   UNK N   1       3.824   2.935   0.254  0.00  0.00     0.150 HD
ENDBRANCH   1  19
BRANCH   2  22
HETATM   22  O   UNK N   1       4.045  -0.712  -0.787  0.00  0.00    -0.369 OA
HETATM   23  H   UNK N   1       4.199  -1.574  -1.204  0.00  0.00     0.212 HD
ENDBRANCH   2  22
TORSDOF 9
