REMARK  7 active torsions:
REMARK  status: ('A' for Active; 'I' for Inactive)
REMARK       I    between atoms: N_1  and  C_2 
REMARK       I    between atoms: C_2  and  N_3 
REMARK    1  A    between atoms: C_6  and  C_9 
REMARK    2  A    between atoms: C_9  and  N_10 
REMARK       I    between atoms: N_10  and  C_11 
REMARK    3  A    between atoms: C_13  and  C_11 
REMARK    4  A    between atoms: N_18  and  S_23 
REMARK    5  A    between atoms: S_23  and  C_26 
REMARK    6  A    between atoms: C_26  and  C_27 
REMARK    7  A    between atoms: N_33  and  O_35 
ROOT
HETATM    1  C   UNK N   1      -0.303  -1.577   0.931  0.00  0.00     0.179 C 
HETATM    2  C   UNK N   1      -1.097  -0.338   1.338  0.00  0.00     0.037 C 
HETATM    3  C   UNK N   1      -0.743   0.727   0.283  0.00  0.00     0.029 C 
HETATM    4  C   UNK N   1       0.571   0.269  -0.343  0.00  0.00     0.102 C 
HETATM    5  C   UNK N   1       1.669   1.305  -0.091  0.00  0.00     0.133 C 
HETATM    6  N   UNK N   1       2.951   0.717  -0.473  0.00  0.00    -0.200 NA
HETATM    7  C   UNK N   1       3.299  -0.468   0.351  0.00  0.00     0.210 C 
HETATM    8  C   UNK N   1       2.108  -1.263   0.796  0.00  0.00     0.235 C 
HETATM    9  O   UNK N   1       2.278  -2.156   1.611  0.00  0.00    -0.272 OA
HETATM   10  N   UNK N   1       0.853  -0.960   0.351  0.00  0.00    -0.332 N 
ENDROOT
BRANCH   1  11
HETATM   11  C   UNK N   1      -1.140  -2.411  -0.052  0.00  0.00     0.240 C 
HETATM   12  N   UNK N   1      -0.617  -3.299  -0.944  0.00  0.00    -0.359 N 
HETATM   13  H   UNK N   1      -1.262  -3.863  -1.428  0.00  0.00     0.162 HD
HETATM   14  O   UNK N   1      -2.357  -2.308  -0.005  0.00  0.00    -0.271 OA
BRANCH  12  15
HETATM   15  C   UNK N   1       0.777  -3.506  -1.257  0.00  0.00     0.127 C 
BRANCH  15  16
HETATM   16  C   UNK N   1       1.584  -4.149  -0.146  0.00  0.00     0.006 C 
HETATM   17  C   UNK N   1       1.093  -5.539   0.300  0.00  0.00     0.027 C 
HETATM   18  C   UNK N   1       2.098  -6.697   0.115  0.00  0.00     0.141 C 
HETATM   19  N   UNK N   1       3.504  -6.307   0.204  0.00  0.00    -0.216 N 
HETATM   20  C   UNK N   1       4.574  -7.233  -0.058  0.00  0.00     0.693 C 
HETATM   21  C   UNK N   1       3.840  -4.923   0.434  0.00  0.00     0.141 C 
HETATM   22  N   UNK N   1       5.897  -6.742  -0.164  0.00  0.00    -0.233 N 
HETATM   23  N   UNK N   1       4.384  -8.504  -0.199  0.00  0.00    -0.099 N 
HETATM   24  H   UNK N   1       6.653  -7.368  -0.237  0.00  0.00     0.174 HD
HETATM   25  H   UNK N   1       6.062  -5.771  -0.164  0.00  0.00     0.174 HD
ATOM     26  HN  UNK N   1       5.190  -9.096  -0.401  1.00  0.00     0.213 HD
HETATM   27  C   UNK N   1       3.054  -4.090  -0.543  0.00  0.00     0.027 C 
BRANCH  23  28
HETATM   28  O   UNK N   1       3.201  -9.071  -0.095  0.00  0.00    -0.276 OA
HETATM   29  H   UNK N   1       2.431  -8.544  -0.021  0.00  0.00     0.245 HD
ENDBRANCH  23  28
ENDBRANCH  15  16
ENDBRANCH  12  15
ENDBRANCH   1  11
BRANCH   6  30
HETATM   30  S   UNK N   1       4.220   1.998  -0.676  0.00  0.00     0.216 S 
HETATM   31  O   UNK N   1       4.375   1.724   0.833  0.00  0.00    -0.211 OA
HETATM   32  O   UNK N   1       4.905   0.842  -1.417  0.00  0.00    -0.211 OA
BRANCH  30  33
HETATM   33  C   UNK N   1       5.947   2.033   0.090  0.00  0.00     0.196 C 
BRANCH  33  34
HETATM   34  C   UNK N   1       6.914   0.850   0.073  0.00  0.00    -0.043 A 
HETATM   35  C   UNK N   1       8.161   0.990  -0.544  0.00  0.00     0.008 A 
HETATM   36  C   UNK N   1       9.045  -0.093  -0.596  0.00  0.00     0.001 A 
HETATM   37  C   UNK N   1       8.682  -1.321  -0.036  0.00  0.00     0.000 A 
HETATM   38  C   UNK N   1       7.438  -1.465   0.586  0.00  0.00     0.001 A 
HETATM   39  C   UNK N   1       6.557  -0.381   0.645  0.00  0.00     0.008 A 
ENDBRANCH  33  34
ENDBRANCH  30  33
ENDBRANCH   6  30
TORSDOF 7
