MODEL 1
REMARK VINA RESULT:      -4.3      0.000      0.000
REMARK  2 active torsions:
REMARK  status: ('A' for Active; 'I' for Inactive)
REMARK    1  A    between atoms: C_3  and  C_4 
REMARK    2  A    between atoms: O_7  and  C_4 
ROOT
HETATM    1  C   UNK N   1      33.954  15.681   9.191  0.00  0.00     0.111 A 
HETATM    2  C   UNK N   1      35.312  16.137  11.328  0.00  0.00     0.189 A 
HETATM    3  C   UNK N   1      34.597  17.063   9.162  0.00  0.00     0.185 A 
HETATM    4  N   UNK N   1      35.352  17.258  10.403  0.00  0.00    -0.400 N 
HETATM    5  S   UNK N   1      34.326  14.772  10.700  0.00  0.00    -0.147 SA
HETATM    6  H   UNK N   1      35.867  18.117  10.601  0.00  0.00     0.154 HD
ENDROOT
BRANCH   3   7
HETATM    7  C   UNK N   1      34.679  18.265   8.244  0.00  0.00     0.163 C 
HETATM    8  O   UNK N   1      34.105  18.236   7.164  0.00  0.00    -0.648 OA
BRANCH   7   9
HETATM    9  O   UNK N   1      35.373  19.372   8.586  0.00  0.00    -0.775 OA
HETATM   10  H   UNK N   1      34.932  20.195   8.665  0.00  0.00     0.167 HD
ENDBRANCH   7   9
ENDBRANCH   3   7
TORSDOF 2
ENDMDL
MODEL 2
REMARK VINA RESULT:      -4.1     15.870     16.303
REMARK  2 active torsions:
REMARK  status: ('A' for Active; 'I' for Inactive)
REMARK    1  A    between atoms: C_3  and  C_4 
REMARK    2  A    between atoms: O_7  and  C_4 
ROOT
HETATM    1  C   UNK N   1      20.692  18.586   3.152  0.00  0.00     0.111 A 
HETATM    2  C   UNK N   1      19.935  16.977   1.293  0.00  0.00     0.189 A 
HETATM    3  C   UNK N   1      20.645  19.279   1.796  0.00  0.00     0.185 A 
HETATM    4  N   UNK N   1      20.208  18.312   0.785  0.00  0.00    -0.400 N 
HETATM    5  S   UNK N   1      20.208  16.853   3.065  0.00  0.00    -0.147 SA
HETATM    6  H   UNK N   1      20.104  18.557  -0.200  0.00  0.00     0.154 HD
ENDROOT
BRANCH   3   7
HETATM    7  C   UNK N   1      20.913  20.648   1.203  0.00  0.00     0.163 C 
HETATM    8  O   UNK N   1      21.087  20.756  -0.003  0.00  0.00    -0.648 OA
BRANCH   7   9
HETATM    9  O   UNK N   1      20.965  21.756   1.973  0.00  0.00    -0.775 OA
HETATM   10  H   UNK N   1      20.201  22.041   2.436  0.00  0.00     0.167 HD
ENDBRANCH   7   9
ENDBRANCH   3   7
TORSDOF 2
ENDMDL
MODEL 3
REMARK VINA RESULT:      -3.9      1.154      1.907
REMARK  2 active torsions:
REMARK  status: ('A' for Active; 'I' for Inactive)
REMARK    1  A    between atoms: C_3  and  C_4 
REMARK    2  A    between atoms: O_7  and  C_4 
ROOT
HETATM    1  C   UNK N   1      35.288  16.522  10.305  0.00  0.00     0.111 A 
HETATM    2  C   UNK N   1      33.213  15.101   9.763  0.00  0.00     0.189 A 
HETATM    3  C   UNK N   1      34.548  17.054   9.083  0.00  0.00     0.185 A 
HETATM    4  N   UNK N   1      33.382  16.204   8.830  0.00  0.00    -0.400 N 
HETATM    5  S   UNK N   1      34.504  15.063  11.013  0.00  0.00    -0.147 SA
HETATM    6  H   UNK N   1      32.737  16.373   8.057  0.00  0.00     0.154 HD
ENDROOT
BRANCH   3   7
HETATM    7  C   UNK N   1      34.666  18.181   8.078  0.00  0.00     0.163 C 
HETATM    8  O   UNK N   1      34.977  19.300   8.464  0.00  0.00    -0.648 OA
BRANCH   7   9
HETATM    9  O   UNK N   1      34.438  17.984   6.761  0.00  0.00    -0.775 OA
HETATM   10  H   UNK N   1      33.679  18.356   6.357  0.00  0.00     0.167 HD
ENDBRANCH   7   9
ENDBRANCH   3   7
TORSDOF 2
ENDMDL
MODEL 4
REMARK VINA RESULT:      -3.9     15.311     15.828
REMARK  2 active torsions:
REMARK  status: ('A' for Active; 'I' for Inactive)
REMARK    1  A    between atoms: C_3  and  C_4 
REMARK    2  A    between atoms: O_7  and  C_4 
ROOT
HETATM    1  C   UNK N   1      19.533  18.260   2.412  0.00  0.00     0.111 A 
HETATM    2  C   UNK N   1      21.525  17.977   4.015  0.00  0.00     0.189 A 
HETATM    3  C   UNK N   1      20.604  19.316   2.167  0.00  0.00     0.185 A 
HETATM    4  N   UNK N   1      21.706  19.100   3.108  0.00  0.00    -0.400 N 
HETATM    5  S   UNK N   1      19.966  17.126   3.743  0.00  0.00    -0.147 SA
HETATM    6  H   UNK N   1      22.536  19.693   3.126  0.00  0.00     0.154 HD
ENDROOT
BRANCH   3   7
HETATM    7  C   UNK N   1      20.854  20.498   1.252  0.00  0.00     0.163 C 
HETATM    8  O   UNK N   1      21.289  21.540   1.722  0.00  0.00    -0.648 OA
BRANCH   7   9
HETATM    9  O   UNK N   1      20.607  20.432  -0.075  0.00  0.00    -0.775 OA
HETATM   10  H   UNK N   1      19.993  19.807  -0.406  0.00  0.00     0.167 HD
ENDBRANCH   7   9
ENDBRANCH   3   7
TORSDOF 2
ENDMDL
MODEL 5
REMARK VINA RESULT:      -3.7      2.943      3.432
REMARK  2 active torsions:
REMARK  status: ('A' for Active; 'I' for Inactive)
REMARK    1  A    between atoms: C_3  and  C_4 
REMARK    2  A    between atoms: O_7  and  C_4 
ROOT
HETATM    1  C   UNK N   1      32.940  17.199   6.570  0.00  0.00     0.111 A 
HETATM    2  C   UNK N   1      30.999  17.074   8.255  0.00  0.00     0.189 A 
HETATM    3  C   UNK N   1      33.377  17.639   7.962  0.00  0.00     0.185 A 
HETATM    4  N   UNK N   1      32.230  17.545   8.870  0.00  0.00    -0.400 N 
HETATM    5  S   UNK N   1      31.205  16.721   6.504  0.00  0.00    -0.147 SA
HETATM    6  H   UNK N   1      32.291  17.792   9.858  0.00  0.00     0.154 HD
ENDROOT
BRANCH   3   7
HETATM    7  C   UNK N   1      34.626  18.135   8.664  0.00  0.00     0.163 C 
HETATM    8  O   UNK N   1      35.097  19.221   8.355  0.00  0.00    -0.648 OA
BRANCH   7   9
HETATM    9  O   UNK N   1      35.234  17.408   9.626  0.00  0.00    -0.775 OA
HETATM   10  H   UNK N   1      35.520  16.535   9.442  0.00  0.00     0.167 HD
ENDBRANCH   7   9
ENDBRANCH   3   7
TORSDOF 2
ENDMDL
MODEL 6
REMARK VINA RESULT:      -3.7      3.296      3.927
REMARK  2 active torsions:
REMARK  status: ('A' for Active; 'I' for Inactive)
REMARK    1  A    between atoms: C_3  and  C_4 
REMARK    2  A    between atoms: O_7  and  C_4 
ROOT
HETATM    1  C   UNK N   1      34.979  13.499  12.141  0.00  0.00     0.111 A 
HETATM    2  C   UNK N   1      36.352  13.925  14.274  0.00  0.00     0.189 A 
HETATM    3  C   UNK N   1      35.680  14.851  12.095  0.00  0.00     0.185 A 
HETATM    4  N   UNK N   1      36.441  15.031  13.334  0.00  0.00    -0.400 N 
HETATM    5  S   UNK N   1      35.309  12.595  13.663  0.00  0.00    -0.147 SA
HETATM    6  H   UNK N   1      36.992  15.869  13.522  0.00  0.00     0.154 HD
ENDROOT
BRANCH   3   7
HETATM    7  C   UNK N   1      35.816  16.036  11.160  0.00  0.00     0.163 C 
HETATM    8  O   UNK N   1      36.880  16.232  10.590  0.00  0.00    -0.648 OA
BRANCH   7   9
HETATM    9  O   UNK N   1      34.789  16.885  10.939  0.00  0.00    -0.775 OA
HETATM   10  H   UNK N   1      34.928  17.811  10.987  0.00  0.00     0.167 HD
ENDBRANCH   7   9
ENDBRANCH   3   7
TORSDOF 2
ENDMDL
MODEL 7
REMARK VINA RESULT:      -3.6      7.849      8.446
REMARK  2 active torsions:
REMARK  status: ('A' for Active; 'I' for Inactive)
REMARK    1  A    between atoms: C_3  and  C_4 
REMARK    2  A    between atoms: O_7  and  C_4 
ROOT
HETATM    1  C   UNK N   1      28.228  18.814   5.620  0.00  0.00     0.111 A 
HETATM    2  C   UNK N   1      26.503  20.711   5.831  0.00  0.00     0.189 A 
HETATM    3  C   UNK N   1      27.926  19.137   7.078  0.00  0.00     0.185 A 
HETATM    4  N   UNK N   1      26.941  20.220   7.128  0.00  0.00    -0.400 N 
HETATM    5  S   UNK N   1      27.298  19.845   4.472  0.00  0.00    -0.147 SA
HETATM    6  H   UNK N   1      26.589  20.601   8.007  0.00  0.00     0.154 HD
ENDROOT
BRANCH   3   7
HETATM    7  C   UNK N   1      28.340  18.672   8.460  0.00  0.00     0.163 C 
HETATM    8  O   UNK N   1      29.514  18.752   8.793  0.00  0.00    -0.648 OA
BRANCH   7   9
HETATM    9  O   UNK N   1      27.444  18.171   9.337  0.00  0.00    -0.775 OA
HETATM   10  H   UNK N   1      27.015  17.358   9.155  0.00  0.00     0.167 HD
ENDBRANCH   7   9
ENDBRANCH   3   7
TORSDOF 2
ENDMDL
MODEL 8
REMARK VINA RESULT:      -3.6     12.691     13.361
REMARK  2 active torsions:
REMARK  status: ('A' for Active; 'I' for Inactive)
REMARK    1  A    between atoms: C_3  and  C_4 
REMARK    2  A    between atoms: O_7  and  C_4 
ROOT
HETATM    1  C   UNK N   1      22.959  13.345   8.943  0.00  0.00     0.111 A 
HETATM    2  C   UNK N   1      24.758  12.519  10.586  0.00  0.00     0.189 A 
HETATM    3  C   UNK N   1      22.340  12.800  10.224  0.00  0.00     0.185 A 
HETATM    4  N   UNK N   1      23.414  12.348  11.113  0.00  0.00    -0.400 N 
HETATM    5  S   UNK N   1      24.758  13.256   8.946  0.00  0.00    -0.147 SA
HETATM    6  H   UNK N   1      23.231  11.944  12.032  0.00  0.00     0.154 HD
ENDROOT
BRANCH   3   7
HETATM    7  C   UNK N   1      20.967  12.593  10.831  0.00  0.00     0.163 C 
HETATM    8  O   UNK N   1      20.001  13.156  10.335  0.00  0.00    -0.648 OA
BRANCH   7   9
HETATM    9  O   UNK N   1      20.780  11.802  11.910  0.00  0.00    -0.775 OA
HETATM   10  H   UNK N   1      20.024  11.252  11.962  0.00  0.00     0.167 HD
ENDBRANCH   7   9
ENDBRANCH   3   7
TORSDOF 2
ENDMDL
MODEL 9
REMARK VINA RESULT:      -3.6     12.106     12.434
REMARK  2 active torsions:
REMARK  status: ('A' for Active; 'I' for Inactive)
REMARK    1  A    between atoms: C_3  and  C_4 
REMARK    2  A    between atoms: O_7  and  C_4 
ROOT
HETATM    1  C   UNK N   1      43.308  21.233   1.879  0.00  0.00     0.111 A 
HETATM    2  C   UNK N   1      41.774  23.290   1.693  0.00  0.00     0.189 A 
HETATM    3  C   UNK N   1      43.538  22.209   3.026  0.00  0.00     0.185 A 
HETATM    4  N   UNK N   1      42.637  23.353   2.862  0.00  0.00    -0.400 N 
HETATM    5  S   UNK N   1      42.039  21.796   0.731  0.00  0.00    -0.147 SA
HETATM    6  H   UNK N   1      42.618  24.134   3.518  0.00  0.00     0.154 HD
ENDROOT
BRANCH   3   7
HETATM    7  C   UNK N   1      44.408  22.335   4.261  0.00  0.00     0.163 C 
HETATM    8  O   UNK N   1      43.890  22.603   5.336  0.00  0.00    -0.648 OA
BRANCH   7   9
HETATM    9  O   UNK N   1      45.747  22.160   4.205  0.00  0.00    -0.775 OA
HETATM   10  H   UNK N   1      46.156  21.510   4.741  0.00  0.00     0.167 HD
ENDBRANCH   7   9
ENDBRANCH   3   7
TORSDOF 2
ENDMDL
