MODEL 1
REMARK VINA RESULT:      -5.3      0.000      0.000
REMARK  5 active torsions:
REMARK  status: ('A' for Active; 'I' for Inactive)
REMARK       I    between atoms: C_2  and  N_4 
REMARK    1  A    between atoms: C_5  and  N_4 
REMARK    2  A    between atoms: C_6  and  O_7 
REMARK    3  A    between atoms: C_8  and  O_9 
REMARK    4  A    between atoms: C_10  and  C_11 
REMARK    5  A    between atoms: C_11  and  O_12 
ROOT
HETATM    1  C   UNK N   1      20.258  17.529   4.136  0.00  0.00     0.215 C 
HETATM    2  C   UNK N   1      20.377  17.113   2.673  0.00  0.00     0.182 C 
HETATM    3  C   UNK N   1      20.066  18.288   1.769  0.00  0.00     0.181 C 
HETATM    4  C   UNK N   1      21.127  19.378   1.987  0.00  0.00     0.186 C 
HETATM    5  O   UNK N   1      21.405  19.610   3.326  0.00  0.00    -0.309 OA
HETATM    6  C   UNK N   1      20.967  18.852   4.370  0.00  0.00     0.285 C 
HETATM    7  O   UNK N   1      21.102  19.278   5.503  0.00  0.00    -0.263 OA
ENDROOT
BRANCH   1   8
HETATM    8  N   UNK N   1      20.794  16.455   4.952  0.00  0.00    -0.345 N 
HETATM    9  C   UNK N   1      20.059  15.729   5.830  0.00  0.00     0.214 C 
HETATM   10  C   UNK N   1      20.699  14.605   6.567  0.00  0.00     0.117 C 
HETATM   11  O   UNK N   1      18.872  15.966   6.006  0.00  0.00    -0.274 OA
HETATM   12  H   UNK N   1      21.750  16.240   4.862  0.00  0.00     0.163 HD
ENDBRANCH   1   8
BRANCH   2  13
HETATM   13  O   UNK N   1      19.507  16.052   2.415  0.00  0.00    -0.390 OA
HETATM   14  H   UNK N   1      19.152  15.438   3.077  0.00  0.00     0.210 HD
ENDBRANCH   2  13
BRANCH   3  15
HETATM   15  O   UNK N   1      20.085  17.876   0.434  0.00  0.00    -0.390 OA
HETATM   16  H   UNK N   1      19.998  18.510  -0.294  0.00  0.00     0.210 HD
ENDBRANCH   3  15
BRANCH   4  17
HETATM   17  C   UNK N   1      20.680  20.686   1.345  0.00  0.00     0.199 C 
BRANCH  17  18
HETATM   18  O   UNK N   1      20.658  20.570  -0.046  0.00  0.00    -0.398 OA
HETATM   19  H   UNK N   1      21.285  19.993  -0.508  0.00  0.00     0.209 HD
ENDBRANCH  17  18
ENDBRANCH   4  17
TORSDOF 5
ENDMDL
MODEL 2
REMARK VINA RESULT:      -5.3     11.004     12.381
REMARK  5 active torsions:
REMARK  status: ('A' for Active; 'I' for Inactive)
REMARK       I    between atoms: C_2  and  N_4 
REMARK    1  A    between atoms: C_5  and  N_4 
REMARK    2  A    between atoms: C_6  and  O_7 
REMARK    3  A    between atoms: C_8  and  O_9 
REMARK    4  A    between atoms: C_10  and  C_11 
REMARK    5  A    between atoms: C_11  and  O_12 
ROOT
HETATM    1  C   UNK N   1      31.899  17.226   6.803  0.00  0.00     0.215 C 
HETATM    2  C   UNK N   1      31.579  17.008   8.279  0.00  0.00     0.182 C 
HETATM    3  C   UNK N   1      30.406  17.873   8.692  0.00  0.00     0.181 C 
HETATM    4  C   UNK N   1      29.158  17.422   7.916  0.00  0.00     0.186 C 
HETATM    5  O   UNK N   1      29.400  17.210   6.567  0.00  0.00    -0.309 OA
HETATM    6  C   UNK N   1      30.626  17.194   5.975  0.00  0.00     0.285 C 
HETATM    7  O   UNK N   1      30.692  17.210   4.758  0.00  0.00    -0.263 OA
ENDROOT
BRANCH   1   8
HETATM    8  N   UNK N   1      32.857  16.214   6.398  0.00  0.00    -0.345 N 
HETATM    9  C   UNK N   1      34.191  16.429   6.295  0.00  0.00     0.214 C 
HETATM   10  C   UNK N   1      35.090  15.298   5.935  0.00  0.00     0.117 C 
HETATM   11  O   UNK N   1      34.672  17.531   6.520  0.00  0.00    -0.274 OA
HETATM   12  H   UNK N   1      32.516  15.316   6.185  0.00  0.00     0.163 HD
ENDBRANCH   1   8
BRANCH   2  13
HETATM   13  O   UNK N   1      32.703  17.306   9.052  0.00  0.00    -0.390 OA
HETATM   14  H   UNK N   1      33.574  16.887   8.968  0.00  0.00     0.210 HD
ENDBRANCH   2  13
BRANCH   3  15
HETATM   15  O   UNK N   1      30.178  17.738  10.064  0.00  0.00    -0.390 OA
HETATM   16  H   UNK N   1      30.378  16.914  10.534  0.00  0.00     0.210 HD
ENDBRANCH   3  15
BRANCH   4  17
HETATM   17  C   UNK N   1      28.045  18.453   8.060  0.00  0.00     0.199 C 
BRANCH  17  18
HETATM   18  O   UNK N   1      27.435  18.350   9.310  0.00  0.00    -0.398 OA
HETATM   19  H   UNK N   1      26.527  18.664   9.448  0.00  0.00     0.209 HD
ENDBRANCH  17  18
ENDBRANCH   4  17
TORSDOF 5
ENDMDL
MODEL 3
REMARK VINA RESULT:      -5.2     14.136     15.557
REMARK  5 active torsions:
REMARK  status: ('A' for Active; 'I' for Inactive)
REMARK       I    between atoms: C_2  and  N_4 
REMARK    1  A    between atoms: C_5  and  N_4 
REMARK    2  A    between atoms: C_6  and  O_7 
REMARK    3  A    between atoms: C_8  and  O_9 
REMARK    4  A    between atoms: C_10  and  C_11 
REMARK    5  A    between atoms: C_11  and  O_12 
ROOT
HETATM    1  C   UNK N   1      34.374  16.934   7.502  0.00  0.00     0.215 C 
HETATM    2  C   UNK N   1      33.932  15.618   8.133  0.00  0.00     0.182 C 
HETATM    3  C   UNK N   1      34.896  15.217   9.231  0.00  0.00     0.181 C 
HETATM    4  C   UNK N   1      34.837  16.265  10.352  0.00  0.00     0.186 C 
HETATM    5  O   UNK N   1      34.854  17.570   9.882  0.00  0.00    -0.309 OA
HETATM    6  C   UNK N   1      34.734  17.944   8.578  0.00  0.00     0.285 C 
HETATM    7  O   UNK N   1      34.977  19.099   8.272  0.00  0.00    -0.263 OA
ENDROOT
BRANCH   1   8
HETATM    8  N   UNK N   1      33.306  17.396   6.635  0.00  0.00    -0.345 N 
HETATM    9  C   UNK N   1      33.201  17.077   5.322  0.00  0.00     0.214 C 
HETATM   10  C   UNK N   1      32.024  17.554   4.544  0.00  0.00     0.117 C 
HETATM   11  O   UNK N   1      34.043  16.381   4.773  0.00  0.00    -0.274 OA
HETATM   12  H   UNK N   1      32.614  17.978   7.026  0.00  0.00     0.163 HD
ENDBRANCH   1   8
BRANCH   2  13
HETATM   13  O   UNK N   1      33.865  14.625   7.153  0.00  0.00    -0.390 OA
HETATM   14  H   UNK N   1      33.872  14.777   6.195  0.00  0.00     0.210 HD
ENDBRANCH   2  13
BRANCH   3  15
HETATM   15  O   UNK N   1      34.538  13.966   9.742  0.00  0.00    -0.390 OA
HETATM   16  H   UNK N   1      35.143  13.209   9.704  0.00  0.00     0.210 HD
ENDBRANCH   3  15
BRANCH   4  17
HETATM   17  C   UNK N   1      36.004  16.075  11.315  0.00  0.00     0.199 C 
BRANCH  17  18
HETATM   18  O   UNK N   1      37.165  15.731  10.622  0.00  0.00    -0.398 OA
HETATM   19  H   UNK N   1      38.036  16.019  10.936  0.00  0.00     0.209 HD
ENDBRANCH  17  18
ENDBRANCH   4  17
TORSDOF 5
ENDMDL
MODEL 4
REMARK VINA RESULT:      -5.2     10.237     11.547
REMARK  5 active torsions:
REMARK  status: ('A' for Active; 'I' for Inactive)
REMARK       I    between atoms: C_2  and  N_4 
REMARK    1  A    between atoms: C_5  and  N_4 
REMARK    2  A    between atoms: C_6  and  O_7 
REMARK    3  A    between atoms: C_8  and  O_9 
REMARK    4  A    between atoms: C_10  and  C_11 
REMARK    5  A    between atoms: C_11  and  O_12 
ROOT
HETATM    1  C   UNK N   1      30.995  17.745   8.159  0.00  0.00     0.215 C 
HETATM    2  C   UNK N   1      29.798  17.685   9.103  0.00  0.00     0.182 C 
HETATM    3  C   UNK N   1      28.535  18.090   8.370  0.00  0.00     0.181 C 
HETATM    4  C   UNK N   1      28.253  17.064   7.261  0.00  0.00     0.186 C 
HETATM    5  O   UNK N   1      29.381  16.727   6.529  0.00  0.00    -0.309 OA
HETATM    6  C   UNK N   1      30.660  17.079   6.836  0.00  0.00     0.285 C 
HETATM    7  O   UNK N   1      31.535  16.904   6.005  0.00  0.00    -0.263 OA
ENDROOT
BRANCH   1   8
HETATM    8  N   UNK N   1      32.124  17.125   8.829  0.00  0.00    -0.345 N 
HETATM    9  C   UNK N   1      33.404  17.554   8.715  0.00  0.00     0.214 C 
HETATM   10  C   UNK N   1      34.475  16.882   9.501  0.00  0.00     0.117 C 
HETATM   11  O   UNK N   1      33.690  18.503   7.998  0.00  0.00    -0.274 OA
HETATM   12  H   UNK N   1      31.948  16.344   9.401  0.00  0.00     0.163 HD
ENDBRANCH   1   8
BRANCH   2  13
HETATM   13  O   UNK N   1      30.019  18.524  10.197  0.00  0.00    -0.390 OA
HETATM   14  H   UNK N   1      29.825  18.309  11.122  0.00  0.00     0.210 HD
ENDBRANCH   2  13
BRANCH   3  15
HETATM   15  O   UNK N   1      27.460  18.123   9.261  0.00  0.00    -0.390 OA
HETATM   16  H   UNK N   1      27.509  18.607  10.100  0.00  0.00     0.210 HD
ENDBRANCH   3  15
BRANCH   4  17
HETATM   17  C   UNK N   1      27.189  17.596   6.308  0.00  0.00     0.199 C 
BRANCH  17  18
HETATM   18  O   UNK N   1      27.019  18.971   6.475  0.00  0.00    -0.398 OA
HETATM   19  H   UNK N   1      27.601  19.603   6.023  0.00  0.00     0.209 HD
ENDBRANCH  17  18
ENDBRANCH   4  17
TORSDOF 5
ENDMDL
MODEL 5
REMARK VINA RESULT:      -5.1     16.476     17.906
REMARK  5 active torsions:
REMARK  status: ('A' for Active; 'I' for Inactive)
REMARK       I    between atoms: C_2  and  N_4 
REMARK    1  A    between atoms: C_5  and  N_4 
REMARK    2  A    between atoms: C_6  and  O_7 
REMARK    3  A    between atoms: C_8  and  O_9 
REMARK    4  A    between atoms: C_10  and  C_11 
REMARK    5  A    between atoms: C_11  and  O_12 
ROOT
HETATM    1  C   UNK N   1      36.486  13.590  11.443  0.00  0.00     0.215 C 
HETATM    2  C   UNK N   1      34.960  13.613  11.423  0.00  0.00     0.182 C 
HETATM    3  C   UNK N   1      34.465  15.001  11.070  0.00  0.00     0.181 C 
HETATM    4  C   UNK N   1      34.914  15.341   9.641  0.00  0.00     0.186 C 
HETATM    5  O   UNK N   1      36.237  15.012   9.390  0.00  0.00    -0.309 OA
HETATM    6  C   UNK N   1      37.043  14.286  10.214  0.00  0.00     0.285 C 
HETATM    7  O   UNK N   1      38.239  14.246   9.982  0.00  0.00    -0.263 OA
ENDROOT
BRANCH   1   8
HETATM    8  N   UNK N   1      36.910  12.206  11.545  0.00  0.00    -0.345 N 
HETATM    9  C   UNK N   1      37.249  11.598  12.708  0.00  0.00     0.214 C 
HETATM   10  C   UNK N   1      37.606  10.152  12.702  0.00  0.00     0.117 C 
HETATM   11  O   UNK N   1      37.239  12.211  13.766  0.00  0.00    -0.274 OA
HETATM   12  H   UNK N   1      36.956  11.675  10.716  0.00  0.00     0.163 HD
ENDBRANCH   1   8
BRANCH   2  13
HETATM   13  O   UNK N   1      34.467  13.219  12.668  0.00  0.00    -0.390 OA
HETATM   14  H   UNK N   1      34.021  12.379  12.859  0.00  0.00     0.210 HD
ENDBRANCH   2  13
BRANCH   3  15
HETATM   15  O   UNK N   1      33.070  15.039  11.144  0.00  0.00    -0.390 OA
HETATM   16  H   UNK N   1      32.607  15.704  11.676  0.00  0.00     0.210 HD
ENDBRANCH   3  15
BRANCH   4  17
HETATM   17  C   UNK N   1      34.716  16.827   9.365  0.00  0.00     0.199 C 
BRANCH  17  18
HETATM   18  O   UNK N   1      35.530  17.597  10.196  0.00  0.00    -0.398 OA
HETATM   19  H   UNK N   1      36.294  18.077   9.839  0.00  0.00     0.209 HD
ENDBRANCH  17  18
ENDBRANCH   4  17
TORSDOF 5
ENDMDL
MODEL 6
REMARK VINA RESULT:      -5.1     13.033     14.432
REMARK  5 active torsions:
REMARK  status: ('A' for Active; 'I' for Inactive)
REMARK       I    between atoms: C_2  and  N_4 
REMARK    1  A    between atoms: C_5  and  N_4 
REMARK    2  A    between atoms: C_6  and  O_7 
REMARK    3  A    between atoms: C_8  and  O_9 
REMARK    4  A    between atoms: C_10  and  C_11 
REMARK    5  A    between atoms: C_11  and  O_12 
ROOT
HETATM    1  C   UNK N   1      32.407  20.829  -4.319  0.00  0.00     0.215 C 
HETATM    2  C   UNK N   1      31.856  21.195  -2.944  0.00  0.00     0.182 C 
HETATM    3  C   UNK N   1      31.167  22.543  -3.001  0.00  0.00     0.181 C 
HETATM    4  C   UNK N   1      29.950  22.441  -3.933  0.00  0.00     0.186 C 
HETATM    5  O   UNK N   1      30.222  21.771  -5.116  0.00  0.00    -0.309 OA
HETATM    6  C   UNK N   1      31.365  21.084  -5.393  0.00  0.00     0.285 C 
HETATM    7  O   UNK N   1      31.570  20.721  -6.538  0.00  0.00    -0.263 OA
ENDROOT
BRANCH   1   8
HETATM    8  N   UNK N   1      32.838  19.444  -4.273  0.00  0.00    -0.345 N 
HETATM    9  C   UNK N   1      34.129  19.053  -4.139  0.00  0.00     0.214 C 
HETATM   10  C   UNK N   1      34.449  17.603  -4.037  0.00  0.00     0.117 C 
HETATM   11  O   UNK N   1      35.032  19.874  -4.071  0.00  0.00    -0.274 OA
HETATM   12  H   UNK N   1      32.149  18.744  -4.345  0.00  0.00     0.163 HD
ENDBRANCH   1   8
BRANCH   2  13
HETATM   13  O   UNK N   1      32.894  21.214  -2.011  0.00  0.00    -0.390 OA
HETATM   14  H   UNK N   1      33.596  21.882  -1.960  0.00  0.00     0.210 HD
ENDBRANCH   2  13
BRANCH   3  15
HETATM   15  O   UNK N   1      30.746  22.914  -1.721  0.00  0.00    -0.390 OA
HETATM   16  H   UNK N   1      29.834  22.773  -1.425  0.00  0.00     0.210 HD
ENDBRANCH   3  15
BRANCH   4  17
HETATM   17  C   UNK N   1      29.422  23.831  -4.266  0.00  0.00     0.199 C 
BRANCH  17  18
HETATM   18  O   UNK N   1      28.549  24.280  -3.273  0.00  0.00    -0.398 OA
HETATM   19  H   UNK N   1      27.687  24.659  -3.503  0.00  0.00     0.209 HD
ENDBRANCH  17  18
ENDBRANCH   4  17
TORSDOF 5
ENDMDL
MODEL 7
REMARK VINA RESULT:      -5.1     11.740     13.543
REMARK  5 active torsions:
REMARK  status: ('A' for Active; 'I' for Inactive)
REMARK       I    between atoms: C_2  and  N_4 
REMARK    1  A    between atoms: C_5  and  N_4 
REMARK    2  A    between atoms: C_6  and  O_7 
REMARK    3  A    between atoms: C_8  and  O_9 
REMARK    4  A    between atoms: C_10  and  C_11 
REMARK    5  A    between atoms: C_11  and  O_12 
ROOT
HETATM    1  C   UNK N   1      29.266  22.979  -3.682  0.00  0.00     0.215 C 
HETATM    2  C   UNK N   1      30.511  22.937  -2.802  0.00  0.00     0.182 C 
HETATM    3  C   UNK N   1      31.282  21.656  -3.050  0.00  0.00     0.181 C 
HETATM    4  C   UNK N   1      31.787  21.653  -4.501  0.00  0.00     0.186 C 
HETATM    5  O   UNK N   1      30.824  22.051  -5.416  0.00  0.00    -0.309 OA
HETATM    6  C   UNK N   1      29.611  22.586  -5.108  0.00  0.00     0.285 C 
HETATM    7  O   UNK N   1      28.775  22.695  -5.989  0.00  0.00    -0.263 OA
ENDROOT
BRANCH   1   8
HETATM    8  N   UNK N   1      28.698  24.311  -3.590  0.00  0.00    -0.345 N 
HETATM    9  C   UNK N   1      27.402  24.566  -3.285  0.00  0.00     0.214 C 
HETATM   10  C   UNK N   1      26.944  25.976  -3.152  0.00  0.00     0.117 C 
HETATM   11  O   UNK N   1      26.610  23.655  -3.089  0.00  0.00    -0.274 OA
HETATM   12  H   UNK N   1      29.291  25.078  -3.761  0.00  0.00     0.163 HD
ENDBRANCH   1   8
BRANCH   2  13
HETATM   13  O   UNK N   1      30.141  23.033  -1.459  0.00  0.00    -0.390 OA
HETATM   14  H   UNK N   1      30.547  22.547  -0.725  0.00  0.00     0.210 HD
ENDBRANCH   2  13
BRANCH   3  15
HETATM   15  O   UNK N   1      32.369  21.581  -2.176  0.00  0.00    -0.390 OA
HETATM   16  H   UNK N   1      32.493  22.225  -1.462  0.00  0.00     0.210 HD
ENDBRANCH   3  15
BRANCH   4  17
HETATM   17  C   UNK N   1      32.285  20.264  -4.884  0.00  0.00     0.199 C 
BRANCH  17  18
HETATM   18  O   UNK N   1      31.737  19.294  -4.044  0.00  0.00    -0.398 OA
HETATM   19  H   UNK N   1      30.958  18.783  -4.316  0.00  0.00     0.209 HD
ENDBRANCH  17  18
ENDBRANCH   4  17
TORSDOF 5
ENDMDL
MODEL 8
REMARK VINA RESULT:      -5.1     11.848     13.577
REMARK  5 active torsions:
REMARK  status: ('A' for Active; 'I' for Inactive)
REMARK       I    between atoms: C_2  and  N_4 
REMARK    1  A    between atoms: C_5  and  N_4 
REMARK    2  A    between atoms: C_6  and  O_7 
REMARK    3  A    between atoms: C_8  and  O_9 
REMARK    4  A    between atoms: C_10  and  C_11 
REMARK    5  A    between atoms: C_11  and  O_12 
ROOT
HETATM    1  C   UNK N   1      27.725  24.756  -4.863  0.00  0.00     0.215 C 
HETATM    2  C   UNK N   1      27.679  24.420  -3.375  0.00  0.00     0.182 C 
HETATM    3  C   UNK N   1      28.743  23.397  -3.038  0.00  0.00     0.181 C 
HETATM    4  C   UNK N   1      30.127  24.017  -3.291  0.00  0.00     0.186 C 
HETATM    5  O   UNK N   1      30.207  24.705  -4.492  0.00  0.00    -0.309 OA
HETATM    6  C   UNK N   1      29.156  25.002  -5.307  0.00  0.00     0.285 C 
HETATM    7  O   UNK N   1      29.382  25.421  -6.429  0.00  0.00    -0.263 OA
ENDROOT
BRANCH   1   8
HETATM    8  N   UNK N   1      26.863  25.902  -5.090  0.00  0.00    -0.345 N 
HETATM    9  C   UNK N   1      25.583  25.815  -5.528  0.00  0.00     0.214 C 
HETATM   10  C   UNK N   1      24.769  27.054  -5.662  0.00  0.00     0.117 C 
HETATM   11  O   UNK N   1      25.078  24.732  -5.788  0.00  0.00    -0.274 OA
HETATM   12  H   UNK N   1      27.232  26.798  -4.916  0.00  0.00     0.163 HD
ENDBRANCH   1   8
BRANCH   2  13
HETATM   13  O   UNK N   1      26.412  23.937  -3.042  0.00  0.00    -0.390 OA
HETATM   14  H   UNK N   1      26.224  23.077  -2.635  0.00  0.00     0.210 HD
ENDBRANCH   2  13
BRANCH   3  15
HETATM   15  O   UNK N   1      28.635  23.025  -1.696  0.00  0.00    -0.390 OA
HETATM   16  H   UNK N   1      27.816  23.160  -1.195  0.00  0.00     0.210 HD
ENDBRANCH   3  15
BRANCH   4  17
HETATM   17  C   UNK N   1      31.201  22.936  -3.271  0.00  0.00     0.199 C 
BRANCH  17  18
HETATM   18  O   UNK N   1      31.356  22.416  -1.985  0.00  0.00    -0.398 OA
HETATM   19  H   UNK N   1      32.236  22.202  -1.638  0.00  0.00     0.209 HD
ENDBRANCH  17  18
ENDBRANCH   4  17
TORSDOF 5
ENDMDL
MODEL 9
REMARK VINA RESULT:      -5.0     13.196     14.809
REMARK  5 active torsions:
REMARK  status: ('A' for Active; 'I' for Inactive)
REMARK       I    between atoms: C_2  and  N_4 
REMARK    1  A    between atoms: C_5  and  N_4 
REMARK    2  A    between atoms: C_6  and  O_7 
REMARK    3  A    between atoms: C_8  and  O_9 
REMARK    4  A    between atoms: C_10  and  C_11 
REMARK    5  A    between atoms: C_11  and  O_12 
ROOT
HETATM    1  C   UNK N   1      33.202  16.405   7.161  0.00  0.00     0.215 C 
HETATM    2  C   UNK N   1      34.402  17.100   7.797  0.00  0.00     0.182 C 
HETATM    3  C   UNK N   1      34.430  16.832   9.288  0.00  0.00     0.181 C 
HETATM    4  C   UNK N   1      34.639  15.328   9.519  0.00  0.00     0.186 C 
HETATM    5  O   UNK N   1      33.846  14.534   8.704  0.00  0.00    -0.309 OA
HETATM    6  C   UNK N   1      33.092  14.975   7.659  0.00  0.00     0.285 C 
HETATM    7  O   UNK N   1      32.279  14.217   7.159  0.00  0.00    -0.263 OA
ENDROOT
BRANCH   1   8
HETATM    8  N   UNK N   1      33.350  16.487   5.719  0.00  0.00    -0.345 N 
HETATM    9  C   UNK N   1      32.409  16.996   4.887  0.00  0.00     0.214 C 
HETATM   10  C   UNK N   1      32.696  17.092   3.429  0.00  0.00     0.117 C 
HETATM   11  O   UNK N   1      31.340  17.404   5.317  0.00  0.00    -0.274 OA
HETATM   12  H   UNK N   1      34.185  16.151   5.322  0.00  0.00     0.163 HD
ENDBRANCH   1   8
BRANCH   2  13
HETATM   13  O   UNK N   1      34.337  18.472   7.547  0.00  0.00    -0.390 OA
HETATM   14  H   UNK N   1      33.650  19.074   7.874  0.00  0.00     0.210 HD
ENDBRANCH   2  13
BRANCH   3  15
HETATM   15  O   UNK N   1      35.476  17.546   9.878  0.00  0.00    -0.390 OA
HETATM   16  H   UNK N   1      35.478  18.515   9.905  0.00  0.00     0.210 HD
ENDBRANCH   3  15
BRANCH   4  17
HETATM   17  C   UNK N   1      34.358  14.973  10.974  0.00  0.00     0.199 C 
BRANCH  17  18
HETATM   18  O   UNK N   1      32.985  14.962  11.224  0.00  0.00    -0.398 OA
HETATM   19  H   UNK N   1      32.636  14.640  12.070  0.00  0.00     0.209 HD
ENDBRANCH  17  18
ENDBRANCH   4  17
TORSDOF 5
ENDMDL
