REMARK  1 active torsions:
REMARK  status: ('A' for Active; 'I' for Inactive)
REMARK    1  A    between atoms: As_2  and  O_4 
ROOT
HETATM    1  C   UNK N   1       1.118  -1.966   0.000  0.00  0.00     0.000 C 
HETATM    2 As   UNK N   1       1.070  -0.000   0.000  0.00  0.00     0.000 As
HETATM    3  C   UNK N   1       1.118   1.966   0.000  0.00  0.00     0.000 C 
HETATM    4  O   UNK N   1      -0.576  -0.000   0.000  0.00  0.00     0.000 OA
ENDROOT
BRANCH   2   5
HETATM    5  O   UNK N   1       2.907  -0.000   0.000  0.00  0.00    -0.253 OA
HETATM    6  H   UNK N   1       3.392  -0.840   0.000  0.00  0.00     0.253 HD
ENDBRANCH   2   5
TORSDOF 1
