REMARK  15 active torsions:
REMARK  status: ('A' for Active; 'I' for Inactive)
REMARK    1  A    between atoms: C_16  and  C_8 
REMARK    2  A    between atoms: O_31  and  C_8 
REMARK    3  A    between atoms: C_17  and  C_9 
REMARK    4  A    between atoms: O_32  and  C_9 
REMARK    5  A    between atoms: O_33  and  C_11 
REMARK    6  A    between atoms: O_34  and  C_12 
REMARK    7  A    between atoms: O_39  and  C_13 
REMARK    8  A    between atoms: C_19  and  N_27 
REMARK    9  A    between atoms: C_20  and  N_29 
REMARK   10  A    between atoms: C_21  and  O_36 
REMARK   11  A    between atoms: C_22  and  O_37 
REMARK   12  A    between atoms: C_23  and  O_38 
REMARK   13  A    between atoms: C_24  and  O_43 
REMARK   14  A    between atoms: C_25  and  O_39 
REMARK   15  A    between atoms: C_26  and  O_43 
ROOT
HETATM    1  C   UNK N   1      -0.692   1.225  -0.533  0.00  0.00     0.180 C 
HETATM    2  C   UNK N   1      -1.162  -1.621  -0.221  0.00  0.00     0.170 C 
HETATM    3  C   UNK N   1      -2.370  -0.633  -0.031  0.00  0.00     0.177 C 
HETATM    4  C   UNK N   1      -2.131   0.702  -0.812  0.00  0.00     0.186 C 
HETATM    5  C   UNK N   1       0.098  -0.830   0.195  0.00  0.00     0.292 C 
HETATM    6  O   UNK N   1       0.219   0.195  -0.764  0.00  0.00    -0.349 OA
ENDROOT
BRANCH   4   7
HETATM    7  O   UNK N   1      -3.232   1.632  -0.699  0.00  0.00    -0.348 OA
BRANCH   7   8
HETATM    8  C   UNK N   1      -3.192   2.749   0.208  0.00  0.00     0.286 C 
HETATM    9  C   UNK N   1      -4.295   3.760  -0.264  0.00  0.00     0.169 C 
HETATM   10  C   UNK N   1      -4.214   5.072   0.547  0.00  0.00     0.177 C 
HETATM   11  C   UNK N   1      -2.797   5.645   0.483  0.00  0.00     0.180 C 
HETATM   12  C   UNK N   1      -1.842   4.552   0.969  0.00  0.00     0.179 C 
HETATM   13  O   UNK N   1      -1.949   3.426   0.125  0.00  0.00    -0.349 OA
BRANCH   9  14
HETATM   14  N   UNK N   1      -5.691   3.319  -0.287  0.00  0.00    -0.363 N 
HETATM   15  C   UNK N   1      -6.271   2.252   0.157  0.00  0.00     0.107 C 
HETATM   16  C   UNK N   1      -5.557   1.163   0.883  0.00  0.00     0.097 C 
ATOM     17  HN  UNK N   1      -6.325   3.977  -0.740  1.00  0.00     0.162 HD
BRANCH  15  18
HETATM   18  O   UNK N   1      -7.598   2.122  -0.025  0.00  0.00    -0.350 OA
HETATM   19  H   UNK N   1      -8.138   2.877  -0.152  0.00  0.00     0.219 HD
ENDBRANCH  15  18
ENDBRANCH   9  14
BRANCH  10  20
HETATM   20  O   UNK N   1      -5.118   6.015   0.048  0.00  0.00    -0.391 OA
HETATM   21  H   UNK N   1      -4.866   6.885  -0.298  0.00  0.00     0.210 HD
ENDBRANCH  10  20
BRANCH  11  22
HETATM   22  O   UNK N   1      -2.492   6.012  -0.834  0.00  0.00    -0.390 OA
HETATM   23  H   UNK N   1      -2.166   5.957  -1.746  0.00  0.00     0.210 HD
ENDBRANCH  11  22
BRANCH  12  24
HETATM   24  C   UNK N   1      -0.387   5.031   0.965  0.00  0.00     0.198 C 
BRANCH  24  25
HETATM   25  O   UNK N   1       0.073   5.261  -0.335  0.00  0.00    -0.398 OA
HETATM   26  H   UNK N   1       0.371   5.064  -1.237  0.00  0.00     0.209 HD
ENDBRANCH  24  25
ENDBRANCH  12  24
ENDBRANCH   7   8
ENDBRANCH   4   7
BRANCH   1  27
HETATM   27  C   UNK N   1      -0.259   2.346  -1.484  0.00  0.00     0.198 C 
BRANCH  27  28
HETATM   28  O   UNK N   1      -0.215   1.905  -2.807  0.00  0.00    -0.398 OA
HETATM   29  H   UNK N   1      -0.465   1.725  -3.727  0.00  0.00     0.209 HD
ENDBRANCH  27  28
ENDBRANCH   1  27
BRANCH   3  30
HETATM   30  O   UNK N   1      -3.547  -1.238  -0.480  0.00  0.00    -0.391 OA
HETATM   31  H   UNK N   1      -4.319  -0.740  -0.791  0.00  0.00     0.210 HD
ENDBRANCH   3  30
BRANCH   2  32
HETATM   32  N   UNK N   1      -1.360  -2.835   0.555  0.00  0.00    -0.363 N 
HETATM   33  C   UNK N   1      -0.637  -3.897   0.405  0.00  0.00     0.107 C 
HETATM   34  C   UNK N   1      -0.926  -5.107   1.224  0.00  0.00     0.097 C 
ATOM     35  HN  UNK N   1      -2.105  -2.849   1.251  1.00  0.00     0.162 HD
BRANCH  33  36
HETATM   36  O   UNK N   1       0.356  -3.944  -0.508  0.00  0.00    -0.350 OA
HETATM   37  H   UNK N   1       0.673  -4.557  -1.142  0.00  0.00     0.219 HD
ENDBRANCH  33  36
ENDBRANCH   2  32
BRANCH   5  38
HETATM   38  O   UNK N   1       1.316  -1.498   0.187  0.00  0.00    -0.318 OA
BRANCH  38  39
HETATM   39  C   UNK N   1       2.478  -0.776   0.317  0.00  0.00     0.074 A 
HETATM   40  C   UNK N   1       2.435   0.586   0.693  0.00  0.00     0.038 A 
HETATM   41  C   UNK N   1       3.561   1.390   0.642  0.00  0.00     0.017 A 
HETATM   42  C   UNK N   1       4.775   0.850   0.225  0.00  0.00     0.004 A 
HETATM   43  C   UNK N   1       5.917   1.650   0.102  0.00  0.00    -0.043 A 
HETATM   44  C   UNK N   1       4.860  -0.525  -0.094  0.00  0.00     0.092 A 
HETATM   45  C   UNK N   1       5.886   3.118   0.381  0.00  0.00     0.049 C 
HETATM   46  C   UNK N   1       7.108   1.061  -0.313  0.00  0.00     0.090 A 
HETATM   47  C   UNK N   1       7.128  -0.307  -0.591  0.00  0.00     0.288 A 
HETATM   48  O   UNK N   1       8.171  -0.831  -0.947  0.00  0.00    -0.260 OA
HETATM   49  O   UNK N   1       6.025  -1.045  -0.482  0.00  0.00    -0.275 OA
HETATM   50  C   UNK N   1       3.710  -1.335  -0.049  0.00  0.00     0.075 A 
ENDBRANCH  38  39
ENDBRANCH   5  38
TORSDOF 15
