MODEL 1
REMARK VINA RESULT:      -5.7      0.000      0.000
REMARK  12 active torsions:
REMARK  status: ('A' for Active; 'I' for Inactive)
REMARK    1  A    between atoms: N_1  and  C_2 
REMARK    2  A    between atoms: C_2  and  C_3 
REMARK    3  A    between atoms: C_3  and  O_4 
REMARK    4  A    between atoms: O_4  and  C_5 
REMARK    5  A    between atoms: C_5  and  C_6 
REMARK    6  A    between atoms: C_6  and  O_7 
REMARK    7  A    between atoms: O_7  and  C_8 
REMARK    8  A    between atoms: C_8  and  C_9 
REMARK    9  A    between atoms: C_9  and  N_10 
REMARK       I    between atoms: N_10  and  C_11 
REMARK   10  A    between atoms: C_11  and  C_13 
REMARK   11  A    between atoms: C_16  and  S_19 
REMARK   12  A    between atoms: S_19  and  N_20 
ROOT
HETATM    1  N   UNK N   1      21.120  15.118   7.005  0.00  0.00    -0.355 N 
HETATM    2  C   UNK N   1      20.231  15.743   6.203  0.00  0.00     0.251 C 
HETATM    3  O   UNK N   1      19.043  15.428   6.236  0.00  0.00    -0.268 OA
HETATM    4  H   UNK N   1      22.063  15.402   6.987  0.00  0.00     0.162 HD
ENDROOT
BRANCH   2   5
HETATM    5  C   UNK N   1      20.703  16.703   5.190  0.00  0.00     0.032 A 
HETATM    6  C   UNK N   1      21.683  17.645   5.523  0.00  0.00     0.018 A 
HETATM    7  C   UNK N   1      21.980  18.690   4.647  0.00  0.00     0.026 A 
HETATM    8  C   UNK N   1      21.319  18.780   3.419  0.00  0.00     0.079 A 
HETATM    9  C   UNK N   1      20.379  17.810   3.056  0.00  0.00     0.026 A 
HETATM   10  C   UNK N   1      20.069  16.775   3.938  0.00  0.00     0.018 A 
BRANCH   8  11
HETATM   11  S   UNK N   1      21.438  20.284   2.470  0.00  0.00     0.256 S 
HETATM   12  O   UNK N   1      20.500  20.994   3.451  0.00  0.00    -0.201 OA
HETATM   13  O   UNK N   1      22.567  21.291   2.740  0.00  0.00    -0.201 OA
BRANCH  11  14
HETATM   14  N   UNK N   1      20.462  20.781   1.088  0.00  0.00    -0.324 N 
HETATM   15  H   UNK N   1      20.802  20.624   0.138  0.00  0.00     0.169 HD
HETATM   16  H   UNK N   1      19.556  21.225   1.237  0.00  0.00     0.169 HD
ENDBRANCH  11  14
ENDBRANCH   8  11
ENDBRANCH   2   5
BRANCH   1  17
HETATM   17  C   UNK N   1      20.730  14.047   7.888  0.00  0.00     0.149 C 
BRANCH  17  18
HETATM   18  C   UNK N   1      20.599  14.555   9.305  0.00  0.00     0.187 C 
BRANCH  18  19
HETATM   19  O   UNK N   1      21.597  13.997  10.107  0.00  0.00    -0.387 OA
BRANCH  19  20
HETATM   20  C   UNK N   1      21.094  12.755  10.509  0.00  0.00     0.193 C 
BRANCH  20  21
HETATM   21  C   UNK N   1      22.250  11.785  10.702  0.00  0.00     0.193 C 
BRANCH  21  22
HETATM   22  O   UNK N   1      23.355  12.423  11.284  0.00  0.00    -0.387 OA
BRANCH  22  23
HETATM   23  C   UNK N   1      24.484  12.051  10.536  0.00  0.00     0.186 C 
BRANCH  23  24
HETATM   24  C   UNK N   1      25.108  13.248   9.838  0.00  0.00     0.137 C 
BRANCH  24  25
HETATM   25  N   UNK N   1      26.066  13.886  10.724  0.00  0.00    -0.428 N 
HETATM   26  H   UNK N   1      26.959  14.253  10.395  0.00  0.00     0.149 HD
HETATM   27  H   UNK N   1      25.837  13.972  11.715  0.00  0.00     0.149 HD
ENDBRANCH  24  25
ENDBRANCH  23  24
ENDBRANCH  22  23
ENDBRANCH  21  22
ENDBRANCH  20  21
ENDBRANCH  19  20
ENDBRANCH  18  19
ENDBRANCH  17  18
ENDBRANCH   1  17
TORSDOF 12
ENDMDL
MODEL 2
REMARK VINA RESULT:      -5.7     10.191     12.510
REMARK  12 active torsions:
REMARK  status: ('A' for Active; 'I' for Inactive)
REMARK    1  A    between atoms: N_1  and  C_2 
REMARK    2  A    between atoms: C_2  and  C_3 
REMARK    3  A    between atoms: C_3  and  O_4 
REMARK    4  A    between atoms: O_4  and  C_5 
REMARK    5  A    between atoms: C_5  and  C_6 
REMARK    6  A    between atoms: C_6  and  O_7 
REMARK    7  A    between atoms: O_7  and  C_8 
REMARK    8  A    between atoms: C_8  and  C_9 
REMARK    9  A    between atoms: C_9  and  N_10 
REMARK       I    between atoms: N_10  and  C_11 
REMARK   10  A    between atoms: C_11  and  C_13 
REMARK   11  A    between atoms: C_16  and  S_19 
REMARK   12  A    between atoms: S_19  and  N_20 
ROOT
HETATM    1  N   UNK N   1      34.486  17.037   9.533  0.00  0.00    -0.355 N 
HETATM    2  C   UNK N   1      34.405  17.905   8.499  0.00  0.00     0.251 C 
HETATM    3  O   UNK N   1      35.161  18.872   8.446  0.00  0.00    -0.268 OA
HETATM    4  H   UNK N   1      33.892  16.251   9.545  0.00  0.00     0.162 HD
ENDROOT
BRANCH   2   5
HETATM    5  C   UNK N   1      33.322  17.770   7.510  0.00  0.00     0.032 A 
HETATM    6  C   UNK N   1      31.995  17.641   7.938  0.00  0.00     0.018 A 
HETATM    7  C   UNK N   1      30.994  17.299   7.030  0.00  0.00     0.026 A 
HETATM    8  C   UNK N   1      31.309  17.113   5.681  0.00  0.00     0.079 A 
HETATM    9  C   UNK N   1      32.622  17.297   5.236  0.00  0.00     0.026 A 
HETATM   10  C   UNK N   1      33.627  17.623   6.147  0.00  0.00     0.018 A 
BRANCH   8  11
HETATM   11  S   UNK N   1      30.117  16.344   4.602  0.00  0.00     0.256 S 
HETATM   12  O   UNK N   1      31.224  15.509   3.951  0.00  0.00    -0.201 OA
HETATM   13  O   UNK N   1      29.358  15.085   5.047  0.00  0.00    -0.201 OA
BRANCH  11  14
HETATM   14  N   UNK N   1      29.542  16.909   3.033  0.00  0.00    -0.324 N 
HETATM   15  H   UNK N   1      29.744  16.372   2.190  0.00  0.00     0.169 HD
HETATM   16  H   UNK N   1      29.006  17.775   2.969  0.00  0.00     0.169 HD
ENDBRANCH  11  14
ENDBRANCH   8  11
ENDBRANCH   2   5
BRANCH   1  17
HETATM   17  C   UNK N   1      35.416  17.228  10.617  0.00  0.00     0.149 C 
BRANCH  17  18
HETATM   18  C   UNK N   1      35.925  15.894  11.114  0.00  0.00     0.187 C 
BRANCH  18  19
HETATM   19  O   UNK N   1      36.917  15.412  10.257  0.00  0.00    -0.387 OA
BRANCH  19  20
HETATM   20  C   UNK N   1      36.452  14.168   9.819  0.00  0.00     0.193 C 
BRANCH  20  21
HETATM   21  C   UNK N   1      36.300  14.194   8.306  0.00  0.00     0.193 C 
BRANCH  21  22
HETATM   22  O   UNK N   1      34.961  14.386   7.936  0.00  0.00    -0.387 OA
BRANCH  22  23
HETATM   23  C   UNK N   1      34.183  13.562   8.765  0.00  0.00     0.186 C 
BRANCH  23  24
HETATM   24  C   UNK N   1      32.712  13.936   8.701  0.00  0.00     0.137 C 
BRANCH  24  25
HETATM   25  N   UNK N   1      32.278  13.980   7.316  0.00  0.00    -0.428 N 
HETATM   26  H   UNK N   1      31.365  13.638   7.015  0.00  0.00     0.149 HD
HETATM   27  H   UNK N   1      32.910  14.369   6.615  0.00  0.00     0.149 HD
ENDBRANCH  24  25
ENDBRANCH  23  24
ENDBRANCH  22  23
ENDBRANCH  21  22
ENDBRANCH  20  21
ENDBRANCH  19  20
ENDBRANCH  18  19
ENDBRANCH  17  18
ENDBRANCH   1  17
TORSDOF 12
ENDMDL
MODEL 3
REMARK VINA RESULT:      -5.7      6.134      7.474
REMARK  12 active torsions:
REMARK  status: ('A' for Active; 'I' for Inactive)
REMARK    1  A    between atoms: N_1  and  C_2 
REMARK    2  A    between atoms: C_2  and  C_3 
REMARK    3  A    between atoms: C_3  and  O_4 
REMARK    4  A    between atoms: O_4  and  C_5 
REMARK    5  A    between atoms: C_5  and  C_6 
REMARK    6  A    between atoms: C_6  and  O_7 
REMARK    7  A    between atoms: O_7  and  C_8 
REMARK    8  A    between atoms: C_8  and  C_9 
REMARK    9  A    between atoms: C_9  and  N_10 
REMARK       I    between atoms: N_10  and  C_11 
REMARK   10  A    between atoms: C_11  and  C_13 
REMARK   11  A    between atoms: C_16  and  S_19 
REMARK   12  A    between atoms: S_19  and  N_20 
ROOT
HETATM    1  N   UNK N   1      26.978  18.703   6.138  0.00  0.00    -0.355 N 
HETATM    2  C   UNK N   1      26.883  19.398   4.983  0.00  0.00     0.251 C 
HETATM    3  O   UNK N   1      27.825  20.085   4.597  0.00  0.00    -0.268 OA
HETATM    4  H   UNK N   1      26.224  18.135   6.419  0.00  0.00     0.162 HD
ENDROOT
BRANCH   2   5
HETATM    5  C   UNK N   1      25.601  19.444   4.257  0.00  0.00     0.032 A 
HETATM    6  C   UNK N   1      25.381  20.430   3.289  0.00  0.00     0.018 A 
HETATM    7  C   UNK N   1      24.106  20.618   2.754  0.00  0.00     0.026 A 
HETATM    8  C   UNK N   1      23.050  19.799   3.164  0.00  0.00     0.079 A 
HETATM    9  C   UNK N   1      23.276  18.774   4.089  0.00  0.00     0.026 A 
HETATM   10  C   UNK N   1      24.546  18.597   4.636  0.00  0.00     0.018 A 
BRANCH   8  11
HETATM   11  S   UNK N   1      21.378  20.259   2.754  0.00  0.00     0.256 S 
HETATM   12  O   UNK N   1      20.943  18.792   2.824  0.00  0.00    -0.201 OA
HETATM   13  O   UNK N   1      20.384  20.660   3.855  0.00  0.00    -0.201 OA
BRANCH  11  14
HETATM   14  N   UNK N   1      20.662  20.454   1.153  0.00  0.00    -0.324 N 
HETATM   15  H   UNK N   1      21.207  20.867   0.396  0.00  0.00     0.169 HD
HETATM   16  H   UNK N   1      19.702  20.152   0.985  0.00  0.00     0.169 HD
ENDBRANCH  11  14
ENDBRANCH   8  11
ENDBRANCH   2   5
BRANCH   1  17
HETATM   17  C   UNK N   1      28.152  18.769   6.973  0.00  0.00     0.149 C 
BRANCH  17  18
HETATM   18  C   UNK N   1      28.234  17.550   7.862  0.00  0.00     0.187 C 
BRANCH  18  19
HETATM   19  O   UNK N   1      29.518  17.434   8.398  0.00  0.00    -0.387 OA
BRANCH  19  20
HETATM   20  C   UNK N   1      30.357  17.211   7.302  0.00  0.00     0.193 C 
BRANCH  20  21
HETATM   21  C   UNK N   1      31.779  16.996   7.794  0.00  0.00     0.193 C 
BRANCH  21  22
HETATM   22  O   UNK N   1      32.373  18.210   8.173  0.00  0.00    -0.387 OA
BRANCH  22  23
HETATM   23  C   UNK N   1      33.757  17.984   8.245  0.00  0.00     0.186 C 
BRANCH  23  24
HETATM   24  C   UNK N   1      34.079  16.765   9.093  0.00  0.00     0.137 C 
BRANCH  24  25
HETATM   25  N   UNK N   1      34.831  17.170  10.267  0.00  0.00    -0.428 N 
HETATM   26  H   UNK N   1      35.666  17.752  10.211  0.00  0.00     0.149 HD
HETATM   27  H   UNK N   1      34.511  16.861  11.186  0.00  0.00     0.149 HD
ENDBRANCH  24  25
ENDBRANCH  23  24
ENDBRANCH  22  23
ENDBRANCH  21  22
ENDBRANCH  20  21
ENDBRANCH  19  20
ENDBRANCH  18  19
ENDBRANCH  17  18
ENDBRANCH   1  17
TORSDOF 12
ENDMDL
MODEL 4
REMARK VINA RESULT:      -5.6      5.628      6.920
REMARK  12 active torsions:
REMARK  status: ('A' for Active; 'I' for Inactive)
REMARK    1  A    between atoms: N_1  and  C_2 
REMARK    2  A    between atoms: C_2  and  C_3 
REMARK    3  A    between atoms: C_3  and  O_4 
REMARK    4  A    between atoms: O_4  and  C_5 
REMARK    5  A    between atoms: C_5  and  C_6 
REMARK    6  A    between atoms: C_6  and  O_7 
REMARK    7  A    between atoms: O_7  and  C_8 
REMARK    8  A    between atoms: C_8  and  C_9 
REMARK    9  A    between atoms: C_9  and  N_10 
REMARK       I    between atoms: N_10  and  C_11 
REMARK   10  A    between atoms: C_11  and  C_13 
REMARK   11  A    between atoms: C_16  and  S_19 
REMARK   12  A    between atoms: S_19  and  N_20 
ROOT
HETATM    1  N   UNK N   1      27.781  18.613   4.272  0.00  0.00    -0.355 N 
HETATM    2  C   UNK N   1      26.785  19.367   4.789  0.00  0.00     0.251 C 
HETATM    3  O   UNK N   1      26.922  19.901   5.886  0.00  0.00    -0.268 OA
HETATM    4  H   UNK N   1      27.666  18.215   3.378  0.00  0.00     0.162 HD
ENDROOT
BRANCH   2   5
HETATM    5  C   UNK N   1      25.483  19.435   4.102  0.00  0.00     0.032 A 
HETATM    6  C   UNK N   1      25.251  20.424   3.139  0.00  0.00     0.018 A 
HETATM    7  C   UNK N   1      23.964  20.634   2.643  0.00  0.00     0.026 A 
HETATM    8  C   UNK N   1      22.907  19.834   3.085  0.00  0.00     0.079 A 
HETATM    9  C   UNK N   1      23.142  18.806   4.004  0.00  0.00     0.026 A 
HETATM   10  C   UNK N   1      24.425  18.607   4.513  0.00  0.00     0.018 A 
BRANCH   8  11
HETATM   11  S   UNK N   1      21.231  20.322   2.726  0.00  0.00     0.256 S 
HETATM   12  O   UNK N   1      20.778  18.860   2.784  0.00  0.00    -0.201 OA
HETATM   13  O   UNK N   1      20.271  20.718   3.858  0.00  0.00    -0.201 OA
BRANCH  11  14
HETATM   14  N   UNK N   1      20.478  20.552   1.147  0.00  0.00    -0.324 N 
HETATM   15  H   UNK N   1      19.488  20.789   1.082  0.00  0.00     0.169 HD
HETATM   16  H   UNK N   1      21.034  20.450   0.298  0.00  0.00     0.169 HD
ENDBRANCH  11  14
ENDBRANCH   8  11
ENDBRANCH   2   5
BRANCH   1  17
HETATM   17  C   UNK N   1      29.007  18.374   4.991  0.00  0.00     0.149 C 
BRANCH  17  18
HETATM   18  C   UNK N   1      29.282  16.891   5.083  0.00  0.00     0.187 C 
BRANCH  18  19
HETATM   19  O   UNK N   1      29.224  16.475   6.415  0.00  0.00    -0.387 OA
BRANCH  19  20
HETATM   20  C   UNK N   1      30.525  16.071   6.731  0.00  0.00     0.193 C 
BRANCH  20  21
HETATM   21  C   UNK N   1      31.222  17.181   7.501  0.00  0.00     0.193 C 
BRANCH  21  22
HETATM   22  O   UNK N   1      30.851  17.170   8.854  0.00  0.00    -0.387 OA
BRANCH  22  23
HETATM   23  C   UNK N   1      30.160  18.367   9.100  0.00  0.00     0.186 C 
BRANCH  23  24
HETATM   24  C   UNK N   1      28.706  18.108   9.458  0.00  0.00     0.137 C 
BRANCH  24  25
HETATM   25  N   UNK N   1      27.854  18.472   8.340  0.00  0.00    -0.428 N 
HETATM   26  H   UNK N   1      27.795  17.911   7.490  0.00  0.00     0.149 HD
HETATM   27  H   UNK N   1      27.293  19.322   8.406  0.00  0.00     0.149 HD
ENDBRANCH  24  25
ENDBRANCH  23  24
ENDBRANCH  22  23
ENDBRANCH  21  22
ENDBRANCH  20  21
ENDBRANCH  19  20
ENDBRANCH  18  19
ENDBRANCH  17  18
ENDBRANCH   1  17
TORSDOF 12
ENDMDL
MODEL 5
REMARK VINA RESULT:      -5.6     10.704     12.901
REMARK  12 active torsions:
REMARK  status: ('A' for Active; 'I' for Inactive)
REMARK    1  A    between atoms: N_1  and  C_2 
REMARK    2  A    between atoms: C_2  and  C_3 
REMARK    3  A    between atoms: C_3  and  O_4 
REMARK    4  A    between atoms: O_4  and  C_5 
REMARK    5  A    between atoms: C_5  and  C_6 
REMARK    6  A    between atoms: C_6  and  O_7 
REMARK    7  A    between atoms: O_7  and  C_8 
REMARK    8  A    between atoms: C_8  and  C_9 
REMARK    9  A    between atoms: C_9  and  N_10 
REMARK       I    between atoms: N_10  and  C_11 
REMARK   10  A    between atoms: C_11  and  C_13 
REMARK   11  A    between atoms: C_16  and  S_19 
REMARK   12  A    between atoms: S_19  and  N_20 
ROOT
HETATM    1  N   UNK N   1      34.491  17.042   9.505  0.00  0.00    -0.355 N 
HETATM    2  C   UNK N   1      34.408  17.928   8.488  0.00  0.00     0.251 C 
HETATM    3  O   UNK N   1      35.132  18.921   8.474  0.00  0.00    -0.268 OA
HETATM    4  H   UNK N   1      33.924  16.237   9.487  0.00  0.00     0.162 HD
ENDROOT
BRANCH   2   5
HETATM    5  C   UNK N   1      33.355  17.779   7.468  0.00  0.00     0.032 A 
HETATM    6  C   UNK N   1      32.021  17.611   7.859  0.00  0.00     0.018 A 
HETATM    7  C   UNK N   1      31.053  17.254   6.920  0.00  0.00     0.026 A 
HETATM    8  C   UNK N   1      31.409  17.094   5.578  0.00  0.00     0.079 A 
HETATM    9  C   UNK N   1      32.728  17.316   5.171  0.00  0.00     0.026 A 
HETATM   10  C   UNK N   1      33.700  17.655   6.112  0.00  0.00     0.018 A 
BRANCH   8  11
HETATM   11  S   UNK N   1      30.266  16.308   4.459  0.00  0.00     0.256 S 
HETATM   12  O   UNK N   1      31.390  15.423   3.910  0.00  0.00    -0.201 OA
HETATM   13  O   UNK N   1      29.451  15.084   4.905  0.00  0.00    -0.201 OA
BRANCH  11  14
HETATM   14  N   UNK N   1      29.801  16.822   2.837  0.00  0.00    -0.324 N 
HETATM   15  H   UNK N   1      29.123  17.574   2.713  0.00  0.00     0.169 HD
HETATM   16  H   UNK N   1      30.211  16.367   2.021  0.00  0.00     0.169 HD
ENDBRANCH  11  14
ENDBRANCH   8  11
ENDBRANCH   2   5
BRANCH   1  17
HETATM   17  C   UNK N   1      35.386  17.241  10.618  0.00  0.00     0.149 C 
BRANCH  17  18
HETATM   18  C   UNK N   1      35.886  15.911  11.134  0.00  0.00     0.187 C 
BRANCH  18  19
HETATM   19  O   UNK N   1      36.841  15.388  10.260  0.00  0.00    -0.387 OA
BRANCH  19  20
HETATM   20  C   UNK N   1      37.011  14.057  10.654  0.00  0.00     0.193 C 
BRANCH  20  21
HETATM   21  C   UNK N   1      35.719  13.549  11.276  0.00  0.00     0.193 C 
BRANCH  21  22
HETATM   22  O   UNK N   1      35.972  12.540  12.217  0.00  0.00    -0.387 OA
BRANCH  22  23
HETATM   23  C   UNK N   1      35.286  12.893  13.390  0.00  0.00     0.186 C 
BRANCH  23  24
HETATM   24  C   UNK N   1      36.117  13.817  14.265  0.00  0.00     0.137 C 
BRANCH  24  25
HETATM   25  N   UNK N   1      37.337  13.142  14.669  0.00  0.00    -0.428 N 
HETATM   26  H   UNK N   1      37.529  12.168  14.437  0.00  0.00     0.149 HD
HETATM   27  H   UNK N   1      38.032  13.663  15.206  0.00  0.00     0.149 HD
ENDBRANCH  24  25
ENDBRANCH  23  24
ENDBRANCH  22  23
ENDBRANCH  21  22
ENDBRANCH  20  21
ENDBRANCH  19  20
ENDBRANCH  18  19
ENDBRANCH  17  18
ENDBRANCH   1  17
TORSDOF 12
ENDMDL
MODEL 6
REMARK VINA RESULT:      -5.6     10.618     13.008
REMARK  12 active torsions:
REMARK  status: ('A' for Active; 'I' for Inactive)
REMARK    1  A    between atoms: N_1  and  C_2 
REMARK    2  A    between atoms: C_2  and  C_3 
REMARK    3  A    between atoms: C_3  and  O_4 
REMARK    4  A    between atoms: O_4  and  C_5 
REMARK    5  A    between atoms: C_5  and  C_6 
REMARK    6  A    between atoms: C_6  and  O_7 
REMARK    7  A    between atoms: O_7  and  C_8 
REMARK    8  A    between atoms: C_8  and  C_9 
REMARK    9  A    between atoms: C_9  and  N_10 
REMARK       I    between atoms: N_10  and  C_11 
REMARK   10  A    between atoms: C_11  and  C_13 
REMARK   11  A    between atoms: C_16  and  S_19 
REMARK   12  A    between atoms: S_19  and  N_20 
ROOT
HETATM    1  N   UNK N   1      34.265  15.787  10.245  0.00  0.00    -0.355 N 
HETATM    2  C   UNK N   1      34.511  16.863   9.466  0.00  0.00     0.251 C 
HETATM    3  O   UNK N   1      35.380  17.670   9.786  0.00  0.00    -0.268 OA
HETATM    4  H   UNK N   1      33.585  15.134   9.958  0.00  0.00     0.162 HD
ENDROOT
BRANCH   2   5
HETATM    5  C   UNK N   1      33.647  17.144   8.306  0.00  0.00     0.032 A 
HETATM    6  C   UNK N   1      32.270  16.899   8.384  0.00  0.00     0.018 A 
HETATM    7  C   UNK N   1      31.481  16.955   7.235  0.00  0.00     0.026 A 
HETATM    8  C   UNK N   1      32.058  17.287   6.007  0.00  0.00     0.079 A 
HETATM    9  C   UNK N   1      33.422  17.589   5.932  0.00  0.00     0.026 A 
HETATM   10  C   UNK N   1      34.215  17.517   7.077  0.00  0.00     0.018 A 
BRANCH   8  11
HETATM   11  S   UNK N   1      31.136  17.018   4.506  0.00  0.00     0.256 S 
HETATM   12  O   UNK N   1      31.597  15.557   4.468  0.00  0.00    -0.201 OA
HETATM   13  O   UNK N   1      29.658  16.604   4.559  0.00  0.00    -0.201 OA
BRANCH  11  14
HETATM   14  N   UNK N   1      31.659  17.285   2.843  0.00  0.00    -0.324 N 
HETATM   15  H   UNK N   1      32.387  17.971   2.639  0.00  0.00     0.169 HD
HETATM   16  H   UNK N   1      31.234  16.753   2.083  0.00  0.00     0.169 HD
ENDBRANCH  11  14
ENDBRANCH   8  11
ENDBRANCH   2   5
BRANCH   1  17
HETATM   17  C   UNK N   1      34.968  15.565  11.483  0.00  0.00     0.149 C 
BRANCH  17  18
HETATM   18  C   UNK N   1      35.004  14.090  11.810  0.00  0.00     0.187 C 
BRANCH  18  19
HETATM   19  O   UNK N   1      34.831  13.899  13.183  0.00  0.00    -0.387 OA
BRANCH  19  20
HETATM   20  C   UNK N   1      35.871  13.048  13.571  0.00  0.00     0.193 C 
BRANCH  20  21
HETATM   21  C   UNK N   1      35.452  12.279  14.814  0.00  0.00     0.193 C 
BRANCH  21  22
HETATM   22  O   UNK N   1      34.540  13.017  15.583  0.00  0.00    -0.387 OA
BRANCH  22  23
HETATM   23  C   UNK N   1      34.790  12.704  16.929  0.00  0.00     0.186 C 
BRANCH  23  24
HETATM   24  C   UNK N   1      35.276  13.918  17.702  0.00  0.00     0.137 C 
BRANCH  24  25
HETATM   25  N   UNK N   1      35.254  13.633  19.126  0.00  0.00    -0.428 N 
HETATM   26  H   UNK N   1      34.396  13.653  19.677  0.00  0.00     0.149 HD
HETATM   27  H   UNK N   1      36.131  13.402  19.594  0.00  0.00     0.149 HD
ENDBRANCH  24  25
ENDBRANCH  23  24
ENDBRANCH  22  23
ENDBRANCH  21  22
ENDBRANCH  20  21
ENDBRANCH  19  20
ENDBRANCH  18  19
ENDBRANCH  17  18
ENDBRANCH   1  17
TORSDOF 12
ENDMDL
MODEL 7
REMARK VINA RESULT:      -5.5     10.371     12.587
REMARK  12 active torsions:
REMARK  status: ('A' for Active; 'I' for Inactive)
REMARK    1  A    between atoms: N_1  and  C_2 
REMARK    2  A    between atoms: C_2  and  C_3 
REMARK    3  A    between atoms: C_3  and  O_4 
REMARK    4  A    between atoms: O_4  and  C_5 
REMARK    5  A    between atoms: C_5  and  C_6 
REMARK    6  A    between atoms: C_6  and  O_7 
REMARK    7  A    between atoms: O_7  and  C_8 
REMARK    8  A    between atoms: C_8  and  C_9 
REMARK    9  A    between atoms: C_9  and  N_10 
REMARK       I    between atoms: N_10  and  C_11 
REMARK   10  A    between atoms: C_11  and  C_13 
REMARK   11  A    between atoms: C_16  and  S_19 
REMARK   12  A    between atoms: S_19  and  N_20 
ROOT
HETATM    1  N   UNK N   1      34.390  16.560   9.687  0.00  0.00    -0.355 N 
HETATM    2  C   UNK N   1      34.190  17.460   8.699  0.00  0.00     0.251 C 
HETATM    3  O   UNK N   1      34.806  18.523   8.700  0.00  0.00    -0.268 OA
HETATM    4  H   UNK N   1      33.909  15.701   9.656  0.00  0.00     0.162 HD
ENDROOT
BRANCH   2   5
HETATM    5  C   UNK N   1      33.133  17.230   7.698  0.00  0.00     0.032 A 
HETATM    6  C   UNK N   1      33.428  17.333   6.333  0.00  0.00     0.018 A 
HETATM    7  C   UNK N   1      32.401  17.333   5.390  0.00  0.00     0.026 A 
HETATM    8  C   UNK N   1      31.073  17.198   5.805  0.00  0.00     0.079 A 
HETATM    9  C   UNK N   1      30.776  17.038   7.162  0.00  0.00     0.026 A 
HETATM   10  C   UNK N   1      31.801  17.055   8.107  0.00  0.00     0.018 A 
BRANCH   8  11
HETATM   11  S   UNK N   1      29.758  17.547   4.654  0.00  0.00     0.256 S 
HETATM   12  O   UNK N   1      28.924  16.402   5.238  0.00  0.00    -0.201 OA
HETATM   13  O   UNK N   1      28.673  18.580   4.994  0.00  0.00    -0.201 OA
BRANCH  11  14
HETATM   14  N   UNK N   1      29.555  16.933   3.013  0.00  0.00    -0.324 N 
HETATM   15  H   UNK N   1      28.830  16.244   2.809  0.00  0.00     0.169 HD
HETATM   16  H   UNK N   1      30.164  17.267   2.265  0.00  0.00     0.169 HD
ENDBRANCH  11  14
ENDBRANCH   8  11
ENDBRANCH   2   5
BRANCH   1  17
HETATM   17  C   UNK N   1      35.286  16.819  10.786  0.00  0.00     0.149 C 
BRANCH  17  18
HETATM   18  C   UNK N   1      35.655  15.528  11.479  0.00  0.00     0.187 C 
BRANCH  18  19
HETATM   19  O   UNK N   1      34.507  14.769  11.719  0.00  0.00    -0.387 OA
BRANCH  19  20
HETATM   20  C   UNK N   1      34.967  13.572  12.277  0.00  0.00     0.193 C 
BRANCH  20  21
HETATM   21  C   UNK N   1      36.028  13.881  13.322  0.00  0.00     0.193 C 
BRANCH  21  22
HETATM   22  O   UNK N   1      35.724  13.273  14.548  0.00  0.00    -0.387 OA
BRANCH  22  23
HETATM   23  C   UNK N   1      36.667  13.735  15.480  0.00  0.00     0.186 C 
BRANCH  23  24
HETATM   24  C   UNK N   1      37.051  15.181  15.215  0.00  0.00     0.137 C 
BRANCH  24  25
HETATM   25  N   UNK N   1      37.482  15.808  16.452  0.00  0.00    -0.428 N 
HETATM   26  H   UNK N   1      38.044  15.318  17.149  0.00  0.00     0.149 HD
HETATM   27  H   UNK N   1      37.215  16.777  16.632  0.00  0.00     0.149 HD
ENDBRANCH  24  25
ENDBRANCH  23  24
ENDBRANCH  22  23
ENDBRANCH  21  22
ENDBRANCH  20  21
ENDBRANCH  19  20
ENDBRANCH  18  19
ENDBRANCH  17  18
ENDBRANCH   1  17
TORSDOF 12
ENDMDL
MODEL 8
REMARK VINA RESULT:      -5.4     14.382     18.823
REMARK  12 active torsions:
REMARK  status: ('A' for Active; 'I' for Inactive)
REMARK    1  A    between atoms: N_1  and  C_2 
REMARK    2  A    between atoms: C_2  and  C_3 
REMARK    3  A    between atoms: C_3  and  O_4 
REMARK    4  A    between atoms: O_4  and  C_5 
REMARK    5  A    between atoms: C_5  and  C_6 
REMARK    6  A    between atoms: C_6  and  O_7 
REMARK    7  A    between atoms: O_7  and  C_8 
REMARK    8  A    between atoms: C_8  and  C_9 
REMARK    9  A    between atoms: C_9  and  N_10 
REMARK       I    between atoms: N_10  and  C_11 
REMARK   10  A    between atoms: C_11  and  C_13 
REMARK   11  A    between atoms: C_16  and  S_19 
REMARK   12  A    between atoms: S_19  and  N_20 
ROOT
HETATM    1  N   UNK N   1      35.658  12.885  14.196  0.00  0.00    -0.355 N 
HETATM    2  C   UNK N   1      36.017  13.380  15.401  0.00  0.00     0.251 C 
HETATM    3  O   UNK N   1      36.771  14.348  15.470  0.00  0.00    -0.268 OA
HETATM    4  H   UNK N   1      35.030  12.127  14.158  0.00  0.00     0.162 HD
ENDROOT
BRANCH   2   5
HETATM    5  C   UNK N   1      35.619  12.677  16.633  0.00  0.00     0.032 A 
HETATM    6  C   UNK N   1      35.273  13.408  17.776  0.00  0.00     0.018 A 
HETATM    7  C   UNK N   1      35.106  12.762  19.000  0.00  0.00     0.026 A 
HETATM    8  C   UNK N   1      35.254  11.374  19.083  0.00  0.00     0.079 A 
HETATM    9  C   UNK N   1      35.544  10.631  17.934  0.00  0.00     0.026 A 
HETATM   10  C   UNK N   1      35.728  11.278  16.713  0.00  0.00     0.018 A 
BRANCH   8  11
HETATM   11  S   UNK N   1      35.388  10.603  20.684  0.00  0.00     0.256 S 
HETATM   12  O   UNK N   1      35.012   9.248  20.078  0.00  0.00    -0.201 OA
HETATM   13  O   UNK N   1      36.737  10.065  21.183  0.00  0.00    -0.201 OA
BRANCH  11  14
HETATM   14  N   UNK N   1      34.147  10.455  21.929  0.00  0.00    -0.324 N 
HETATM   15  H   UNK N   1      33.165  10.601  21.693  0.00  0.00     0.169 HD
HETATM   16  H   UNK N   1      34.411  10.222  22.886  0.00  0.00     0.169 HD
ENDBRANCH  11  14
ENDBRANCH   8  11
ENDBRANCH   2   5
BRANCH   1  17
HETATM   17  C   UNK N   1      36.166  13.433  12.964  0.00  0.00     0.149 C 
BRANCH  17  18
HETATM   18  C   UNK N   1      35.082  13.454  11.911  0.00  0.00     0.187 C 
BRANCH  18  19
HETATM   19  O   UNK N   1      34.506  14.725  11.843  0.00  0.00    -0.387 OA
BRANCH  19  20
HETATM   20  C   UNK N   1      35.583  15.615  11.782  0.00  0.00     0.193 C 
BRANCH  20  21
HETATM   21  C   UNK N   1      35.807  16.031  10.337  0.00  0.00     0.193 C 
BRANCH  21  22
HETATM   22  O   UNK N   1      35.354  17.339  10.111  0.00  0.00    -0.387 OA
BRANCH  22  23
HETATM   23  C   UNK N   1      34.289  17.253   9.199  0.00  0.00     0.186 C 
BRANCH  23  24
HETATM   24  C   UNK N   1      34.468  18.219   8.040  0.00  0.00     0.137 C 
BRANCH  24  25
HETATM   25  N   UNK N   1      33.902  17.645   6.832  0.00  0.00    -0.428 N 
HETATM   26  H   UNK N   1      33.795  18.178   5.969  0.00  0.00     0.149 HD
HETATM   27  H   UNK N   1      33.600  16.670   6.846  0.00  0.00     0.149 HD
ENDBRANCH  24  25
ENDBRANCH  23  24
ENDBRANCH  22  23
ENDBRANCH  21  22
ENDBRANCH  20  21
ENDBRANCH  19  20
ENDBRANCH  18  19
ENDBRANCH  17  18
ENDBRANCH   1  17
TORSDOF 12
ENDMDL
MODEL 9
REMARK VINA RESULT:      -5.3      9.982     12.321
REMARK  12 active torsions:
REMARK  status: ('A' for Active; 'I' for Inactive)
REMARK    1  A    between atoms: N_1  and  C_2 
REMARK    2  A    between atoms: C_2  and  C_3 
REMARK    3  A    between atoms: C_3  and  O_4 
REMARK    4  A    between atoms: O_4  and  C_5 
REMARK    5  A    between atoms: C_5  and  C_6 
REMARK    6  A    between atoms: C_6  and  O_7 
REMARK    7  A    between atoms: O_7  and  C_8 
REMARK    8  A    between atoms: C_8  and  C_9 
REMARK    9  A    between atoms: C_9  and  N_10 
REMARK       I    between atoms: N_10  and  C_11 
REMARK   10  A    between atoms: C_11  and  C_13 
REMARK   11  A    between atoms: C_16  and  S_19 
REMARK   12  A    between atoms: S_19  and  N_20 
ROOT
HETATM    1  N   UNK N   1      34.587  16.532   9.767  0.00  0.00    -0.355 N 
HETATM    2  C   UNK N   1      34.391  17.421   8.767  0.00  0.00     0.251 C 
HETATM    3  O   UNK N   1      35.020  18.476   8.749  0.00  0.00    -0.268 OA
HETATM    4  H   UNK N   1      34.096  15.679   9.751  0.00  0.00     0.162 HD
ENDROOT
BRANCH   2   5
HETATM    5  C   UNK N   1      33.326  17.189   7.776  0.00  0.00     0.032 A 
HETATM    6  C   UNK N   1      33.638  17.141   6.412  0.00  0.00     0.018 A 
HETATM    7  C   UNK N   1      32.620  17.139   5.458  0.00  0.00     0.026 A 
HETATM    8  C   UNK N   1      31.283  17.155   5.864  0.00  0.00     0.079 A 
HETATM    9  C   UNK N   1      30.964  17.146   7.226  0.00  0.00     0.026 A 
HETATM   10  C   UNK N   1      31.981  17.164   8.180  0.00  0.00     0.018 A 
BRANCH   8  11
HETATM   11  S   UNK N   1      30.010  17.505   4.667  0.00  0.00     0.256 S 
HETATM   12  O   UNK N   1      29.266  16.226   5.064  0.00  0.00    -0.201 OA
HETATM   13  O   UNK N   1      28.805  18.382   5.040  0.00  0.00    -0.201 OA
BRANCH  11  14
HETATM   14  N   UNK N   1      29.970  17.067   2.959  0.00  0.00    -0.324 N 
HETATM   15  H   UNK N   1      29.314  17.528   2.328  0.00  0.00     0.169 HD
HETATM   16  H   UNK N   1      30.604  16.352   2.602  0.00  0.00     0.169 HD
ENDBRANCH  11  14
ENDBRANCH   8  11
ENDBRANCH   2   5
BRANCH   1  17
HETATM   17  C   UNK N   1      35.493  16.797  10.856  0.00  0.00     0.149 C 
BRANCH  17  18
HETATM   18  C   UNK N   1      35.531  15.622  11.806  0.00  0.00     0.187 C 
BRANCH  18  19
HETATM   19  O   UNK N   1      35.918  14.467  11.122  0.00  0.00    -0.387 OA
BRANCH  19  20
HETATM   20  C   UNK N   1      35.349  13.408  11.837  0.00  0.00     0.193 C 
BRANCH  20  21
HETATM   21  C   UNK N   1      35.559  13.638  13.325  0.00  0.00     0.193 C 
BRANCH  21  22
HETATM   22  O   UNK N   1      34.521  13.069  14.077  0.00  0.00    -0.387 OA
BRANCH  22  23
HETATM   23  C   UNK N   1      34.919  11.761  14.402  0.00  0.00     0.186 C 
BRANCH  23  24
HETATM   24  C   UNK N   1      33.768  10.779  14.264  0.00  0.00     0.137 C 
BRANCH  24  25
HETATM   25  N   UNK N   1      33.624  10.385  12.874  0.00  0.00    -0.428 N 
HETATM   26  H   UNK N   1      33.333   9.448  12.596  0.00  0.00     0.149 HD
HETATM   27  H   UNK N   1      33.822  11.072  12.145  0.00  0.00     0.149 HD
ENDBRANCH  24  25
ENDBRANCH  23  24
ENDBRANCH  22  23
ENDBRANCH  21  22
ENDBRANCH  20  21
ENDBRANCH  19  20
ENDBRANCH  18  19
ENDBRANCH  17  18
ENDBRANCH   1  17
TORSDOF 12
ENDMDL
