MODEL 1
REMARK VINA RESULT:      -8.2      0.000      0.000
REMARK  10 active torsions:
REMARK  status: ('A' for Active; 'I' for Inactive)
REMARK    1  A    between atoms: C_8  and  C_4 
REMARK    2  A    between atoms: O_32  and  C_4 
REMARK    3  A    between atoms: C_7  and  C_14 
REMARK    4  A    between atoms: C_10  and  O_27 
REMARK    5  A    between atoms: C_11  and  O_28 
REMARK    6  A    between atoms: N_16  and  C_12 
REMARK    7  A    between atoms: O_29  and  C_14 
REMARK    8  A    between atoms: C_15  and  N_26 
REMARK    9  A    between atoms: N_24  and  S_34 
REMARK   10  A    between atoms: S_34  and  O_32 
ROOT
HETATM    1  C   UNK N   1      24.315  19.692   4.130  0.00  0.00     0.180 C 
HETATM    2  C   UNK N   1      24.054  20.791   3.104  0.00  0.00     0.182 C 
HETATM    3  C   UNK N   1      22.641  20.447   2.641  0.00  0.00     0.198 C 
HETATM    4  C   UNK N   1      22.268  19.270   3.543  0.00  0.00     0.262 C 
HETATM    5  O   UNK N   1      23.495  18.602   3.753  0.00  0.00    -0.353 OA
ENDROOT
BRANCH   1   6
HETATM    6  C   UNK N   1      25.783  19.340   4.297  0.00  0.00     0.226 C 
BRANCH   6   7
HETATM    7  O   UNK N   1      26.162  19.440   5.653  0.00  0.00    -0.257 OA
BRANCH   7   8
HETATM    8  S   UNK N   1      27.698  20.254   5.945  0.00  0.00     0.363 S 
HETATM    9  O   UNK N   1      28.257  19.350   4.828  0.00  0.00    -0.175 OA
HETATM   10  O   UNK N   1      26.945  21.509   5.480  0.00  0.00    -0.175 OA
BRANCH   8  11
HETATM   11  N   UNK N   1      27.291  19.544   7.497  0.00  0.00    -0.243 N 
HETATM   12  C   UNK N   1      28.019  18.773   8.236  0.00  0.00     0.149 C 
ATOM     13  HN  UNK N   1      26.364  19.768   7.861  1.00  0.00     0.182 HD
BRANCH  12  14
HETATM   14  C   UNK N   1      29.465  18.383   7.958  0.00  0.00     0.152 C 
HETATM   15  C   UNK N   1      30.338  17.970   9.120  0.00  0.00     0.035 C 
HETATM   16  C   UNK N   1      31.435  17.165   8.473  0.00  0.00     0.022 C 
HETATM   17  C   UNK N   1      30.826  16.674   7.174  0.00  0.00     0.114 C 
HETATM   18  N   UNK N   1      29.483  17.233   7.065  0.00  0.00    -0.410 N 
HETATM   19  H   UNK N   1      28.717  16.891   6.485  0.00  0.00     0.154 HD
ENDBRANCH  12  14
BRANCH  12  20
HETATM   20  O   UNK N   1      27.442  18.232   9.327  0.00  0.00    -0.347 OA
HETATM   21  H   UNK N   1      27.591  18.518  10.206  0.00  0.00     0.219 HD
ENDBRANCH  12  20
ENDBRANCH   8  11
ENDBRANCH   7   8
ENDBRANCH   6   7
ENDBRANCH   1   6
BRANCH   2  22
HETATM   22  O   UNK N   1      24.931  20.681   2.017  0.00  0.00    -0.390 OA
HETATM   23  H   UNK N   1      25.325  20.325   1.205  0.00  0.00     0.210 HD
ENDBRANCH   2  22
BRANCH   3  24
HETATM   24  O   UNK N   1      21.762  21.523   2.776  0.00  0.00    -0.388 OA
HETATM   25  H   UNK N   1      20.850  21.711   2.505  0.00  0.00     0.210 HD
ENDBRANCH   3  24
BRANCH   4  26
HETATM   26  N   UNK N   1      21.217  18.385   3.024  0.00  0.00    -0.297 N 
HETATM   27  C   UNK N   1      20.063  18.797   2.432  0.00  0.00     0.188 A 
HETATM   28  N   UNK N   1      19.368  17.749   1.907  0.00  0.00    -0.346 N 
HETATM   29  C   UNK N   1      20.138  16.676   2.162  0.00  0.00     0.122 A 
ATOM     30  HN  UNK N   1      18.467  17.773   1.430  1.00  0.00     0.167 HD
HETATM   31  C   UNK N   1      19.965  15.351   1.797  0.00  0.00     0.131 A 
HETATM   32  C   UNK N   1      21.242  17.054   2.837  0.00  0.00     0.142 A 
HETATM   33  N   UNK N   1      20.938  14.457   2.144  0.00  0.00    -0.337 N 
HETATM   34  C   UNK N   1      22.054  14.862   2.834  0.00  0.00     0.183 A 
ATOM     35  HN  UNK N   1      20.834  13.475   1.889  1.00  0.00     0.168 HD
HETATM   36  N   UNK N   1      22.216  16.177   3.178  0.00  0.00    -0.336 N 
ATOM     37  HN  UNK N   1      23.049  16.488   3.678  1.00  0.00     0.168 HD
BRANCH  31  38
HETATM   38  N   UNK N   1      18.840  14.935   1.056  0.00  0.00    -0.383 N 
HETATM   39  H   UNK N   1      18.212  15.603   0.697  0.00  0.00     0.157 HD
HETATM   40  H   UNK N   1      18.682  13.977   0.898  0.00  0.00     0.157 HD
ENDBRANCH  31  38
ENDBRANCH   4  26
TORSDOF 10
ENDMDL
MODEL 2
REMARK VINA RESULT:      -7.9      2.618      3.960
REMARK  10 active torsions:
REMARK  status: ('A' for Active; 'I' for Inactive)
REMARK    1  A    between atoms: C_8  and  C_4 
REMARK    2  A    between atoms: O_32  and  C_4 
REMARK    3  A    between atoms: C_7  and  C_14 
REMARK    4  A    between atoms: C_10  and  O_27 
REMARK    5  A    between atoms: C_11  and  O_28 
REMARK    6  A    between atoms: N_16  and  C_12 
REMARK    7  A    between atoms: O_29  and  C_14 
REMARK    8  A    between atoms: C_15  and  N_26 
REMARK    9  A    between atoms: N_24  and  S_34 
REMARK   10  A    between atoms: S_34  and  O_32 
ROOT
HETATM    1  C   UNK N   1      26.521  20.344   5.176  0.00  0.00     0.180 C 
HETATM    2  C   UNK N   1      26.898  20.402   3.698  0.00  0.00     0.182 C 
HETATM    3  C   UNK N   1      25.584  20.004   3.032  0.00  0.00     0.198 C 
HETATM    4  C   UNK N   1      24.629  19.879   4.219  0.00  0.00     0.262 C 
HETATM    5  O   UNK N   1      25.452  19.421   5.271  0.00  0.00    -0.353 OA
ENDROOT
BRANCH   1   6
HETATM    6  C   UNK N   1      27.688  20.044   6.099  0.00  0.00     0.226 C 
BRANCH   6   7
HETATM    7  O   UNK N   1      27.378  18.959   6.948  0.00  0.00    -0.257 OA
BRANCH   7   8
HETATM    8  S   UNK N   1      28.634  17.729   7.082  0.00  0.00     0.363 S 
HETATM    9  O   UNK N   1      29.022  18.134   5.646  0.00  0.00    -0.175 OA
HETATM   10  O   UNK N   1      29.177  18.626   8.204  0.00  0.00    -0.175 OA
BRANCH   8  11
HETATM   11  N   UNK N   1      27.142  16.845   7.348  0.00  0.00    -0.243 N 
HETATM   12  C   UNK N   1      26.510  16.080   6.518  0.00  0.00     0.149 C 
ATOM     13  HN  UNK N   1      26.720  16.949   8.271  1.00  0.00     0.182 HD
BRANCH  12  14
HETATM   14  C   UNK N   1      26.990  15.692   5.126  0.00  0.00     0.152 C 
HETATM   15  C   UNK N   1      26.443  14.431   4.499  0.00  0.00     0.035 C 
HETATM   16  C   UNK N   1      26.667  14.640   3.024  0.00  0.00     0.022 C 
HETATM   17  C   UNK N   1      26.740  16.146   2.864  0.00  0.00     0.114 C 
HETATM   18  N   UNK N   1      26.632  16.747   4.189  0.00  0.00    -0.410 N 
HETATM   19  H   UNK N   1      26.364  17.705   4.413  0.00  0.00     0.154 HD
ENDBRANCH  12  14
BRANCH  12  20
HETATM   20  O   UNK N   1      25.303  15.616   6.898  0.00  0.00    -0.347 OA
HETATM   21  H   UNK N   1      24.963  15.666   7.769  0.00  0.00     0.219 HD
ENDBRANCH  12  20
ENDBRANCH   8  11
ENDBRANCH   7   8
ENDBRANCH   6   7
ENDBRANCH   1   6
BRANCH   2  22
HETATM   22  O   UNK N   1      27.875  19.446   3.392  0.00  0.00    -0.390 OA
HETATM   23  H   UNK N   1      28.611  18.830   3.529  0.00  0.00     0.210 HD
ENDBRANCH   2  22
BRANCH   3  24
HETATM   24  O   UNK N   1      25.155  20.949   2.098  0.00  0.00    -0.388 OA
HETATM   25  H   UNK N   1      24.304  21.199   1.706  0.00  0.00     0.210 HD
ENDBRANCH   3  24
BRANCH   4  26
HETATM   26  N   UNK N   1      23.454  19.023   3.998  0.00  0.00    -0.297 N 
HETATM   27  C   UNK N   1      23.218  17.837   4.620  0.00  0.00     0.188 A 
HETATM   28  N   UNK N   1      21.974  17.361   4.334  0.00  0.00    -0.346 N 
HETATM   29  C   UNK N   1      21.431  18.301   3.541  0.00  0.00     0.122 A 
ATOM     30  HN  UNK N   1      21.551  16.488   4.649  1.00  0.00     0.167 HD
HETATM   31  C   UNK N   1      20.157  18.382   3.003  0.00  0.00     0.131 A 
HETATM   32  C   UNK N   1      22.319  19.294   3.332  0.00  0.00     0.142 A 
HETATM   33  N   UNK N   1      19.842  19.487   2.263  0.00  0.00    -0.337 N 
HETATM   34  C   UNK N   1      20.762  20.487   2.060  0.00  0.00     0.183 A 
ATOM     35  HN  UNK N   1      18.912  19.571   1.854  1.00  0.00     0.168 HD
HETATM   36  N   UNK N   1      22.013  20.397   2.608  0.00  0.00    -0.336 N 
ATOM     37  HN  UNK N   1      22.697  21.141   2.474  1.00  0.00     0.168 HD
BRANCH  31  38
HETATM   38  N   UNK N   1      19.196  17.378   3.237  0.00  0.00    -0.383 N 
HETATM   39  H   UNK N   1      18.843  17.237   4.145  0.00  0.00     0.157 HD
HETATM   40  H   UNK N   1      18.878  16.818   2.493  0.00  0.00     0.157 HD
ENDBRANCH  31  38
ENDBRANCH   4  26
TORSDOF 10
ENDMDL
MODEL 3
REMARK VINA RESULT:      -7.8      7.736     11.389
REMARK  10 active torsions:
REMARK  status: ('A' for Active; 'I' for Inactive)
REMARK    1  A    between atoms: C_8  and  C_4 
REMARK    2  A    between atoms: O_32  and  C_4 
REMARK    3  A    between atoms: C_7  and  C_14 
REMARK    4  A    between atoms: C_10  and  O_27 
REMARK    5  A    between atoms: C_11  and  O_28 
REMARK    6  A    between atoms: N_16  and  C_12 
REMARK    7  A    between atoms: O_29  and  C_14 
REMARK    8  A    between atoms: C_15  and  N_26 
REMARK    9  A    between atoms: N_24  and  S_34 
REMARK   10  A    between atoms: S_34  and  O_32 
ROOT
HETATM    1  C   UNK N   1      34.278  16.198   9.548  0.00  0.00     0.180 C 
HETATM    2  C   UNK N   1      35.013  16.058   8.218  0.00  0.00     0.182 C 
HETATM    3  C   UNK N   1      34.005  16.668   7.247  0.00  0.00     0.198 C 
HETATM    4  C   UNK N   1      32.895  17.156   8.176  0.00  0.00     0.262 C 
HETATM    5  O   UNK N   1      32.898  16.218   9.232  0.00  0.00    -0.353 OA
ENDROOT
BRANCH   1   6
HETATM    6  C   UNK N   1      34.666  15.154  10.579  0.00  0.00     0.226 C 
BRANCH   6   7
HETATM    7  O   UNK N   1      36.062  14.944  10.565  0.00  0.00    -0.257 OA
BRANCH   7   8
HETATM    8  S   UNK N   1      36.568  13.258  10.670  0.00  0.00     0.363 S 
HETATM    9  O   UNK N   1      35.111  12.918  10.300  0.00  0.00    -0.175 OA
HETATM   10  O   UNK N   1      37.492  13.623   9.498  0.00  0.00    -0.175 OA
BRANCH   8  11
HETATM   11  N   UNK N   1      36.918  13.908  12.262  0.00  0.00    -0.243 N 
HETATM   12  C   UNK N   1      36.622  13.398  13.413  0.00  0.00     0.149 C 
ATOM     13  HN  UNK N   1      37.416  14.798  12.281  1.00  0.00     0.182 HD
BRANCH  12  14
HETATM   14  C   UNK N   1      35.975  12.039  13.643  0.00  0.00     0.152 C 
HETATM   15  C   UNK N   1      35.954  11.476  15.045  0.00  0.00     0.035 C 
HETATM   16  C   UNK N   1      34.827  10.478  15.011  0.00  0.00     0.022 C 
HETATM   17  C   UNK N   1      33.939  10.949  13.876  0.00  0.00     0.114 C 
HETATM   18  N   UNK N   1      34.572  12.110  13.260  0.00  0.00    -0.410 N 
HETATM   19  H   UNK N   1      34.126  12.822  12.682  0.00  0.00     0.154 HD
ENDBRANCH  12  14
BRANCH  12  20
HETATM   20  O   UNK N   1      36.868  14.148  14.505  0.00  0.00    -0.347 OA
HETATM   21  H   UNK N   1      37.661  14.121  15.003  0.00  0.00     0.219 HD
ENDBRANCH  12  20
ENDBRANCH   8  11
ENDBRANCH   7   8
ENDBRANCH   6   7
ENDBRANCH   1   6
BRANCH   2  22
HETATM   22  O   UNK N   1      35.206  14.710   7.890  0.00  0.00    -0.390 OA
HETATM   23  H   UNK N   1      35.626  13.837   7.868  0.00  0.00     0.210 HD
ENDBRANCH   2  22
BRANCH   3  24
HETATM   24  O   UNK N   1      34.559  17.701   6.487  0.00  0.00    -0.388 OA
HETATM   25  H   UNK N   1      34.240  18.541   6.124  0.00  0.00     0.210 HD
ENDBRANCH   3  24
BRANCH   4  26
HETATM   26  N   UNK N   1      31.572  17.312   7.554  0.00  0.00    -0.297 N 
HETATM   27  C   UNK N   1      31.296  17.119   6.236  0.00  0.00     0.188 A 
HETATM   28  N   UNK N   1      29.957  17.174   5.992  0.00  0.00    -0.346 N 
HETATM   29  C   UNK N   1      29.405  17.376   7.202  0.00  0.00     0.122 A 
ATOM     30  HN  UNK N   1      29.480  17.084   5.095  1.00  0.00     0.167 HD
HETATM   31  C   UNK N   1      28.071  17.445   7.570  0.00  0.00     0.131 A 
HETATM   32  C   UNK N   1      30.372  17.466   8.138  0.00  0.00     0.142 A 
HETATM   33  N   UNK N   1      27.779  17.608   8.894  0.00  0.00    -0.337 N 
HETATM   34  C   UNK N   1      28.778  17.700   9.832  0.00  0.00     0.183 A 
ATOM     35  HN  UNK N   1      26.805  17.664   9.192  1.00  0.00     0.168 HD
HETATM   36  N   UNK N   1      30.091  17.619   9.453  0.00  0.00    -0.336 N 
ATOM     37  HN  UNK N   1      30.839  17.672  10.145  1.00  0.00     0.168 HD
BRANCH  31  38
HETATM   38  N   UNK N   1      27.040  17.314   6.618  0.00  0.00    -0.383 N 
HETATM   39  H   UNK N   1      26.316  16.663   6.763  0.00  0.00     0.157 HD
HETATM   40  H   UNK N   1      27.044  17.874   5.809  0.00  0.00     0.157 HD
ENDBRANCH  31  38
ENDBRANCH   4  26
TORSDOF 10
ENDMDL
MODEL 4
REMARK VINA RESULT:      -7.7      7.833     14.050
REMARK  10 active torsions:
REMARK  status: ('A' for Active; 'I' for Inactive)
REMARK    1  A    between atoms: C_8  and  C_4 
REMARK    2  A    between atoms: O_32  and  C_4 
REMARK    3  A    between atoms: C_7  and  C_14 
REMARK    4  A    between atoms: C_10  and  O_27 
REMARK    5  A    between atoms: C_11  and  O_28 
REMARK    6  A    between atoms: N_16  and  C_12 
REMARK    7  A    between atoms: O_29  and  C_14 
REMARK    8  A    between atoms: C_15  and  N_26 
REMARK    9  A    between atoms: N_24  and  S_34 
REMARK   10  A    between atoms: S_34  and  O_32 
ROOT
HETATM    1  C   UNK N   1      34.430  14.908   9.879  0.00  0.00     0.180 C 
HETATM    2  C   UNK N   1      35.792  15.591   9.797  0.00  0.00     0.182 C 
HETATM    3  C   UNK N   1      36.520  14.966  10.984  0.00  0.00     0.198 C 
HETATM    4  C   UNK N   1      35.505  13.947  11.502  0.00  0.00     0.262 C 
HETATM    5  O   UNK N   1      34.254  14.548  11.237  0.00  0.00    -0.353 OA
ENDROOT
BRANCH   1   6
HETATM    6  C   UNK N   1      33.293  15.729   9.298  0.00  0.00     0.226 C 
BRANCH   6   7
HETATM    7  O   UNK N   1      33.555  16.046   7.948  0.00  0.00    -0.257 OA
BRANCH   7   8
HETATM    8  S   UNK N   1      33.239  17.721   7.496  0.00  0.00     0.363 S 
HETATM    9  O   UNK N   1      33.069  17.976   9.007  0.00  0.00    -0.175 OA
HETATM   10  O   UNK N   1      34.683  17.692   6.976  0.00  0.00    -0.175 OA
BRANCH   8  11
HETATM   11  N   UNK N   1      32.009  16.809   6.639  0.00  0.00    -0.243 N 
HETATM   12  C   UNK N   1      30.734  16.788   6.858  0.00  0.00     0.149 C 
ATOM     13  HN  UNK N   1      32.340  16.223   5.873  1.00  0.00     0.182 HD
BRANCH  12  14
HETATM   14  C   UNK N   1      29.993  17.649   7.873  0.00  0.00     0.152 C 
HETATM   15  C   UNK N   1      28.496  17.797   7.738  0.00  0.00     0.035 C 
HETATM   16  C   UNK N   1      28.052  18.203   9.118  0.00  0.00     0.022 C 
HETATM   17  C   UNK N   1      29.146  17.689  10.033  0.00  0.00     0.114 C 
HETATM   18  N   UNK N   1      30.183  17.087   9.202  0.00  0.00    -0.410 N 
HETATM   19  H   UNK N   1      30.894  16.414   9.491  0.00  0.00     0.154 HD
ENDBRANCH  12  14
BRANCH  12  20
HETATM   20  O   UNK N   1      29.999  15.900   6.161  0.00  0.00    -0.347 OA
HETATM   21  H   UNK N   1      29.584  16.079   5.340  0.00  0.00     0.219 HD
ENDBRANCH  12  20
ENDBRANCH   8  11
ENDBRANCH   7   8
ENDBRANCH   6   7
ENDBRANCH   1   6
BRANCH   2  22
HETATM   22  O   UNK N   1      35.675  16.971  10.006  0.00  0.00    -0.390 OA
HETATM   23  H   UNK N   1      35.250  17.830  10.155  0.00  0.00     0.210 HD
ENDBRANCH   2  22
BRANCH   3  24
HETATM   24  O   UNK N   1      37.729  14.374  10.614  0.00  0.00    -0.388 OA
HETATM   25  H   UNK N   1      38.038  13.468  10.460  0.00  0.00     0.210 HD
ENDBRANCH   3  24
BRANCH   4  26
HETATM   26  N   UNK N   1      35.663  13.557  12.911  0.00  0.00    -0.297 N 
HETATM   27  C   UNK N   1      36.275  14.304  13.869  0.00  0.00     0.188 A 
HETATM   28  N   UNK N   1      36.118  13.755  15.106  0.00  0.00    -0.346 N 
HETATM   29  C   UNK N   1      35.365  12.663  14.894  0.00  0.00     0.122 A 
ATOM     30  HN  UNK N   1      36.490  14.097  15.993  1.00  0.00     0.167 HD
HETATM   31  C   UNK N   1      34.837  11.757  15.801  0.00  0.00     0.131 A 
HETATM   32  C   UNK N   1      35.097  12.538  13.578  0.00  0.00     0.142 A 
HETATM   33  N   UNK N   1      34.051  10.750  15.317  0.00  0.00    -0.337 N 
HETATM   34  C   UNK N   1      33.792  10.640  13.973  0.00  0.00     0.183 A 
ATOM     35  HN  UNK N   1      33.651  10.070  15.963  1.00  0.00     0.168 HD
HETATM   36  N   UNK N   1      34.312  11.548  13.092  0.00  0.00    -0.336 N 
ATOM     37  HN  UNK N   1      34.113  11.481  12.093  1.00  0.00     0.168 HD
BRANCH  31  38
HETATM   38  N   UNK N   1      35.067  11.887  17.185  0.00  0.00    -0.383 N 
HETATM   39  H   UNK N   1      35.938  12.210  17.512  0.00  0.00     0.157 HD
HETATM   40  H   UNK N   1      34.357  11.653  17.826  0.00  0.00     0.157 HD
ENDBRANCH  31  38
ENDBRANCH   4  26
TORSDOF 10
ENDMDL
MODEL 5
REMARK VINA RESULT:      -7.7      5.044      7.898
REMARK  10 active torsions:
REMARK  status: ('A' for Active; 'I' for Inactive)
REMARK    1  A    between atoms: C_8  and  C_4 
REMARK    2  A    between atoms: O_32  and  C_4 
REMARK    3  A    between atoms: C_7  and  C_14 
REMARK    4  A    between atoms: C_10  and  O_27 
REMARK    5  A    between atoms: C_11  and  O_28 
REMARK    6  A    between atoms: N_16  and  C_12 
REMARK    7  A    between atoms: O_29  and  C_14 
REMARK    8  A    between atoms: C_15  and  N_26 
REMARK    9  A    between atoms: N_24  and  S_34 
REMARK   10  A    between atoms: S_34  and  O_32 
ROOT
HETATM    1  C   UNK N   1      30.543  17.364   8.452  0.00  0.00     0.180 C 
HETATM    2  C   UNK N   1      29.582  17.667   9.599  0.00  0.00     0.182 C 
HETATM    3  C   UNK N   1      28.236  17.654   8.881  0.00  0.00     0.198 C 
HETATM    4  C   UNK N   1      28.616  17.245   7.458  0.00  0.00     0.262 C 
HETATM    5  O   UNK N   1      29.898  17.811   7.274  0.00  0.00    -0.353 OA
ENDROOT
BRANCH   1   6
HETATM    6  C   UNK N   1      31.938  17.928   8.651  0.00  0.00     0.226 C 
BRANCH   6   7
HETATM    7  O   UNK N   1      32.868  17.238   7.844  0.00  0.00    -0.257 OA
BRANCH   7   8
HETATM    8  S   UNK N   1      34.556  17.420   8.320  0.00  0.00     0.363 S 
HETATM    9  O   UNK N   1      34.886  16.686   7.005  0.00  0.00    -0.175 OA
HETATM   10  O   UNK N   1      34.267  18.923   8.198  0.00  0.00    -0.175 OA
BRANCH   8  11
HETATM   11  N   UNK N   1      33.834  16.521   9.643  0.00  0.00    -0.243 N 
HETATM   12  C   UNK N   1      34.369  15.580  10.352  0.00  0.00     0.149 C 
ATOM     13  HN  UNK N   1      32.875  16.770   9.882  1.00  0.00     0.182 HD
BRANCH  12  14
HETATM   14  C   UNK N   1      35.812  15.104  10.253  0.00  0.00     0.152 C 
HETATM   15  C   UNK N   1      36.336  14.159  11.309  0.00  0.00     0.035 C 
HETATM   16  C   UNK N   1      37.511  13.495  10.643  0.00  0.00     0.022 C 
HETATM   17  C   UNK N   1      37.226  13.623   9.159  0.00  0.00     0.114 C 
HETATM   18  N   UNK N   1      35.989  14.382   9.002  0.00  0.00    -0.410 N 
HETATM   19  H   UNK N   1      35.378  14.403   8.186  0.00  0.00     0.154 HD
ENDBRANCH  12  14
BRANCH  12  20
HETATM   20  O   UNK N   1      33.573  14.934  11.226  0.00  0.00    -0.347 OA
HETATM   21  H   UNK N   1      33.335  15.260  12.071  0.00  0.00     0.219 HD
ENDBRANCH  12  20
ENDBRANCH   8  11
ENDBRANCH   7   8
ENDBRANCH   6   7
ENDBRANCH   1   6
BRANCH   2  22
HETATM   22  O   UNK N   1      29.811  18.946  10.120  0.00  0.00    -0.390 OA
HETATM   23  H   UNK N   1      30.212  19.824  10.219  0.00  0.00     0.210 HD
ENDBRANCH   2  22
BRANCH   3  24
HETATM   24  O   UNK N   1      27.330  16.767   9.467  0.00  0.00    -0.388 OA
HETATM   25  H   UNK N   1      26.496  16.352   9.201  0.00  0.00     0.210 HD
ENDBRANCH   3  24
BRANCH   4  26
HETATM   26  N   UNK N   1      27.663  17.638   6.411  0.00  0.00    -0.297 N 
HETATM   27  C   UNK N   1      26.799  16.798   5.780  0.00  0.00     0.188 A 
HETATM   28  N   UNK N   1      25.931  17.481   4.982  0.00  0.00    -0.346 N 
HETATM   29  C   UNK N   1      26.259  18.772   5.160  0.00  0.00     0.122 A 
ATOM     30  HN  UNK N   1      25.198  17.098   4.384  1.00  0.00     0.167 HD
HETATM   31  C   UNK N   1      25.667  19.918   4.652  0.00  0.00     0.131 A 
HETATM   32  C   UNK N   1      27.301  18.868   6.010  0.00  0.00     0.142 A 
HETATM   33  N   UNK N   1      26.173  21.126   5.038  0.00  0.00    -0.337 N 
HETATM   34  C   UNK N   1      27.237  21.203   5.904  0.00  0.00     0.183 A 
ATOM     35  HN  UNK N   1      25.757  21.985   4.678  1.00  0.00     0.168 HD
HETATM   36  N   UNK N   1      27.804  20.062   6.405  0.00  0.00    -0.336 N 
ATOM     37  HN  UNK N   1      28.585  20.110   7.059  1.00  0.00     0.168 HD
BRANCH  31  38
HETATM   38  N   UNK N   1      24.551  19.848   3.794  0.00  0.00    -0.383 N 
HETATM   39  H   UNK N   1      24.191  18.972   3.524  0.00  0.00     0.157 HD
HETATM   40  H   UNK N   1      24.133  20.675   3.463  0.00  0.00     0.157 HD
ENDBRANCH  31  38
ENDBRANCH   4  26
TORSDOF 10
ENDMDL
MODEL 6
REMARK VINA RESULT:      -7.7      2.302      3.654
REMARK  10 active torsions:
REMARK  status: ('A' for Active; 'I' for Inactive)
REMARK    1  A    between atoms: C_8  and  C_4 
REMARK    2  A    between atoms: O_32  and  C_4 
REMARK    3  A    between atoms: C_7  and  C_14 
REMARK    4  A    between atoms: C_10  and  O_27 
REMARK    5  A    between atoms: C_11  and  O_28 
REMARK    6  A    between atoms: N_16  and  C_12 
REMARK    7  A    between atoms: O_29  and  C_14 
REMARK    8  A    between atoms: C_15  and  N_26 
REMARK    9  A    between atoms: N_24  and  S_34 
REMARK   10  A    between atoms: S_34  and  O_32 
ROOT
HETATM    1  C   UNK N   1      26.382  20.195   5.208  0.00  0.00     0.180 C 
HETATM    2  C   UNK N   1      26.860  20.240   3.759  0.00  0.00     0.182 C 
HETATM    3  C   UNK N   1      25.566  19.949   3.002  0.00  0.00     0.198 C 
HETATM    4  C   UNK N   1      24.528  19.885   4.122  0.00  0.00     0.262 C 
HETATM    5  O   UNK N   1      25.243  19.354   5.218  0.00  0.00    -0.353 OA
ENDROOT
BRANCH   1   6
HETATM    6  C   UNK N   1      27.461  19.797   6.200  0.00  0.00     0.226 C 
BRANCH   6   7
HETATM    7  O   UNK N   1      27.368  18.421   6.502  0.00  0.00    -0.257 OA
BRANCH   7   8
HETATM    8  S   UNK N   1      28.746  17.750   7.374  0.00  0.00     0.363 S 
HETATM    9  O   UNK N   1      28.789  19.102   8.113  0.00  0.00    -0.175 OA
HETATM   10  O   UNK N   1      27.723  16.730   7.895  0.00  0.00    -0.175 OA
BRANCH   8  11
HETATM   11  N   UNK N   1      29.233  17.680   5.689  0.00  0.00    -0.243 N 
HETATM   12  C   UNK N   1      30.418  17.484   5.209  0.00  0.00     0.149 C 
ATOM     13  HN  UNK N   1      28.489  17.811   5.004  1.00  0.00     0.182 HD
BRANCH  12  14
HETATM   14  C   UNK N   1      31.664  17.166   6.024  0.00  0.00     0.152 C 
HETATM   15  C   UNK N   1      31.897  15.737   6.459  0.00  0.00     0.035 C 
HETATM   16  C   UNK N   1      33.379  15.682   6.723  0.00  0.00     0.022 C 
HETATM   17  C   UNK N   1      33.953  16.809   5.885  0.00  0.00     0.114 C 
HETATM   18  N   UNK N   1      32.843  17.502   5.241  0.00  0.00    -0.410 N 
HETATM   19  H   UNK N   1      32.885  18.100   4.415  0.00  0.00     0.154 HD
ENDBRANCH  12  14
BRANCH  12  20
HETATM   20  O   UNK N   1      30.577  17.613   3.878  0.00  0.00    -0.347 OA
HETATM   21  H   UNK N   1      30.751  18.421   3.437  0.00  0.00     0.219 HD
ENDBRANCH  12  20
ENDBRANCH   8  11
ENDBRANCH   7   8
ENDBRANCH   6   7
ENDBRANCH   1   6
BRANCH   2  22
HETATM   22  O   UNK N   1      27.780  19.216   3.502  0.00  0.00    -0.390 OA
HETATM   23  H   UNK N   1      28.113  18.347   3.229  0.00  0.00     0.210 HD
ENDBRANCH   2  22
BRANCH   3  24
HETATM   24  O   UNK N   1      25.272  20.934   2.057  0.00  0.00    -0.388 OA
HETATM   25  H   UNK N   1      25.362  21.898   2.011  0.00  0.00     0.210 HD
ENDBRANCH   3  24
BRANCH   4  26
HETATM   26  N   UNK N   1      23.310  19.123   3.812  0.00  0.00    -0.297 N 
HETATM   27  C   UNK N   1      22.947  17.951   4.397  0.00  0.00     0.188 A 
HETATM   28  N   UNK N   1      21.691  17.574   4.024  0.00  0.00    -0.346 N 
HETATM   29  C   UNK N   1      21.273  18.562   3.215  0.00  0.00     0.122 A 
ATOM     30  HN  UNK N   1      21.184  16.731   4.297  1.00  0.00     0.167 HD
HETATM   31  C   UNK N   1      20.045  18.746   2.598  0.00  0.00     0.131 A 
HETATM   32  C   UNK N   1      22.244  19.488   3.081  0.00  0.00     0.142 A 
HETATM   33  N   UNK N   1      19.862  19.880   1.859  0.00  0.00    -0.337 N 
HETATM   34  C   UNK N   1      20.865  20.810   1.733  0.00  0.00     0.183 A 
ATOM     35  HN  UNK N   1      18.969  20.039   1.393  1.00  0.00     0.168 HD
HETATM   36  N   UNK N   1      22.068  20.619   2.358  0.00  0.00    -0.336 N 
ATOM     37  HN  UNK N   1      22.813  21.311   2.281  1.00  0.00     0.168 HD
BRANCH  31  38
HETATM   38  N   UNK N   1      18.999  17.814   2.754  0.00  0.00    -0.383 N 
HETATM   39  H   UNK N   1      18.599  17.386   1.963  0.00  0.00     0.157 HD
HETATM   40  H   UNK N   1      18.669  17.592   3.654  0.00  0.00     0.157 HD
ENDBRANCH  31  38
ENDBRANCH   4  26
TORSDOF 10
ENDMDL
MODEL 7
REMARK VINA RESULT:      -7.6      5.024      6.501
REMARK  10 active torsions:
REMARK  status: ('A' for Active; 'I' for Inactive)
REMARK    1  A    between atoms: C_8  and  C_4 
REMARK    2  A    between atoms: O_32  and  C_4 
REMARK    3  A    between atoms: C_7  and  C_14 
REMARK    4  A    between atoms: C_10  and  O_27 
REMARK    5  A    between atoms: C_11  and  O_28 
REMARK    6  A    between atoms: N_16  and  C_12 
REMARK    7  A    between atoms: O_29  and  C_14 
REMARK    8  A    between atoms: C_15  and  N_26 
REMARK    9  A    between atoms: N_24  and  S_34 
REMARK   10  A    between atoms: S_34  and  O_32 
ROOT
HETATM    1  C   UNK N   1      23.584  16.139   5.970  0.00  0.00     0.180 C 
HETATM    2  C   UNK N   1      25.029  16.381   5.543  0.00  0.00     0.182 C 
HETATM    3  C   UNK N   1      24.915  17.723   4.825  0.00  0.00     0.198 C 
HETATM    4  C   UNK N   1      23.448  18.095   5.038  0.00  0.00     0.262 C 
HETATM    5  O   UNK N   1      22.780  16.850   5.047  0.00  0.00    -0.353 OA
ENDROOT
BRANCH   1   6
HETATM    6  C   UNK N   1      23.220  14.671   6.113  0.00  0.00     0.226 C 
BRANCH   6   7
HETATM    7  O   UNK N   1      23.988  14.071   7.134  0.00  0.00    -0.257 OA
BRANCH   7   8
HETATM    8  S   UNK N   1      24.258  12.339   6.950  0.00  0.00     0.363 S 
HETATM    9  O   UNK N   1      22.722  12.223   6.888  0.00  0.00    -0.175 OA
HETATM   10  O   UNK N   1      24.957  12.742   5.644  0.00  0.00    -0.175 OA
BRANCH   8  11
HETATM   11  N   UNK N   1      25.025  12.730   8.480  0.00  0.00    -0.243 N 
HETATM   12  C   UNK N   1      24.491  12.747   9.658  0.00  0.00     0.149 C 
ATOM     13  HN  UNK N   1      26.014  12.974   8.434  1.00  0.00     0.182 HD
BRANCH  12  14
HETATM   14  C   UNK N   1      23.067  12.324   9.993  0.00  0.00     0.152 C 
HETATM   15  C   UNK N   1      22.724  12.020  11.433  0.00  0.00     0.035 C 
HETATM   16  C   UNK N   1      21.227  12.184  11.485  0.00  0.00     0.022 C 
HETATM   17  C   UNK N   1      20.909  13.111  10.328  0.00  0.00     0.114 C 
HETATM   18  N   UNK N   1      22.154  13.395   9.622  0.00  0.00    -0.410 N 
HETATM   19  H   UNK N   1      22.344  14.179   8.998  0.00  0.00     0.154 HD
ENDBRANCH  12  14
BRANCH  12  20
HETATM   20  O   UNK N   1      25.242  13.216  10.673  0.00  0.00    -0.347 OA
HETATM   21  H   UNK N   1      26.022  12.808  10.992  0.00  0.00     0.219 HD
ENDBRANCH  12  20
ENDBRANCH   8  11
ENDBRANCH   7   8
ENDBRANCH   6   7
ENDBRANCH   1   6
BRANCH   2  22
HETATM   22  O   UNK N   1      25.452  15.407   4.630  0.00  0.00    -0.390 OA
HETATM   23  H   UNK N   1      25.467  14.566   4.147  0.00  0.00     0.210 HD
ENDBRANCH   2  22
BRANCH   3  24
HETATM   24  O   UNK N   1      25.790  18.679   5.345  0.00  0.00    -0.388 OA
HETATM   25  H   UNK N   1      25.827  19.647   5.361  0.00  0.00     0.210 HD
ENDBRANCH   3  24
BRANCH   4  26
HETATM   26  N   UNK N   1      22.886  19.037   4.060  0.00  0.00    -0.297 N 
HETATM   27  C   UNK N   1      23.592  19.988   3.391  0.00  0.00     0.188 A 
HETATM   28  N   UNK N   1      22.833  20.593   2.434  0.00  0.00    -0.346 N 
HETATM   29  C   UNK N   1      21.645  19.968   2.506  0.00  0.00     0.122 A 
ATOM     30  HN  UNK N   1      23.105  21.349   1.805  1.00  0.00     0.167 HD
HETATM   31  C   UNK N   1      20.511  20.121   1.723  0.00  0.00     0.131 A 
HETATM   32  C   UNK N   1      21.672  19.041   3.484  0.00  0.00     0.142 A 
HETATM   33  N   UNK N   1      19.441  19.312   1.980  0.00  0.00    -0.337 N 
HETATM   34  C   UNK N   1      19.488  18.375   2.983  0.00  0.00     0.183 A 
ATOM     35  HN  UNK N   1      18.594  19.405   1.420  1.00  0.00     0.168 HD
HETATM   36  N   UNK N   1      20.620  18.229   3.740  0.00  0.00    -0.336 N 
ATOM     37  HN  UNK N   1      20.668  17.526   4.477  1.00  0.00     0.168 HD
BRANCH  31  38
HETATM   38  N   UNK N   1      20.469  21.055   0.668  0.00  0.00    -0.383 N 
HETATM   39  H   UNK N   1      21.155  21.757   0.604  0.00  0.00     0.157 HD
HETATM   40  H   UNK N   1      19.753  21.004  -0.005  0.00  0.00     0.157 HD
ENDBRANCH  31  38
ENDBRANCH   4  26
TORSDOF 10
ENDMDL
MODEL 8
REMARK VINA RESULT:      -7.4      7.711     14.417
REMARK  10 active torsions:
REMARK  status: ('A' for Active; 'I' for Inactive)
REMARK    1  A    between atoms: C_8  and  C_4 
REMARK    2  A    between atoms: O_32  and  C_4 
REMARK    3  A    between atoms: C_7  and  C_14 
REMARK    4  A    between atoms: C_10  and  O_27 
REMARK    5  A    between atoms: C_11  and  O_28 
REMARK    6  A    between atoms: N_16  and  C_12 
REMARK    7  A    between atoms: O_29  and  C_14 
REMARK    8  A    between atoms: C_15  and  N_26 
REMARK    9  A    between atoms: N_24  and  S_34 
REMARK   10  A    between atoms: S_34  and  O_32 
ROOT
HETATM    1  C   UNK N   1      35.450  15.937  11.089  0.00  0.00     0.180 C 
HETATM    2  C   UNK N   1      34.264  15.039  11.429  0.00  0.00     0.182 C 
HETATM    3  C   UNK N   1      34.944  13.681  11.583  0.00  0.00     0.198 C 
HETATM    4  C   UNK N   1      36.423  14.023  11.410  0.00  0.00     0.262 C 
HETATM    5  O   UNK N   1      36.419  15.096  10.491  0.00  0.00    -0.353 OA
ENDROOT
BRANCH   1   6
HETATM    6  C   UNK N   1      35.084  17.155  10.259  0.00  0.00     0.226 C 
BRANCH   6   7
HETATM    7  O   UNK N   1      34.978  16.806   8.895  0.00  0.00    -0.257 OA
BRANCH   7   8
HETATM    8  S   UNK N   1      34.175  18.001   7.876  0.00  0.00     0.363 S 
HETATM    9  O   UNK N   1      35.169  19.013   8.479  0.00  0.00    -0.175 OA
HETATM   10  O   UNK N   1      34.707  17.144   6.718  0.00  0.00    -0.175 OA
BRANCH   8  11
HETATM   11  N   UNK N   1      32.886  17.364   8.882  0.00  0.00    -0.243 N 
HETATM   12  C   UNK N   1      31.651  17.157   8.559  0.00  0.00     0.149 C 
ATOM     13  HN  UNK N   1      33.143  17.128   9.841  1.00  0.00     0.182 HD
BRANCH  12  14
HETATM   14  C   UNK N   1      31.055  17.334   7.169  0.00  0.00     0.152 C 
HETATM   15  C   UNK N   1      31.190  16.204   6.175  0.00  0.00     0.035 C 
HETATM   16  C   UNK N   1      30.084  16.464   5.187  0.00  0.00     0.022 C 
HETATM   17  C   UNK N   1      29.075  17.291   5.959  0.00  0.00     0.114 C 
HETATM   18  N   UNK N   1      29.620  17.541   7.289  0.00  0.00    -0.410 N 
HETATM   19  H   UNK N   1      29.104  17.806   8.128  0.00  0.00     0.154 HD
ENDBRANCH  12  14
BRANCH  12  20
HETATM   20  O   UNK N   1      30.805  16.792   9.542  0.00  0.00    -0.347 OA
HETATM   21  H   UNK N   1      30.808  15.957   9.965  0.00  0.00     0.219 HD
ENDBRANCH  12  20
ENDBRANCH   8  11
ENDBRANCH   7   8
ENDBRANCH   6   7
ENDBRANCH   1   6
BRANCH   2  22
HETATM   22  O   UNK N   1      33.358  14.980  10.363  0.00  0.00    -0.390 OA
HETATM   23  H   UNK N   1      33.039  14.907   9.450  0.00  0.00     0.210 HD
ENDBRANCH   2  22
BRANCH   3  24
HETATM   24  O   UNK N   1      34.673  13.089  12.818  0.00  0.00    -0.388 OA
HETATM   25  H   UNK N   1      35.130  12.465  13.402  0.00  0.00     0.210 HD
ENDBRANCH   3  24
BRANCH   4  26
HETATM   26  N   UNK N   1      37.284  12.910  10.985  0.00  0.00    -0.297 N 
HETATM   27  C   UNK N   1      37.228  11.643  11.475  0.00  0.00     0.188 A 
HETATM   28  N   UNK N   1      38.033  10.798  10.771  0.00  0.00    -0.346 N 
HETATM   29  C   UNK N   1      38.567  11.571   9.809  0.00  0.00     0.122 A 
ATOM     30  HN  UNK N   1      38.195   9.805  10.937  1.00  0.00     0.167 HD
HETATM   31  C   UNK N   1      39.406  11.231   8.760  0.00  0.00     0.131 A 
HETATM   32  C   UNK N   1      38.125  12.838   9.940  0.00  0.00     0.142 A 
HETATM   33  N   UNK N   1      39.764  12.214   7.881  0.00  0.00    -0.337 N 
HETATM   34  C   UNK N   1      39.304  13.499   8.033  0.00  0.00     0.183 A 
ATOM     35  HN  UNK N   1      40.382  11.991   7.101  1.00  0.00     0.168 HD
HETATM   36  N   UNK N   1      38.467  13.816   9.069  0.00  0.00    -0.336 N 
ATOM     37  HN  UNK N   1      38.110  14.765   9.181  1.00  0.00     0.168 HD
BRANCH  31  38
HETATM   38  N   UNK N   1      39.851   9.907   8.576  0.00  0.00    -0.383 N 
HETATM   39  H   UNK N   1      40.653   9.727   8.034  0.00  0.00     0.157 HD
HETATM   40  H   UNK N   1      39.360   9.161   8.990  0.00  0.00     0.157 HD
ENDBRANCH  31  38
ENDBRANCH   4  26
TORSDOF 10
ENDMDL
MODEL 9
REMARK VINA RESULT:      -7.3      9.032     14.848
REMARK  10 active torsions:
REMARK  status: ('A' for Active; 'I' for Inactive)
REMARK    1  A    between atoms: C_8  and  C_4 
REMARK    2  A    between atoms: O_32  and  C_4 
REMARK    3  A    between atoms: C_7  and  C_14 
REMARK    4  A    between atoms: C_10  and  O_27 
REMARK    5  A    between atoms: C_11  and  O_28 
REMARK    6  A    between atoms: N_16  and  C_12 
REMARK    7  A    between atoms: O_29  and  C_14 
REMARK    8  A    between atoms: C_15  and  N_26 
REMARK    9  A    between atoms: N_24  and  S_34 
REMARK   10  A    between atoms: S_34  and  O_32 
ROOT
HETATM    1  C   UNK N   1      35.633  15.005  10.208  0.00  0.00     0.180 C 
HETATM    2  C   UNK N   1      34.672  15.075  11.391  0.00  0.00     0.182 C 
HETATM    3  C   UNK N   1      35.058  13.823  12.174  0.00  0.00     0.198 C 
HETATM    4  C   UNK N   1      36.246  13.282  11.379  0.00  0.00     0.262 C 
HETATM    5  O   UNK N   1      35.950  13.635  10.043  0.00  0.00    -0.353 OA
ENDROOT
BRANCH   1   6
HETATM    6  C   UNK N   1      35.114  15.680   8.951  0.00  0.00     0.226 C 
BRANCH   6   7
HETATM    7  O   UNK N   1      34.911  17.058   9.182  0.00  0.00    -0.257 OA
BRANCH   7   8
HETATM    8  S   UNK N   1      34.045  17.913   7.905  0.00  0.00     0.363 S 
HETATM    9  O   UNK N   1      34.875  19.142   8.324  0.00  0.00    -0.175 OA
HETATM   10  O   UNK N   1      34.746  16.913   6.973  0.00  0.00    -0.175 OA
BRANCH   8  11
HETATM   11  N   UNK N   1      32.775  17.335   8.969  0.00  0.00    -0.243 N 
HETATM   12  C   UNK N   1      31.688  16.712   8.647  0.00  0.00     0.149 C 
ATOM     13  HN  UNK N   1      32.910  17.514   9.964  1.00  0.00     0.182 HD
BRANCH  12  14
HETATM   14  C   UNK N   1      31.313  16.246   7.247  0.00  0.00     0.152 C 
HETATM   15  C   UNK N   1      31.331  17.253   6.121  0.00  0.00     0.035 C 
HETATM   16  C   UNK N   1      31.462  16.403   4.884  0.00  0.00     0.022 C 
HETATM   17  C   UNK N   1      32.095  15.116   5.376  0.00  0.00     0.114 C 
HETATM   18  N   UNK N   1      32.248  15.213   6.824  0.00  0.00    -0.410 N 
HETATM   19  H   UNK N   1      32.876  14.670   7.416  0.00  0.00     0.154 HD
ENDBRANCH  12  14
BRANCH  12  20
HETATM   20  O   UNK N   1      30.787  16.490   9.624  0.00  0.00    -0.347 OA
HETATM   21  H   UNK N   1      30.816  16.882  10.474  0.00  0.00     0.219 HD
ENDBRANCH  12  20
ENDBRANCH   8  11
ENDBRANCH   7   8
ENDBRANCH   6   7
ENDBRANCH   1   6
BRANCH   2  22
HETATM   22  O   UNK N   1      33.343  14.958  10.966  0.00  0.00    -0.390 OA
HETATM   23  H   UNK N   1      32.378  15.058  10.975  0.00  0.00     0.210 HD
ENDBRANCH   2  22
BRANCH   3  24
HETATM   24  O   UNK N   1      35.388  14.107  13.501  0.00  0.00    -0.388 OA
HETATM   25  H   UNK N   1      34.958  13.989  14.362  0.00  0.00     0.210 HD
ENDBRANCH   3  24
BRANCH   4  26
HETATM   26  N   UNK N   1      36.517  11.847  11.544  0.00  0.00    -0.297 N 
HETATM   27  C   UNK N   1      36.313  10.895  10.595  0.00  0.00     0.188 A 
HETATM   28  N   UNK N   1      36.812   9.688  10.983  0.00  0.00    -0.346 N 
HETATM   29  C   UNK N   1      37.360   9.924  12.188  0.00  0.00     0.122 A 
ATOM     30  HN  UNK N   1      36.777   8.804  10.474  1.00  0.00     0.167 HD
HETATM   31  C   UNK N   1      38.072   9.078  13.022  0.00  0.00     0.131 A 
HETATM   32  C   UNK N   1      37.177  11.216  12.529  0.00  0.00     0.142 A 
HETATM   33  N   UNK N   1      38.571   9.593  14.185  0.00  0.00    -0.337 N 
HETATM   34  C   UNK N   1      38.372  10.911  14.515  0.00  0.00     0.183 A 
ATOM     35  HN  UNK N   1      39.097   8.991  14.818  1.00  0.00     0.168 HD
HETATM   36  N   UNK N   1      37.676  11.737  13.675  0.00  0.00    -0.336 N 
ATOM     37  HN  UNK N   1      37.536  12.721  13.906  1.00  0.00     0.168 HD
BRANCH  31  38
HETATM   38  N   UNK N   1      38.312   7.734  12.672  0.00  0.00    -0.383 N 
HETATM   39  H   UNK N   1      39.236   7.400  12.601  0.00  0.00     0.157 HD
HETATM   40  H   UNK N   1      37.556   7.128  12.498  0.00  0.00     0.157 HD
ENDBRANCH  31  38
ENDBRANCH   4  26
TORSDOF 10
ENDMDL
