MODEL 1
REMARK VINA RESULT:      -4.9      0.000      0.000
REMARK  3 active torsions:
REMARK  status: ('A' for Active; 'I' for Inactive)
REMARK    1  A    between atoms: C_3  and  N_7 
REMARK    2  A    between atoms: C_4  and  O_8 
REMARK    3  A    between atoms: C_6  and  O_10 
ROOT
HETATM    1  C   UNK N   1      22.994  17.543   4.540  0.00  0.00     0.042 C 
HETATM    2  C   UNK N   1      22.045  18.590   3.986  0.00  0.00     0.145 C 
HETATM    3  C   UNK N   1      20.879  17.900   3.232  0.00  0.00     0.134 C 
HETATM    4  C   UNK N   1      20.056  18.906   2.382  0.00  0.00     0.176 C 
HETATM    5  C   UNK N   1      20.441  20.352   2.695  0.00  0.00     0.204 C 
HETATM    6  C   UNK N   1      21.978  20.464   2.501  0.00  0.00     0.288 C 
HETATM    7  O   UNK N   1      20.067  20.695   4.000  0.00  0.00    -0.388 OA
HETATM    8  O   UNK N   1      22.777  19.477   3.153  0.00  0.00    -0.352 OA
HETATM    9  H   UNK N   1      19.971  20.938   4.933  0.00  0.00     0.210 HD
ENDROOT
BRANCH   4  10
HETATM   10  O   UNK N   1      18.677  18.710   2.512  0.00  0.00    -0.391 OA
HETATM   11  H   UNK N   1      18.092  19.420   2.822  0.00  0.00     0.210 HD
ENDBRANCH   4  10
BRANCH   6  12
HETATM   12  O   UNK N   1      22.409  21.741   2.874  0.00  0.00    -0.369 OA
HETATM   13  H   UNK N   1      22.196  22.270   3.658  0.00  0.00     0.212 HD
ENDBRANCH   6  12
BRANCH   3  14
HETATM   14  N   UNK N   1      20.034  17.209   4.201  0.00  0.00    -0.422 N 
HETATM   15  H   UNK N   1      19.946  17.359   5.206  0.00  0.00     0.150 HD
HETATM   16  H   UNK N   1      19.446  16.470   3.818  0.00  0.00     0.150 HD
ENDBRANCH   3  14
TORSDOF 3
ENDMDL
MODEL 2
REMARK VINA RESULT:      -4.8     15.657     16.852
REMARK  3 active torsions:
REMARK  status: ('A' for Active; 'I' for Inactive)
REMARK    1  A    between atoms: C_3  and  N_7 
REMARK    2  A    between atoms: C_4  and  O_8 
REMARK    3  A    between atoms: C_6  and  O_10 
ROOT
HETATM    1  C   UNK N   1      36.330  14.055  13.943  0.00  0.00     0.042 C 
HETATM    2  C   UNK N   1      35.496  14.367  12.714  0.00  0.00     0.145 C 
HETATM    3  C   UNK N   1      35.363  13.100  11.830  0.00  0.00     0.134 C 
HETATM    4  C   UNK N   1      34.799  13.427  10.421  0.00  0.00     0.176 C 
HETATM    5  C   UNK N   1      34.283  14.864  10.343  0.00  0.00     0.204 C 
HETATM    6  C   UNK N   1      35.446  15.789  10.792  0.00  0.00     0.288 C 
HETATM    7  O   UNK N   1      33.156  15.032  11.157  0.00  0.00    -0.388 OA
HETATM    8  O   UNK N   1      36.093  15.451  12.019  0.00  0.00    -0.352 OA
HETATM    9  H   UNK N   1      32.475  15.246  11.813  0.00  0.00     0.210 HD
ENDROOT
BRANCH   4  10
HETATM   10  O   UNK N   1      33.820  12.515  10.014  0.00  0.00    -0.391 OA
HETATM   11  H   UNK N   1      33.297  12.013  10.659  0.00  0.00     0.210 HD
ENDBRANCH   4  10
BRANCH   6  12
HETATM   12  O   UNK N   1      35.003  17.114  10.841  0.00  0.00    -0.369 OA
HETATM   13  H   UNK N   1      34.654  17.685  10.139  0.00  0.00     0.212 HD
ENDBRANCH   6  12
BRANCH   3  14
HETATM   14  N   UNK N   1      34.526  12.126  12.524  0.00  0.00    -0.422 N 
HETATM   15  H   UNK N   1      34.404  11.974  13.525  0.00  0.00     0.150 HD
HETATM   16  H   UNK N   1      33.984  11.509  11.920  0.00  0.00     0.150 HD
ENDBRANCH   3  14
TORSDOF 3
ENDMDL
MODEL 3
REMARK VINA RESULT:      -4.7      1.780      2.079
REMARK  3 active torsions:
REMARK  status: ('A' for Active; 'I' for Inactive)
REMARK    1  A    between atoms: C_3  and  N_7 
REMARK    2  A    between atoms: C_4  and  O_8 
REMARK    3  A    between atoms: C_6  and  O_10 
ROOT
HETATM    1  C   UNK N   1      24.531  20.290   3.160  0.00  0.00     0.042 C 
HETATM    2  C   UNK N   1      23.015  20.215   3.111  0.00  0.00     0.145 C 
HETATM    3  C   UNK N   1      22.547  18.772   3.430  0.00  0.00     0.134 C 
HETATM    4  C   UNK N   1      21.047  18.556   3.090  0.00  0.00     0.176 C 
HETATM    5  C   UNK N   1      20.349  19.878   2.765  0.00  0.00     0.204 C 
HETATM    6  C   UNK N   1      21.167  20.556   1.632  0.00  0.00     0.288 C 
HETATM    7  O   UNK N   1      20.279  20.694   3.900  0.00  0.00    -0.388 OA
HETATM    8  O   UNK N   1      22.576  20.657   1.835  0.00  0.00    -0.352 OA
HETATM    9  H   UNK N   1      20.337  21.357   4.605  0.00  0.00     0.210 HD
ENDROOT
BRANCH   4  10
HETATM   10  O   UNK N   1      20.368  17.859   4.095  0.00  0.00    -0.391 OA
HETATM   11  H   UNK N   1      20.749  17.068   4.507  0.00  0.00     0.210 HD
ENDBRANCH   4  10
BRANCH   6  12
HETATM   12  O   UNK N   1      20.637  21.821   1.361  0.00  0.00    -0.369 OA
HETATM   13  H   UNK N   1      21.078  22.637   1.076  0.00  0.00     0.212 HD
ENDBRANCH   6  12
BRANCH   3  14
HETATM   14  N   UNK N   1      22.818  18.488   4.836  0.00  0.00    -0.422 N 
HETATM   15  H   UNK N   1      22.246  18.681   5.658  0.00  0.00     0.150 HD
HETATM   16  H   UNK N   1      23.710  18.030   5.023  0.00  0.00     0.150 HD
ENDBRANCH   3  14
TORSDOF 3
ENDMDL
MODEL 4
REMARK VINA RESULT:      -4.6      1.873      3.114
REMARK  3 active torsions:
REMARK  status: ('A' for Active; 'I' for Inactive)
REMARK    1  A    between atoms: C_3  and  N_7 
REMARK    2  A    between atoms: C_4  and  O_8 
REMARK    3  A    between atoms: C_6  and  O_10 
ROOT
HETATM    1  C   UNK N   1      22.615  17.029   3.867  0.00  0.00     0.042 C 
HETATM    2  C   UNK N   1      21.771  18.033   3.102  0.00  0.00     0.145 C 
HETATM    3  C   UNK N   1      22.024  19.462   3.649  0.00  0.00     0.134 C 
HETATM    4  C   UNK N   1      20.972  20.480   3.132  0.00  0.00     0.176 C 
HETATM    5  C   UNK N   1      20.107  19.879   2.024  0.00  0.00     0.204 C 
HETATM    6  C   UNK N   1      19.498  18.565   2.586  0.00  0.00     0.288 C 
HETATM    7  O   UNK N   1      20.869  19.635   0.875  0.00  0.00    -0.388 OA
HETATM    8  O   UNK N   1      20.407  17.651   3.197  0.00  0.00    -0.352 OA
HETATM    9  H   UNK N   1      21.371  19.306   0.114  0.00  0.00     0.210 HD
ENDROOT
BRANCH   4  10
HETATM   10  O   UNK N   1      21.553  21.685   2.723  0.00  0.00    -0.391 OA
HETATM   11  H   UNK N   1      21.796  22.372   3.363  0.00  0.00     0.210 HD
ENDBRANCH   4  10
BRANCH   6  12
HETATM   12  O   UNK N   1      18.776  17.913   1.582  0.00  0.00    -0.369 OA
HETATM   13  H   UNK N   1      17.877  17.551   1.592  0.00  0.00     0.212 HD
ENDBRANCH   6  12
BRANCH   3  14
HETATM   14  N   UNK N   1      23.379  19.870   3.291  0.00  0.00    -0.422 N 
HETATM   15  H   UNK N   1      23.741  20.198   2.395  0.00  0.00     0.150 HD
HETATM   16  H   UNK N   1      24.062  19.822   4.046  0.00  0.00     0.150 HD
ENDBRANCH   3  14
TORSDOF 3
ENDMDL
MODEL 5
REMARK VINA RESULT:      -4.6     12.691     13.717
REMARK  3 active torsions:
REMARK  status: ('A' for Active; 'I' for Inactive)
REMARK    1  A    between atoms: C_3  and  N_7 
REMARK    2  A    between atoms: C_4  and  O_8 
REMARK    3  A    between atoms: C_6  and  O_10 
ROOT
HETATM    1  C   UNK N   1      34.973  15.375   5.884  0.00  0.00     0.042 C 
HETATM    2  C   UNK N   1      34.445  16.165   7.068  0.00  0.00     0.145 C 
HETATM    3  C   UNK N   1      32.959  15.802   7.325  0.00  0.00     0.134 C 
HETATM    4  C   UNK N   1      32.277  16.793   8.306  0.00  0.00     0.176 C 
HETATM    5  C   UNK N   1      33.298  17.722   8.965  0.00  0.00     0.204 C 
HETATM    6  C   UNK N   1      34.093  18.407   7.820  0.00  0.00     0.288 C 
HETATM    7  O   UNK N   1      34.147  17.004   9.815  0.00  0.00    -0.388 OA
HETATM    8  O   UNK N   1      34.627  17.549   6.813  0.00  0.00    -0.352 OA
HETATM    9  H   UNK N   1      34.854  16.543  10.293  0.00  0.00     0.210 HD
ENDROOT
BRANCH   4  10
HETATM   10  O   UNK N   1      31.495  16.140   9.264  0.00  0.00    -0.391 OA
HETATM   11  H   UNK N   1      31.089  16.624  10.001  0.00  0.00     0.210 HD
ENDBRANCH   4  10
BRANCH   6  12
HETATM   12  O   UNK N   1      35.114  19.194   8.360  0.00  0.00    -0.369 OA
HETATM   13  H   UNK N   1      35.077  19.900   9.024  0.00  0.00     0.212 HD
ENDBRANCH   6  12
BRANCH   3  14
HETATM   14  N   UNK N   1      32.887  14.431   7.820  0.00  0.00    -0.422 N 
HETATM   15  H   UNK N   1      32.072  13.833   7.956  0.00  0.00     0.150 HD
HETATM   16  H   UNK N   1      33.783  14.009   8.064  0.00  0.00     0.150 HD
ENDBRANCH   3  14
TORSDOF 3
ENDMDL
MODEL 6
REMARK VINA RESULT:      -4.5     21.289     22.519
REMARK  3 active torsions:
REMARK  status: ('A' for Active; 'I' for Inactive)
REMARK    1  A    between atoms: C_3  and  N_7 
REMARK    2  A    between atoms: C_4  and  O_8 
REMARK    3  A    between atoms: C_6  and  O_10 
ROOT
HETATM    1  C   UNK N   1      41.761  20.075   3.299  0.00  0.00     0.042 C 
HETATM    2  C   UNK N   1      42.608  21.330   3.206  0.00  0.00     0.145 C 
HETATM    3  C   UNK N   1      42.301  22.079   1.883  0.00  0.00     0.134 C 
HETATM    4  C   UNK N   1      43.347  23.186   1.582  0.00  0.00     0.176 C 
HETATM    5  C   UNK N   1      44.267  23.429   2.778  0.00  0.00     0.204 C 
HETATM    6  C   UNK N   1      44.886  22.057   3.160  0.00  0.00     0.288 C 
HETATM    7  O   UNK N   1      43.555  23.982   3.849  0.00  0.00    -0.388 OA
HETATM    8  O   UNK N   1      43.976  20.969   3.317  0.00  0.00    -0.352 OA
HETATM    9  H   UNK N   1      43.090  24.220   4.666  0.00  0.00     0.210 HD
ENDROOT
BRANCH   4  10
HETATM   10  O   UNK N   1      42.753  24.377   1.150  0.00  0.00    -0.391 OA
HETATM   11  H   UNK N   1      42.968  24.766   0.287  0.00  0.00     0.210 HD
ENDBRANCH   4  10
BRANCH   6  12
HETATM   12  O   UNK N   1      45.661  22.195   4.316  0.00  0.00    -0.369 OA
HETATM   13  H   UNK N   1      45.392  22.272   5.245  0.00  0.00     0.212 HD
ENDBRANCH   6  12
BRANCH   3  14
HETATM   14  N   UNK N   1      40.951  22.630   1.956  0.00  0.00    -0.422 N 
HETATM   15  H   UNK N   1      40.340  22.742   2.766  0.00  0.00     0.150 HD
HETATM   16  H   UNK N   1      40.563  22.950   1.070  0.00  0.00     0.150 HD
ENDBRANCH   3  14
TORSDOF 3
ENDMDL
MODEL 7
REMARK VINA RESULT:      -4.5      9.277     10.282
REMARK  3 active torsions:
REMARK  status: ('A' for Active; 'I' for Inactive)
REMARK    1  A    between atoms: C_3  and  N_7 
REMARK    2  A    between atoms: C_4  and  O_8 
REMARK    3  A    between atoms: C_6  and  O_10 
ROOT
HETATM    1  C   UNK N   1      20.410  13.444  10.188  0.00  0.00     0.042 C 
HETATM    2  C   UNK N   1      21.880  13.069  10.219  0.00  0.00     0.145 C 
HETATM    3  C   UNK N   1      22.259  12.306   8.923  0.00  0.00     0.134 C 
HETATM    4  C   UNK N   1      23.651  11.626   9.032  0.00  0.00     0.176 C 
HETATM    5  C   UNK N   1      24.403  12.083  10.282  0.00  0.00     0.204 C 
HETATM    6  C   UNK N   1      23.470  11.819  11.495  0.00  0.00     0.288 C 
HETATM    7  O   UNK N   1      24.745  13.438  10.188  0.00  0.00    -0.388 OA
HETATM    8  O   UNK N   1      22.133  12.306  11.389  0.00  0.00    -0.352 OA
HETATM    9  H   UNK N   1      24.871  14.397  10.247  0.00  0.00     0.210 HD
ENDROOT
BRANCH   4  10
HETATM   10  O   UNK N   1      24.424  11.808   7.880  0.00  0.00    -0.391 OA
HETATM   11  H   UNK N   1      24.674  12.694   7.574  0.00  0.00     0.210 HD
ENDBRANCH   4  10
BRANCH   6  12
HETATM   12  O   UNK N   1      24.063  12.312  12.661  0.00  0.00    -0.369 OA
HETATM   13  H   UNK N   1      24.206  11.885  13.520  0.00  0.00     0.212 HD
ENDBRANCH   6  12
BRANCH   3  14
HETATM   14  N   UNK N   1      22.208  13.234   7.798  0.00  0.00    -0.422 N 
HETATM   15  H   UNK N   1      21.749  13.130   6.893  0.00  0.00     0.150 HD
HETATM   16  H   UNK N   1      22.702  14.115   7.937  0.00  0.00     0.150 HD
ENDBRANCH   3  14
TORSDOF 3
ENDMDL
MODEL 8
REMARK VINA RESULT:      -4.4      7.521      8.960
REMARK  3 active torsions:
REMARK  status: ('A' for Active; 'I' for Inactive)
REMARK    1  A    between atoms: C_3  and  N_7 
REMARK    2  A    between atoms: C_4  and  O_8 
REMARK    3  A    between atoms: C_6  and  O_10 
ROOT
HETATM    1  C   UNK N   1      28.649  15.912   5.672  0.00  0.00     0.042 C 
HETATM    2  C   UNK N   1      28.503  16.848   6.858  0.00  0.00     0.145 C 
HETATM    3  C   UNK N   1      27.941  18.215   6.388  0.00  0.00     0.134 C 
HETATM    4  C   UNK N   1      28.065  19.306   7.485  0.00  0.00     0.176 C 
HETATM    5  C   UNK N   1      28.475  18.706   8.830  0.00  0.00     0.204 C 
HETATM    6  C   UNK N   1      29.779  17.898   8.587  0.00  0.00     0.288 C 
HETATM    7  O   UNK N   1      27.459  17.891   9.341  0.00  0.00    -0.388 OA
HETATM    8  O   UNK N   1      29.763  16.974   7.500  0.00  0.00    -0.352 OA
HETATM    9  H   UNK N   1      26.861  17.201   9.667  0.00  0.00     0.210 HD
ENDROOT
BRANCH   4  10
HETATM   10  O   UNK N   1      26.902  20.074   7.607  0.00  0.00    -0.391 OA
HETATM   11  H   UNK N   1      26.167  19.792   8.173  0.00  0.00     0.210 HD
ENDBRANCH   4  10
BRANCH   6  12
HETATM   12  O   UNK N   1      30.150  17.237   9.762  0.00  0.00    -0.369 OA
HETATM   13  H   UNK N   1      30.725  16.468   9.894  0.00  0.00     0.212 HD
ENDBRANCH   6  12
BRANCH   3  14
HETATM   14  N   UNK N   1      26.553  18.035   5.972  0.00  0.00    -0.422 N 
HETATM   15  H   UNK N   1      25.715  17.927   6.543  0.00  0.00     0.150 HD
HETATM   16  H   UNK N   1      26.399  18.017   4.965  0.00  0.00     0.150 HD
ENDBRANCH   3  14
TORSDOF 3
ENDMDL
MODEL 9
REMARK VINA RESULT:      -4.4     13.219     14.889
REMARK  3 active torsions:
REMARK  status: ('A' for Active; 'I' for Inactive)
REMARK    1  A    between atoms: C_3  and  N_7 
REMARK    2  A    between atoms: C_4  and  O_8 
REMARK    3  A    between atoms: C_6  and  O_10 
ROOT
HETATM    1  C   UNK N   1      31.798  15.231   7.145  0.00  0.00     0.042 C 
HETATM    2  C   UNK N   1      32.625  15.074   8.408  0.00  0.00     0.145 C 
HETATM    3  C   UNK N   1      33.563  16.297   8.580  0.00  0.00     0.134 C 
HETATM    4  C   UNK N   1      34.647  16.054   9.666  0.00  0.00     0.176 C 
HETATM    5  C   UNK N   1      34.365  14.780  10.464  0.00  0.00     0.204 C 
HETATM    6  C   UNK N   1      34.224  13.624   9.437  0.00  0.00     0.288 C 
HETATM    7  O   UNK N   1      33.205  14.922  11.233  0.00  0.00    -0.388 OA
HETATM    8  O   UNK N   1      33.340  13.850   8.339  0.00  0.00    -0.352 OA
HETATM    9  H   UNK N   1      32.336  14.906  11.664  0.00  0.00     0.210 HD
ENDROOT
BRANCH   4  10
HETATM   10  O   UNK N   1      34.810  17.156  10.512  0.00  0.00    -0.391 OA
HETATM   11  H   UNK N   1      35.576  17.231  11.102  0.00  0.00     0.210 HD
ENDBRANCH   4  10
BRANCH   6  12
HETATM   12  O   UNK N   1      33.863  12.446  10.099  0.00  0.00    -0.369 OA
HETATM   13  H   UNK N   1      33.172  12.286  10.760  0.00  0.00     0.212 HD
ENDBRANCH   6  12
BRANCH   3  14
HETATM   14  N   UNK N   1      32.755  17.472   8.891  0.00  0.00    -0.422 N 
HETATM   15  H   UNK N   1      32.597  18.314   8.338  0.00  0.00     0.150 HD
HETATM   16  H   UNK N   1      32.278  17.446   9.792  0.00  0.00     0.150 HD
ENDBRANCH   3  14
TORSDOF 3
ENDMDL
