MODEL 1
REMARK VINA RESULT:      -5.4      0.000      0.000
REMARK  5 active torsions:
REMARK  status: ('A' for Active; 'I' for Inactive)
REMARK    1  A    between atoms: C_2  and  N_1 
REMARK    2  A    between atoms: C_2  and  C_3 
REMARK    3  A    between atoms: C_2  and  C_10 
REMARK    4  A    between atoms: C_3  and  C_4 
REMARK    5  A    between atoms: C_10  and  O_11 
ROOT
HETATM    1  C   UNK N   1      33.316  17.672   8.722  0.00  0.00     0.177 C 
ENDROOT
BRANCH   1   2
HETATM    2  N   UNK N   1      33.905  16.664   9.590  0.00  0.00    -0.417 N 
HETATM    3  H   UNK N   1      33.601  16.265  10.479  0.00  0.00     0.150 HD
HETATM    4  H   UNK N   1      34.786  16.285   9.246  0.00  0.00     0.150 HD
ENDBRANCH   1   2
BRANCH   1   5
HETATM    5  C   UNK N   1      32.244  17.057   7.806  0.00  0.00     0.074 C 
BRANCH   5   6
HETATM    6  C   UNK N   1      30.811  17.471   8.012  0.00  0.00    -0.056 A 
HETATM    7  C   UNK N   1      30.486  18.159   9.186  0.00  0.00     0.007 A 
HETATM    8  C   UNK N   1      29.180  18.605   9.409  0.00  0.00     0.001 A 
HETATM    9  C   UNK N   1      28.191  18.374   8.449  0.00  0.00     0.000 A 
HETATM   10  C   UNK N   1      28.504  17.685   7.275  0.00  0.00     0.001 A 
HETATM   11  C   UNK N   1      29.809  17.233   7.057  0.00  0.00     0.007 A 
ENDBRANCH   5   6
ENDBRANCH   1   5
BRANCH   1  12
HETATM   12  C   UNK N   1      34.418  18.302   7.913  0.00  0.00     0.163 C 
HETATM   13  O   UNK N   1      34.575  18.019   6.734  0.00  0.00    -0.648 OA
BRANCH  12  14
HETATM   14  O   UNK N   1      35.262  19.172   8.502  0.00  0.00    -0.775 OA
HETATM   15  H   UNK N   1      36.029  19.476   8.057  0.00  0.00     0.167 HD
ENDBRANCH  12  14
ENDBRANCH   1  12
TORSDOF 5
ENDMDL
MODEL 2
REMARK VINA RESULT:      -5.3      9.370     10.564
REMARK  5 active torsions:
REMARK  status: ('A' for Active; 'I' for Inactive)
REMARK    1  A    between atoms: C_2  and  N_1 
REMARK    2  A    between atoms: C_2  and  C_3 
REMARK    3  A    between atoms: C_2  and  C_10 
REMARK    4  A    between atoms: C_3  and  C_4 
REMARK    5  A    between atoms: C_10  and  O_11 
ROOT
HETATM    1  C   UNK N   1      36.273  13.678  14.628  0.00  0.00     0.177 C 
ENDROOT
BRANCH   1   2
HETATM    2  N   UNK N   1      37.529  12.953  14.748  0.00  0.00    -0.417 N 
HETATM    3  H   UNK N   1      38.166  12.570  14.050  0.00  0.00     0.150 HD
HETATM    4  H   UNK N   1      37.828  12.800  15.710  0.00  0.00     0.150 HD
ENDBRANCH   1   2
BRANCH   1   5
HETATM    5  C   UNK N   1      35.123  12.910  15.302  0.00  0.00     0.074 C 
BRANCH   5   6
HETATM    6  C   UNK N   1      35.251  12.578  16.765  0.00  0.00    -0.056 A 
HETATM    7  C   UNK N   1      35.103  13.618  17.691  0.00  0.00     0.007 A 
HETATM    8  C   UNK N   1      35.169  13.359  19.062  0.00  0.00     0.001 A 
HETATM    9  C   UNK N   1      35.372  12.054  19.518  0.00  0.00     0.000 A 
HETATM   10  C   UNK N   1      35.523  11.010  18.602  0.00  0.00     0.001 A 
HETATM   11  C   UNK N   1      35.465  11.271  17.230  0.00  0.00     0.007 A 
ENDBRANCH   5   6
ENDBRANCH   1   5
BRANCH   1  12
HETATM   12  C   UNK N   1      35.990  13.895  13.164  0.00  0.00     0.163 C 
HETATM   13  O   UNK N   1      34.844  13.916  12.741  0.00  0.00    -0.648 OA
BRANCH  12  14
HETATM   14  O   UNK N   1      37.015  14.043  12.303  0.00  0.00    -0.775 OA
HETATM   15  H   UNK N   1      36.863  14.272  11.407  0.00  0.00     0.167 HD
ENDBRANCH  12  14
ENDBRANCH   1  12
TORSDOF 5
ENDMDL
MODEL 3
REMARK VINA RESULT:      -5.3      9.334     10.575
REMARK  5 active torsions:
REMARK  status: ('A' for Active; 'I' for Inactive)
REMARK    1  A    between atoms: C_2  and  N_1 
REMARK    2  A    between atoms: C_2  and  C_3 
REMARK    3  A    between atoms: C_2  and  C_10 
REMARK    4  A    between atoms: C_3  and  C_4 
REMARK    5  A    between atoms: C_10  and  O_11 
ROOT
HETATM    1  C   UNK N   1      36.267  13.695  14.611  0.00  0.00     0.177 C 
ENDROOT
BRANCH   1   2
HETATM    2  N   UNK N   1      37.519  12.973  14.779  0.00  0.00    -0.417 N 
HETATM    3  H   UNK N   1      38.019  12.323  14.173  0.00  0.00     0.150 HD
HETATM    4  H   UNK N   1      37.982  13.150  15.669  0.00  0.00     0.150 HD
ENDBRANCH   1   2
BRANCH   1   5
HETATM    5  C   UNK N   1      35.096  12.932  15.253  0.00  0.00     0.074 C 
BRANCH   5   6
HETATM    6  C   UNK N   1      35.163  12.638  16.728  0.00  0.00    -0.056 A 
HETATM    7  C   UNK N   1      35.369  11.312  17.126  0.00  0.00     0.007 A 
HETATM    8  C   UNK N   1      35.484  10.988  18.481  0.00  0.00     0.001 A 
HETATM    9  C   UNK N   1      35.402  11.994  19.448  0.00  0.00     0.000 A 
HETATM   10  C   UNK N   1      35.194  13.319  19.061  0.00  0.00     0.001 A 
HETATM   11  C   UNK N   1      35.072  13.641  17.706  0.00  0.00     0.007 A 
ENDBRANCH   5   6
ENDBRANCH   1   5
BRANCH   1  12
HETATM   12  C   UNK N   1      36.032  13.900  13.137  0.00  0.00     0.163 C 
HETATM   13  O   UNK N   1      34.901  14.025  12.691  0.00  0.00    -0.648 OA
BRANCH  12  14
HETATM   14  O   UNK N   1      37.082  13.917  12.293  0.00  0.00    -0.775 OA
HETATM   15  H   UNK N   1      37.961  13.911  12.617  0.00  0.00     0.167 HD
ENDBRANCH  12  14
ENDBRANCH   1  12
TORSDOF 5
ENDMDL
MODEL 4
REMARK VINA RESULT:      -5.2     10.206     11.976
REMARK  5 active torsions:
REMARK  status: ('A' for Active; 'I' for Inactive)
REMARK    1  A    between atoms: C_2  and  N_1 
REMARK    2  A    between atoms: C_2  and  C_3 
REMARK    3  A    between atoms: C_2  and  C_10 
REMARK    4  A    between atoms: C_3  and  C_4 
REMARK    5  A    between atoms: C_10  and  O_11 
ROOT
HETATM    1  C   UNK N   1      20.727  19.455   2.105  0.00  0.00     0.177 C 
ENDROOT
BRANCH   1   2
HETATM    2  N   UNK N   1      19.340  19.118   2.383  0.00  0.00    -0.417 N 
HETATM    3  H   UNK N   1      18.472  19.336   1.893  0.00  0.00     0.150 HD
HETATM    4  H   UNK N   1      19.210  18.560   3.226  0.00  0.00     0.150 HD
ENDBRANCH   1   2
BRANCH   1   5
HETATM    5  C   UNK N   1      21.474  19.837   3.394  0.00  0.00     0.074 C 
BRANCH   5   6
HETATM    6  C   UNK N   1      22.963  19.616   3.445  0.00  0.00    -0.056 A 
HETATM    7  C   UNK N   1      23.431  18.395   3.943  0.00  0.00     0.007 A 
HETATM    8  C   UNK N   1      24.801  18.120   3.973  0.00  0.00     0.001 A 
HETATM    9  C   UNK N   1      25.713  19.063   3.492  0.00  0.00     0.000 A 
HETATM   10  C   UNK N   1      25.256  20.286   2.996  0.00  0.00     0.001 A 
HETATM   11  C   UNK N   1      23.886  20.563   2.973  0.00  0.00     0.007 A 
ENDBRANCH   5   6
ENDBRANCH   1   5
BRANCH   1  12
HETATM   12  C   UNK N   1      20.750  20.588   1.114  0.00  0.00     0.163 C 
HETATM   13  O   UNK N   1      20.889  21.745   1.482  0.00  0.00    -0.648 OA
BRANCH  12  14
HETATM   14  O   UNK N   1      20.588  20.328  -0.198  0.00  0.00    -0.775 OA
HETATM   15  H   UNK N   1      20.107  20.913  -0.750  0.00  0.00     0.167 HD
ENDBRANCH  12  14
ENDBRANCH   1  12
TORSDOF 5
ENDMDL
MODEL 5
REMARK VINA RESULT:      -4.9      3.628      5.237
REMARK  5 active torsions:
REMARK  status: ('A' for Active; 'I' for Inactive)
REMARK    1  A    between atoms: C_2  and  N_1 
REMARK    2  A    between atoms: C_2  and  C_3 
REMARK    3  A    between atoms: C_2  and  C_10 
REMARK    4  A    between atoms: C_3  and  C_4 
REMARK    5  A    between atoms: C_10  and  O_11 
ROOT
HETATM    1  C   UNK N   1      28.988  18.321   7.732  0.00  0.00     0.177 C 
ENDROOT
BRANCH   1   2
HETATM    2  N   UNK N   1      27.779  18.312   6.924  0.00  0.00    -0.417 N 
HETATM    3  H   UNK N   1      27.159  17.557   6.629  0.00  0.00     0.150 HD
HETATM    4  H   UNK N   1      27.497  19.233   6.591  0.00  0.00     0.150 HD
ENDBRANCH   1   2
BRANCH   1   5
HETATM    5  C   UNK N   1      29.868  17.097   7.427  0.00  0.00     0.074 C 
BRANCH   5   6
HETATM    6  C   UNK N   1      31.352  17.306   7.284  0.00  0.00    -0.056 A 
HETATM    7  C   UNK N   1      31.928  17.102   6.025  0.00  0.00     0.007 A 
HETATM    8  C   UNK N   1      33.293  17.324   5.825  0.00  0.00     0.001 A 
HETATM    9  C   UNK N   1      34.091  17.763   6.885  0.00  0.00     0.000 A 
HETATM   10  C   UNK N   1      33.527  17.967   8.146  0.00  0.00     0.001 A 
HETATM   11  C   UNK N   1      32.163  17.737   8.347  0.00  0.00     0.007 A 
ENDBRANCH   5   6
ENDBRANCH   1   5
BRANCH   1  12
HETATM   12  C   UNK N   1      28.588  18.349   9.184  0.00  0.00     0.163 C 
HETATM   13  O   UNK N   1      29.371  18.721  10.046  0.00  0.00    -0.648 OA
BRANCH  12  14
HETATM   14  O   UNK N   1      27.359  17.931   9.543  0.00  0.00    -0.775 OA
HETATM   15  H   UNK N   1      27.060  17.070   9.326  0.00  0.00     0.167 HD
ENDBRANCH  12  14
ENDBRANCH   1  12
TORSDOF 5
ENDMDL
MODEL 6
REMARK VINA RESULT:      -4.9      2.892      3.786
REMARK  5 active torsions:
REMARK  status: ('A' for Active; 'I' for Inactive)
REMARK    1  A    between atoms: C_2  and  N_1 
REMARK    2  A    between atoms: C_2  and  C_3 
REMARK    3  A    between atoms: C_2  and  C_10 
REMARK    4  A    between atoms: C_3  and  C_4 
REMARK    5  A    between atoms: C_10  and  O_11 
ROOT
HETATM    1  C   UNK N   1      34.031  16.472   9.195  0.00  0.00     0.177 C 
ENDROOT
BRANCH   1   2
HETATM    2  N   UNK N   1      34.805  17.047  10.284  0.00  0.00    -0.417 N 
HETATM    3  H   UNK N   1      35.808  17.075  10.470  0.00  0.00     0.150 HD
HETATM    4  H   UNK N   1      34.239  17.508  10.996  0.00  0.00     0.150 HD
ENDBRANCH   1   2
BRANCH   1   5
HETATM    5  C   UNK N   1      32.972  17.464   8.683  0.00  0.00     0.074 C 
BRANCH   5   6
HETATM    6  C   UNK N   1      32.591  17.409   7.228  0.00  0.00    -0.056 A 
HETATM    7  C   UNK N   1      33.602  17.580   6.275  0.00  0.00     0.007 A 
HETATM    8  C   UNK N   1      33.312  17.495   4.911  0.00  0.00     0.001 A 
HETATM    9  C   UNK N   1      32.007  17.227   4.490  0.00  0.00     0.000 A 
HETATM   10  C   UNK N   1      30.991  17.057   5.433  0.00  0.00     0.001 A 
HETATM   11  C   UNK N   1      31.280  17.149   6.797  0.00  0.00     0.007 A 
ENDBRANCH   5   6
ENDBRANCH   1   5
BRANCH   1  12
HETATM   12  C   UNK N   1      33.387  15.204   9.689  0.00  0.00     0.163 C 
HETATM   13  O   UNK N   1      33.067  14.316   8.912  0.00  0.00    -0.648 OA
BRANCH  12  14
HETATM   14  O   UNK N   1      33.133  15.055  11.003  0.00  0.00    -0.775 OA
HETATM   15  H   UNK N   1      32.274  14.834  11.307  0.00  0.00     0.167 HD
ENDBRANCH  12  14
ENDBRANCH   1  12
TORSDOF 5
ENDMDL
MODEL 7
REMARK VINA RESULT:      -4.8     10.950     12.074
REMARK  5 active torsions:
REMARK  status: ('A' for Active; 'I' for Inactive)
REMARK    1  A    between atoms: C_2  and  N_1 
REMARK    2  A    between atoms: C_2  and  C_3 
REMARK    3  A    between atoms: C_2  and  C_10 
REMARK    4  A    between atoms: C_3  and  C_4 
REMARK    5  A    between atoms: C_10  and  O_11 
ROOT
HETATM    1  C   UNK N   1      20.872  15.933   8.499  0.00  0.00     0.177 C 
ENDROOT
BRANCH   1   2
HETATM    2  N   UNK N   1      21.458  16.124   7.181  0.00  0.00    -0.417 N 
HETATM    3  H   UNK N   1      21.151  16.658   6.368  0.00  0.00     0.150 HD
HETATM    4  H   UNK N   1      22.339  15.631   7.045  0.00  0.00     0.150 HD
ENDBRANCH   1   2
BRANCH   1   5
HETATM    5  C   UNK N   1      20.444  14.470   8.710  0.00  0.00     0.074 C 
BRANCH   5   6
HETATM    6  C   UNK N   1      21.231  13.632   9.682  0.00  0.00    -0.056 A 
HETATM    7  C   UNK N   1      20.526  12.922  10.660  0.00  0.00     0.007 A 
HETATM    8  C   UNK N   1      21.202  12.094  11.560  0.00  0.00     0.001 A 
HETATM    9  C   UNK N   1      22.591  11.963  11.480  0.00  0.00     0.000 A 
HETATM   10  C   UNK N   1      23.304  12.670  10.510  0.00  0.00     0.001 A 
HETATM   11  C   UNK N   1      22.627  13.504   9.614  0.00  0.00     0.007 A 
ENDBRANCH   5   6
ENDBRANCH   1   5
BRANCH   1  12
HETATM   12  C   UNK N   1      19.695  16.863   8.633  0.00  0.00     0.163 C 
HETATM   13  O   UNK N   1      18.557  16.473   8.418  0.00  0.00    -0.648 OA
BRANCH  12  14
HETATM   14  O   UNK N   1      19.900  18.151   8.970  0.00  0.00    -0.775 OA
HETATM   15  H   UNK N   1      20.528  18.383   9.626  0.00  0.00     0.167 HD
ENDBRANCH  12  14
ENDBRANCH   1  12
TORSDOF 5
ENDMDL
MODEL 8
REMARK VINA RESULT:      -4.7     10.033     10.755
REMARK  5 active torsions:
REMARK  status: ('A' for Active; 'I' for Inactive)
REMARK    1  A    between atoms: C_2  and  N_1 
REMARK    2  A    between atoms: C_2  and  C_3 
REMARK    3  A    between atoms: C_2  and  C_10 
REMARK    4  A    between atoms: C_3  and  C_4 
REMARK    5  A    between atoms: C_10  and  O_11 
ROOT
HETATM    1  C   UNK N   1      22.782  12.504  11.005  0.00  0.00     0.177 C 
ENDROOT
BRANCH   1   2
HETATM    2  N   UNK N   1      22.396  11.515  12.000  0.00  0.00    -0.417 N 
HETATM    3  H   UNK N   1      21.739  11.549  12.779  0.00  0.00     0.150 HD
HETATM    4  H   UNK N   1      22.871  10.618  11.898  0.00  0.00     0.150 HD
ENDBRANCH   1   2
BRANCH   1   5
HETATM    5  C   UNK N   1      21.861  12.442   9.775  0.00  0.00     0.074 C 
BRANCH   5   6
HETATM    6  C   UNK N   1      21.485  13.735   9.102  0.00  0.00    -0.056 A 
HETATM    7  C   UNK N   1      22.227  14.138   7.986  0.00  0.00     0.007 A 
HETATM    8  C   UNK N   1      21.893  15.307   7.297  0.00  0.00     0.001 A 
HETATM    9  C   UNK N   1      20.805  16.078   7.716  0.00  0.00     0.000 A 
HETATM   10  C   UNK N   1      20.060  15.686   8.831  0.00  0.00     0.001 A 
HETATM   11  C   UNK N   1      20.399  14.520   9.524  0.00  0.00     0.007 A 
ENDBRANCH   5   6
ENDBRANCH   1   5
BRANCH   1  12
HETATM   12  C   UNK N   1      24.215  12.252  10.618  0.00  0.00     0.163 C 
HETATM   13  O   UNK N   1      24.504  11.842   9.504  0.00  0.00    -0.648 OA
BRANCH  12  14
HETATM   14  O   UNK N   1      25.194  12.455  11.522  0.00  0.00    -0.775 OA
HETATM   15  H   UNK N   1      25.191  12.006  12.345  0.00  0.00     0.167 HD
ENDBRANCH  12  14
ENDBRANCH   1  12
TORSDOF 5
ENDMDL
MODEL 9
REMARK VINA RESULT:      -4.7      3.412      5.201
REMARK  5 active torsions:
REMARK  status: ('A' for Active; 'I' for Inactive)
REMARK    1  A    between atoms: C_2  and  N_1 
REMARK    2  A    between atoms: C_2  and  C_3 
REMARK    3  A    between atoms: C_2  and  C_10 
REMARK    4  A    between atoms: C_3  and  C_4 
REMARK    5  A    between atoms: C_10  and  O_11 
ROOT
HETATM    1  C   UNK N   1      29.647  17.386   9.197  0.00  0.00     0.177 C 
ENDROOT
BRANCH   1   2
HETATM    2  N   UNK N   1      29.864  18.500  10.107  0.00  0.00    -0.417 N 
HETATM    3  H   UNK N   1      29.701  19.503  10.011  0.00  0.00     0.150 HD
HETATM    4  H   UNK N   1      30.252  18.228  11.009  0.00  0.00     0.150 HD
ENDBRANCH   1   2
BRANCH   1   5
HETATM    5  C   UNK N   1      30.665  17.404   8.045  0.00  0.00     0.074 C 
BRANCH   5   6
HETATM    6  C   UNK N   1      32.119  17.190   8.376  0.00  0.00    -0.056 A 
HETATM    7  C   UNK N   1      32.497  15.956   8.916  0.00  0.00     0.007 A 
HETATM    8  C   UNK N   1      33.838  15.687   9.202  0.00  0.00     0.001 A 
HETATM    9  C   UNK N   1      34.814  16.653   8.938  0.00  0.00     0.000 A 
HETATM   10  C   UNK N   1      34.447  17.889   8.403  0.00  0.00     0.001 A 
HETATM   11  C   UNK N   1      33.103  18.159   8.124  0.00  0.00     0.007 A 
ENDBRANCH   5   6
ENDBRANCH   1   5
BRANCH   1  12
HETATM   12  C   UNK N   1      28.238  17.471   8.672  0.00  0.00     0.163 C 
HETATM   13  O   UNK N   1      27.929  16.948   7.612  0.00  0.00    -0.648 OA
BRANCH  12  14
HETATM   14  O   UNK N   1      27.309  18.156   9.366  0.00  0.00    -0.775 OA
HETATM   15  H   UNK N   1      26.717  17.716   9.944  0.00  0.00     0.167 HD
ENDBRANCH  12  14
ENDBRANCH   1  12
TORSDOF 5
ENDMDL
