MODEL 1
REMARK VINA RESULT:      -4.5      0.000      0.000
REMARK  4 active torsions:
REMARK  status: ('A' for Active; 'I' for Inactive)
REMARK    1  A    between atoms: C_2  and  C_4 
REMARK    2  A    between atoms: C_4  and  N_5 
REMARK    3  A    between atoms: C_4  and  C_6 
REMARK       I    between atoms: C_6  and  N_8 
REMARK    4  A    between atoms: N_8  and  O_9 
ROOT
HETATM    1  C   UNK N   1      20.336  18.723   2.344  0.00  0.00     0.172 C 
ENDROOT
BRANCH   1   2
HETATM    2  C   UNK N   1      20.669  18.088   3.711  0.00  0.00     0.009 C 
HETATM    3  C   UNK N   1      19.764  16.895   3.977  0.00  0.00     0.012 C 
HETATM    4  C   UNK N   1      22.100  17.580   3.783  0.00  0.00     0.012 C 
ENDBRANCH   1   2
BRANCH   1   5
HETATM    5  N   UNK N   1      18.988  18.333   1.952  0.00  0.00    -0.418 N 
HETATM    6  H   UNK N   1      18.235  19.011   1.838  0.00  0.00     0.150 HD
HETATM    7  H   UNK N   1      18.790  17.346   1.786  0.00  0.00     0.150 HD
ENDBRANCH   1   5
BRANCH   1   8
HETATM    8  C   UNK N   1      20.530  20.244   2.285  0.00  0.00     0.263 C 
HETATM    9  O   UNK N   1      20.701  20.857   3.324  0.00  0.00    -0.269 OA
HETATM   10  N   UNK N   1      20.598  20.937   1.116  0.00  0.00    -0.236 N 
HETATM   11  H   UNK N   1      20.720  21.913   1.156  0.00  0.00     0.197 HD
BRANCH  10  12
HETATM   12  O   UNK N   1      20.506  20.353  -0.084  0.00  0.00    -0.287 OA
HETATM   13  H   UNK N   1      20.395  19.392  -0.155  0.00  0.00     0.244 HD
ENDBRANCH  10  12
ENDBRANCH   1   8
TORSDOF 4
ENDMDL
MODEL 2
REMARK VINA RESULT:      -4.3     10.219     11.256
REMARK  4 active torsions:
REMARK  status: ('A' for Active; 'I' for Inactive)
REMARK    1  A    between atoms: C_2  and  C_4 
REMARK    2  A    between atoms: C_4  and  N_5 
REMARK    3  A    between atoms: C_4  and  C_6 
REMARK       I    between atoms: C_6  and  N_8 
REMARK    4  A    between atoms: N_8  and  O_9 
ROOT
HETATM    1  C   UNK N   1      22.754  12.534  11.063  0.00  0.00     0.172 C 
ENDROOT
BRANCH   1   2
HETATM    2  C   UNK N   1      21.322  12.492  10.488  0.00  0.00     0.009 C 
HETATM    3  C   UNK N   1      20.321  12.147  11.579  0.00  0.00     0.012 C 
HETATM    4  C   UNK N   1      20.892  13.827   9.901  0.00  0.00     0.012 C 
ENDBRANCH   1   2
BRANCH   1   5
HETATM    5  N   UNK N   1      22.828  11.656  12.223  0.00  0.00    -0.418 N 
HETATM    6  H   UNK N   1      22.000  11.237  12.646  0.00  0.00     0.150 HD
HETATM    7  H   UNK N   1      23.742  11.453  12.628  0.00  0.00     0.150 HD
ENDBRANCH   1   5
BRANCH   1   8
HETATM    8  C   UNK N   1      23.858  12.225  10.042  0.00  0.00     0.263 C 
HETATM    9  O   UNK N   1      23.546  11.770   8.956  0.00  0.00    -0.269 OA
HETATM   10  N   UNK N   1      25.170  12.509  10.264  0.00  0.00    -0.236 N 
HETATM   11  H   UNK N   1      25.824  12.280   9.564  0.00  0.00     0.197 HD
BRANCH  10  12
HETATM   12  O   UNK N   1      25.613  13.086  11.387  0.00  0.00    -0.287 OA
HETATM   13  H   UNK N   1      26.550  13.029  11.630  0.00  0.00     0.244 HD
ENDBRANCH  10  12
ENDBRANCH   1   8
TORSDOF 4
ENDMDL
MODEL 3
REMARK VINA RESULT:      -4.2     13.779     14.736
REMARK  4 active torsions:
REMARK  status: ('A' for Active; 'I' for Inactive)
REMARK    1  A    between atoms: C_2  and  C_4 
REMARK    2  A    between atoms: C_4  and  N_5 
REMARK    3  A    between atoms: C_4  and  C_6 
REMARK       I    between atoms: C_6  and  N_8 
REMARK    4  A    between atoms: N_8  and  O_9 
ROOT
HETATM    1  C   UNK N   1      33.264  18.040   7.831  0.00  0.00     0.172 C 
ENDROOT
BRANCH   1   2
HETATM    2  C   UNK N   1      33.323  16.943   6.747  0.00  0.00     0.009 C 
HETATM    3  C   UNK N   1      32.112  16.028   6.851  0.00  0.00     0.012 C 
HETATM    4  C   UNK N   1      33.324  17.515   5.339  0.00  0.00     0.012 C 
ENDBRANCH   1   2
BRANCH   1   5
HETATM    5  N   UNK N   1      32.120  17.794   8.699  0.00  0.00    -0.418 N 
HETATM    6  H   UNK N   1      31.157  17.896   8.377  0.00  0.00     0.150 HD
HETATM    7  H   UNK N   1      32.287  17.509   9.664  0.00  0.00     0.150 HD
ENDBRANCH   1   5
BRANCH   1   8
HETATM    8  C   UNK N   1      34.561  18.213   8.632  0.00  0.00     0.263 C 
HETATM    9  O   UNK N   1      35.286  19.159   8.383  0.00  0.00    -0.269 OA
HETATM   10  N   UNK N   1      34.904  17.400   9.667  0.00  0.00    -0.236 N 
HETATM   11  H   UNK N   1      35.755  17.569  10.134  0.00  0.00     0.197 HD
BRANCH  10  12
HETATM   12  O   UNK N   1      34.141  16.382  10.080  0.00  0.00    -0.287 OA
HETATM   13  H   UNK N   1      34.533  15.508  10.239  0.00  0.00     0.244 HD
ENDBRANCH  10  12
ENDBRANCH   1   8
TORSDOF 4
ENDMDL
MODEL 4
REMARK VINA RESULT:      -4.1     14.772     15.808
REMARK  4 active torsions:
REMARK  status: ('A' for Active; 'I' for Inactive)
REMARK    1  A    between atoms: C_2  and  C_4 
REMARK    2  A    between atoms: C_4  and  N_5 
REMARK    3  A    between atoms: C_4  and  C_6 
REMARK       I    between atoms: C_6  and  N_8 
REMARK    4  A    between atoms: N_8  and  O_9 
ROOT
HETATM    1  C   UNK N   1      34.076  16.383   8.757  0.00  0.00     0.172 C 
ENDROOT
BRANCH   1   2
HETATM    2  C   UNK N   1      33.578  17.689   8.100  0.00  0.00     0.009 C 
HETATM    3  C   UNK N   1      33.725  17.612   6.589  0.00  0.00     0.012 C 
HETATM    4  C   UNK N   1      32.110  17.961   8.387  0.00  0.00     0.012 C 
ENDBRANCH   1   2
BRANCH   1   5
HETATM    5  N   UNK N   1      34.896  15.651   7.801  0.00  0.00    -0.418 N 
HETATM    6  H   UNK N   1      35.063  15.988   6.853  0.00  0.00     0.150 HD
HETATM    7  H   UNK N   1      35.318  14.768   8.091  0.00  0.00     0.150 HD
ENDBRANCH   1   5
BRANCH   1   8
HETATM    8  C   UNK N   1      34.799  16.581  10.096  0.00  0.00     0.263 C 
HETATM    9  O   UNK N   1      35.616  17.480  10.197  0.00  0.00    -0.269 OA
HETATM   10  N   UNK N   1      34.516  15.847  11.205  0.00  0.00    -0.236 N 
HETATM   11  H   UNK N   1      35.024  16.027  12.030  0.00  0.00     0.197 HD
BRANCH  10  12
HETATM   12  O   UNK N   1      33.579  14.892  11.229  0.00  0.00    -0.287 OA
HETATM   13  H   UNK N   1      33.375  14.385  10.427  0.00  0.00     0.244 HD
ENDBRANCH  10  12
ENDBRANCH   1   8
TORSDOF 4
ENDMDL
MODEL 5
REMARK VINA RESULT:      -4.0     10.172     11.342
REMARK  4 active torsions:
REMARK  status: ('A' for Active; 'I' for Inactive)
REMARK    1  A    between atoms: C_2  and  C_4 
REMARK    2  A    between atoms: C_4  and  N_5 
REMARK    3  A    between atoms: C_4  and  C_6 
REMARK       I    between atoms: C_6  and  N_8 
REMARK    4  A    between atoms: N_8  and  O_9 
ROOT
HETATM    1  C   UNK N   1      22.452  12.037  10.481  0.00  0.00     0.172 C 
ENDROOT
BRANCH   1   2
HETATM    2  C   UNK N   1      22.119  13.451   9.960  0.00  0.00     0.009 C 
HETATM    3  C   UNK N   1      22.611  13.620   8.531  0.00  0.00     0.012 C 
HETATM    4  C   UNK N   1      20.625  13.731   9.948  0.00  0.00     0.012 C 
ENDBRANCH   1   2
BRANCH   1   5
HETATM    5  N   UNK N   1      23.264  11.342   9.491  0.00  0.00    -0.418 N 
HETATM    6  H   UNK N   1      24.185  11.675   9.208  0.00  0.00     0.150 HD
HETATM    7  H   UNK N   1      22.897  10.490   9.065  0.00  0.00     0.150 HD
ENDBRANCH   1   5
BRANCH   1   8
HETATM    8  C   UNK N   1      23.100  12.009  11.872  0.00  0.00     0.263 C 
HETATM    9  O   UNK N   1      22.435  11.644  12.825  0.00  0.00    -0.269 OA
HETATM   10  N   UNK N   1      24.413  12.298  12.083  0.00  0.00    -0.236 N 
HETATM   11  H   UNK N   1      24.759  12.262  13.004  0.00  0.00     0.197 HD
BRANCH  10  12
HETATM   12  O   UNK N   1      25.255  12.629  11.097  0.00  0.00    -0.287 OA
HETATM   13  H   UNK N   1      25.936  12.003  10.803  0.00  0.00     0.244 HD
ENDBRANCH  10  12
ENDBRANCH   1   8
TORSDOF 4
ENDMDL
MODEL 6
REMARK VINA RESULT:      -3.9     20.491     21.404
REMARK  4 active torsions:
REMARK  status: ('A' for Active; 'I' for Inactive)
REMARK    1  A    between atoms: C_2  and  C_4 
REMARK    2  A    between atoms: C_4  and  N_5 
REMARK    3  A    between atoms: C_4  and  C_6 
REMARK       I    between atoms: C_6  and  N_8 
REMARK    4  A    between atoms: N_8  and  O_9 
ROOT
HETATM    1  C   UNK N   1      36.217  12.573  15.767  0.00  0.00     0.172 C 
ENDROOT
BRANCH   1   2
HETATM    2  C   UNK N   1      35.121  12.574  16.855  0.00  0.00     0.009 C 
HETATM    3  C   UNK N   1      35.244  11.339  17.734  0.00  0.00     0.012 C 
HETATM    4  C   UNK N   1      35.214  13.781  17.774  0.00  0.00     0.012 C 
ENDBRANCH   1   2
BRANCH   1   5
HETATM    5  N   UNK N   1      36.272  11.256  15.146  0.00  0.00    -0.418 N 
HETATM    6  H   UNK N   1      35.482  10.612  15.159  0.00  0.00     0.150 HD
HETATM    7  H   UNK N   1      37.134  10.967  14.683  0.00  0.00     0.150 HD
ENDBRANCH   1   5
BRANCH   1   8
HETATM    8  C   UNK N   1      36.078  13.690  14.724  0.00  0.00     0.263 C 
HETATM    9  O   UNK N   1      35.174  13.627  13.910  0.00  0.00    -0.269 OA
HETATM   10  N   UNK N   1      36.873  14.794  14.713  0.00  0.00    -0.236 N 
HETATM   11  H   UNK N   1      36.728  15.469  14.010  0.00  0.00     0.197 HD
BRANCH  10  12
HETATM   12  O   UNK N   1      37.842  15.005  15.610  0.00  0.00    -0.287 OA
HETATM   13  H   UNK N   1      38.443  14.286  15.862  0.00  0.00     0.244 HD
ENDBRANCH  10  12
ENDBRANCH   1   8
TORSDOF 4
ENDMDL
MODEL 7
REMARK VINA RESULT:      -3.9      9.867     10.894
REMARK  4 active torsions:
REMARK  status: ('A' for Active; 'I' for Inactive)
REMARK    1  A    between atoms: C_2  and  C_4 
REMARK    2  A    between atoms: C_4  and  N_5 
REMARK    3  A    between atoms: C_4  and  C_6 
REMARK       I    between atoms: C_6  and  N_8 
REMARK    4  A    between atoms: N_8  and  O_9 
ROOT
HETATM    1  C   UNK N   1      23.890  12.609  10.243  0.00  0.00     0.172 C 
ENDROOT
BRANCH   1   2
HETATM    2  C   UNK N   1      22.874  11.808  11.085  0.00  0.00     0.009 C 
HETATM    3  C   UNK N   1      23.219  11.900  12.563  0.00  0.00     0.012 C 
HETATM    4  C   UNK N   1      21.454  12.327  10.931  0.00  0.00     0.012 C 
ENDBRANCH   1   2
BRANCH   1   5
HETATM    5  N   UNK N   1      25.140  12.723  10.985  0.00  0.00    -0.418 N 
HETATM    6  H   UNK N   1      25.341  12.156  11.808  0.00  0.00     0.150 HD
HETATM    7  H   UNK N   1      25.839  13.396  10.669  0.00  0.00     0.150 HD
ENDBRANCH   1   5
BRANCH   1   8
HETATM    8  C   UNK N   1      24.115  12.061   8.828  0.00  0.00     0.263 C 
HETATM    9  O   UNK N   1      23.605  10.999   8.519  0.00  0.00    -0.269 OA
HETATM   10  N   UNK N   1      24.797  12.745   7.869  0.00  0.00    -0.236 N 
HETATM   11  H   UNK N   1      24.905  12.329   6.983  0.00  0.00     0.197 HD
BRANCH  10  12
HETATM   12  O   UNK N   1      25.327  13.956   8.074  0.00  0.00    -0.287 OA
HETATM   13  H   UNK N   1      25.422  14.581   7.338  0.00  0.00     0.244 HD
ENDBRANCH  10  12
ENDBRANCH   1   8
TORSDOF 4
ENDMDL
MODEL 8
REMARK VINA RESULT:      -3.9     23.395     24.367
REMARK  4 active torsions:
REMARK  status: ('A' for Active; 'I' for Inactive)
REMARK    1  A    between atoms: C_2  and  C_4 
REMARK    2  A    between atoms: C_4  and  N_5 
REMARK    3  A    between atoms: C_4  and  C_6 
REMARK       I    between atoms: C_6  and  N_8 
REMARK    4  A    between atoms: N_8  and  O_9 
ROOT
HETATM    1  C   UNK N   1      44.390  22.071   3.707  0.00  0.00     0.172 C 
ENDROOT
BRANCH   1   2
HETATM    2  C   UNK N   1      44.271  20.786   2.860  0.00  0.00     0.009 C 
HETATM    3  C   UNK N   1      45.407  19.828   3.188  0.00  0.00     0.012 C 
HETATM    4  C   UNK N   1      42.974  20.037   3.118  0.00  0.00     0.012 C 
ENDBRANCH   1   2
BRANCH   1   5
HETATM    5  N   UNK N   1      45.739  22.163   4.250  0.00  0.00    -0.418 N 
HETATM    6  H   UNK N   1      46.480  21.514   3.986  0.00  0.00     0.150 HD
HETATM    7  H   UNK N   1      45.950  22.903   4.919  0.00  0.00     0.150 HD
ENDBRANCH   1   5
BRANCH   1   8
HETATM    8  C   UNK N   1      43.982  23.355   2.973  0.00  0.00     0.263 C 
HETATM    9  O   UNK N   1      42.806  23.536   2.710  0.00  0.00    -0.269 OA
HETATM   10  N   UNK N   1      44.864  24.345   2.668  0.00  0.00    -0.236 N 
HETATM   11  H   UNK N   1      44.531  25.140   2.192  0.00  0.00     0.197 HD
BRANCH  10  12
HETATM   12  O   UNK N   1      46.163  24.288   2.984  0.00  0.00    -0.287 OA
HETATM   13  H   UNK N   1      46.689  23.505   2.758  0.00  0.00     0.244 HD
ENDBRANCH  10  12
ENDBRANCH   1   8
TORSDOF 4
ENDMDL
MODEL 9
REMARK VINA RESULT:      -3.8     21.842     22.717
REMARK  4 active torsions:
REMARK  status: ('A' for Active; 'I' for Inactive)
REMARK    1  A    between atoms: C_2  and  C_4 
REMARK    2  A    between atoms: C_4  and  N_5 
REMARK    3  A    between atoms: C_4  and  C_6 
REMARK       I    between atoms: C_6  and  N_8 
REMARK    4  A    between atoms: N_8  and  O_9 
ROOT
HETATM    1  C   UNK N   1      42.848  22.715   2.090  0.00  0.00     0.172 C 
ENDROOT
BRANCH   1   2
HETATM    2  C   UNK N   1      41.334  23.006   2.008  0.00  0.00     0.009 C 
HETATM    3  C   UNK N   1      41.058  24.100   0.988  0.00  0.00     0.012 C 
HETATM    4  C   UNK N   1      40.530  21.789   1.578  0.00  0.00     0.012 C 
ENDBRANCH   1   2
BRANCH   1   5
HETATM    5  N   UNK N   1      43.585  23.901   1.675  0.00  0.00    -0.418 N 
HETATM    6  H   UNK N   1      43.259  24.514   0.928  0.00  0.00     0.150 HD
HETATM    7  H   UNK N   1      44.460  24.127   2.150  0.00  0.00     0.150 HD
ENDBRANCH   1   5
BRANCH   1   8
HETATM    8  C   UNK N   1      43.323  22.196   3.454  0.00  0.00     0.263 C 
HETATM    9  O   UNK N   1      43.531  21.003   3.590  0.00  0.00    -0.269 OA
HETATM   10  N   UNK N   1      43.598  23.017   4.502  0.00  0.00    -0.236 N 
HETATM   11  H   UNK N   1      43.896  22.613   5.349  0.00  0.00     0.197 HD
BRANCH  10  12
HETATM   12  O   UNK N   1      43.484  24.349   4.436  0.00  0.00    -0.287 OA
HETATM   13  H   UNK N   1      42.610  24.763   4.360  0.00  0.00     0.244 HD
ENDBRANCH  10  12
ENDBRANCH   1   8
TORSDOF 4
ENDMDL
