MODEL 1
REMARK VINA RESULT:      -6.5      0.000      0.000
REMARK WARNING: 32 MAX_TORS EXCEEDED!!!
REMARK  33 active torsions:
REMARK  status: ('A' for Active; 'I' for Inactive)
REMARK    1  A    between atoms: C_1  and  N_38 
REMARK    2  A    between atoms: C_3  and  O_6 
REMARK    3  A    between atoms: C_4  and  C_32 
REMARK    4  A    between atoms: C_5  and  O_33 
REMARK    5  A    between atoms: N_9  and  C_7 
REMARK    6  A    between atoms: C_7  and  C_8 
REMARK    7  A    between atoms: C_8  and  S_51 
REMARK       I    between atoms: C_10  and  N_9 
REMARK    8  A    between atoms: C_13  and  C_10 
REMARK    9  A    between atoms: C_12  and  N_14 
REMARK   10  A    between atoms: C_13  and  C_12 
REMARK       I    between atoms: C_16  and  N_14 
REMARK   11  A    between atoms: C_16  and  C_21 
REMARK   12  A    between atoms: C_19  and  C_17 
REMARK   13  A    between atoms: C_17  and  O_23 
REMARK   14  A    between atoms: C_21  and  C_19 
REMARK   15  A    between atoms: C_21  and  O_22 
REMARK   16  A    between atoms: O_23  and  P_30 
REMARK   17  A    between atoms: P_30  and  O_24 
REMARK   18  A    between atoms: O_24  and  P_31 
REMARK   19  A    between atoms: P_31  and  O_25 
REMARK   20  A    between atoms: C_32  and  O_25 
REMARK   21  A    between atoms: P_30  and  O_27 
REMARK   22  A    between atoms: P_31  and  O_29 
REMARK   23  A    between atoms: O_33  and  P_36 
REMARK   24  A    between atoms: P_36  and  O_34 
REMARK   25  A    between atoms: P_36  and  O_35 
REMARK   26  A    between atoms: N_50  and  C_46 
REMARK   27  A    between atoms: S_51  and  C_59 
REMARK   28  A    between atoms: C_59  and  C_52 
REMARK   29  A    between atoms: C_52  and  C_53 
REMARK   30  A    between atoms: C_53  and  C_54 
REMARK   31  A    between atoms: C_54  and  C_55 
REMARK   32  A    between atoms: C_55  and  C_56 
REMARK   33  A    between atoms: C_56  and  C_57 
ROOT
HETATM    1  O   UNK N   1      23.193  14.158   3.016  0.00  0.00    -0.195 OA
ENDROOT
BRANCH   1   2
HETATM    2  P   UNK N   1      21.901  15.336   3.057  0.00  0.00     0.401 P 
HETATM    3  O   UNK N   1      23.155  16.245   2.939  0.00  0.00    -0.631 OA
BRANCH   2   4
HETATM    4  O   UNK N   1      21.481  16.743   3.989  0.00  0.00    -0.296 OA
BRANCH   4   5
HETATM    5  C   UNK N   1      20.246  17.145   3.446  0.00  0.00     0.192 C 
BRANCH   5   6
HETATM    6  C   UNK N   1      20.268  18.537   2.776  0.00  0.00     0.009 C 
HETATM    7  C   UNK N   1      20.773  18.486   1.343  0.00  0.00     0.020 C 
HETATM    8  C   UNK N   1      18.819  18.986   2.719  0.00  0.00     0.020 C 
BRANCH   6   9
HETATM    9  C   UNK N   1      21.031  19.595   3.604  0.00  0.00     0.219 C 
BRANCH   9  10
HETATM   10  C   UNK N   1      22.425  19.993   3.200  0.00  0.00     0.247 C 
HETATM   11  N   UNK N   1      23.490  19.205   3.487  0.00  0.00    -0.358 N 
HETATM   12  H   UNK N   1      23.324  18.293   3.819  0.00  0.00     0.162 HD
HETATM   13  O   UNK N   1      22.586  21.072   2.651  0.00  0.00    -0.271 OA
BRANCH  11  14
HETATM   14  C   UNK N   1      24.858  19.644   3.330  0.00  0.00     0.132 C 
BRANCH  14  15
HETATM   15  C   UNK N   1      25.615  19.764   4.646  0.00  0.00     0.122 C 
BRANCH  15  16
HETATM   16  C   UNK N   1      26.072  18.397   5.085  0.00  0.00     0.219 C 
HETATM   17  N   UNK N   1      27.007  18.230   6.055  0.00  0.00    -0.360 N 
HETATM   18  H   UNK N   1      27.298  17.317   6.283  0.00  0.00     0.162 HD
HETATM   19  O   UNK N   1      25.598  17.414   4.539  0.00  0.00    -0.274 OA
BRANCH  17  20
HETATM   20  C   UNK N   1      27.590  19.343   6.762  0.00  0.00     0.133 C 
BRANCH  20  21
HETATM   21  C   UNK N   1      28.024  18.903   8.147  0.00  0.00     0.102 C 
BRANCH  21  22
HETATM   22  S   UNK N   1      29.084  17.439   7.984  0.00  0.00    -0.091 SA
BRANCH  22  23
HETATM   23  C   UNK N   1      30.394  18.169   8.956  0.00  0.00     0.186 C 
HETATM   24  O   UNK N   1      30.123  18.996   9.815  0.00  0.00    -0.286 OA
BRANCH  23  25
HETATM   25  C   UNK N   1      31.815  17.756   8.693  0.00  0.00     0.091 C 
BRANCH  25  26
HETATM   26  C   UNK N   1      31.963  16.313   8.228  0.00  0.00     0.008 C 
BRANCH  26  27
HETATM   27  C   UNK N   1      32.220  16.251   6.732  0.00  0.00     0.000 C 
BRANCH  27  28
HETATM   28  C   UNK N   1      33.173  17.352   6.304  0.00  0.00     0.000 C 
BRANCH  28  29
HETATM   29  C   UNK N   1      33.458  17.234   4.821  0.00  0.00    -0.000 C 
BRANCH  29  30
HETATM   30  C   UNK N   1      32.280  17.752   4.028  0.00  0.00    -0.005 C 
HETATM   31  C   UNK N   1      32.041  16.837   2.848  0.00  0.00     0.005 C 
ENDBRANCH  29  30
ENDBRANCH  28  29
ENDBRANCH  27  28
ENDBRANCH  26  27
ENDBRANCH  25  26
ENDBRANCH  23  25
ENDBRANCH  22  23
ENDBRANCH  21  22
ENDBRANCH  20  21
ENDBRANCH  17  20
ENDBRANCH  15  16
ENDBRANCH  14  15
ENDBRANCH  11  14
ENDBRANCH   9  10
BRANCH   9  32
HETATM   32  O   UNK N   1      20.252  20.733   3.838  0.00  0.00    -0.385 OA
HETATM   33  H   UNK N   1      19.311  20.896   4.006  0.00  0.00     0.210 HD
ENDBRANCH   9  32
ENDBRANCH   6   9
ENDBRANCH   5   6
ENDBRANCH   4   5
ENDBRANCH   2   4
BRANCH   2  34
HETATM   34  O   UNK N   1      22.021  14.800   4.707  0.00  0.00    -0.307 OA
HETATM   35  H   UNK N   1      21.812  13.901   5.008  0.00  0.00     0.222 HD
ENDBRANCH   2  34
ENDBRANCH   1   2
BRANCH   1  36
HETATM   36  P   UNK N   1      22.416  12.585   3.172  0.00  0.00     0.401 P 
HETATM   37  O   UNK N   1      20.878  12.725   2.991  0.00  0.00    -0.631 OA
BRANCH  36  38
HETATM   38  O   UNK N   1      22.680  11.803   4.699  0.00  0.00    -0.294 OA
BRANCH  38  39
HETATM   39  C   UNK N   1      24.058  11.621   4.822  0.00  0.00     0.215 C 
BRANCH  39  40
HETATM   40  C   UNK N   1      24.509  12.359   6.063  0.00  0.00     0.180 C 
HETATM   41  O   UNK N   1      23.433  12.868   6.801  0.00  0.00    -0.353 OA
HETATM   42  C   UNK N   1      24.027  13.839   7.642  0.00  0.00     0.262 C 
HETATM   43  C   UNK N   1      25.415  14.150   7.103  0.00  0.00     0.199 C 
HETATM   44  C   UNK N   1      25.385  13.535   5.742  0.00  0.00     0.197 C 
BRANCH  42  45
HETATM   45  N   UNK N   1      24.119  13.346   9.018  0.00  0.00    -0.297 N 
HETATM   46  C   UNK N   1      23.123  12.927   9.808  0.00  0.00     0.142 A 
HETATM   47  C   UNK N   1      23.623  12.556  11.002  0.00  0.00     0.122 A 
HETATM   48  N   UNK N   1      21.800  12.873   9.523  0.00  0.00    -0.336 N 
HETATM   49  C   UNK N   1      22.778  12.091  11.995  0.00  0.00     0.131 A 
HETATM   50  N   UNK N   1      24.959  12.724  11.009  0.00  0.00    -0.346 N 
HETATM   51  N   UNK N   1      21.440  12.033  11.723  0.00  0.00    -0.337 N 
HETATM   52  C   UNK N   1      20.951  12.421  10.499  0.00  0.00     0.183 A 
ATOM     53  HN  UNK N   1      20.796  11.697  12.438  1.00  0.00     0.168 HD
HETATM   54  C   UNK N   1      25.244  13.217   9.772  0.00  0.00     0.188 A 
ATOM     55  HN  UNK N   1      25.610  12.527  11.770  1.00  0.00     0.167 HD
ATOM     56  HN  UNK N   1      21.446  13.160   8.611  1.00  0.00     0.168 HD
BRANCH  49  57
HETATM   57  N   UNK N   1      23.274  11.691  13.252  0.00  0.00    -0.383 N 
HETATM   58  H   UNK N   1      24.114  11.199  13.400  0.00  0.00     0.157 HD
HETATM   59  H   UNK N   1      22.738  11.921  14.046  0.00  0.00     0.157 HD
ENDBRANCH  49  57
ENDBRANCH  42  45
BRANCH  43  60
HETATM   60  O   UNK N   1      25.602  15.529   7.020  0.00  0.00    -0.388 OA
HETATM   61  H   UNK N   1      25.906  16.147   7.704  0.00  0.00     0.210 HD
ENDBRANCH  43  60
BRANCH  44  62
HETATM   62  O   UNK N   1      26.658  13.113   5.328  0.00  0.00    -0.286 OA
BRANCH  62  63
HETATM   63  P   UNK N   1      27.262  14.285   4.179  0.00  0.00     0.391 P 
HETATM   64  O   UNK N   1      28.315  13.613   3.254  0.00  0.00    -0.632 OA
BRANCH  63  65
HETATM   65  O   UNK N   1      28.057  15.601   4.981  0.00  0.00    -0.307 OA
HETATM   66  H   UNK N   1      27.834  16.542   5.053  0.00  0.00     0.222 HD
ENDBRANCH  63  65
BRANCH  63  67
HETATM   67  O   UNK N   1      25.978  14.876   3.174  0.00  0.00    -0.307 OA
HETATM   68  H   UNK N   1      25.153  15.201   3.566  0.00  0.00     0.222 HD
ENDBRANCH  63  67
ENDBRANCH  62  63
ENDBRANCH  44  62
ENDBRANCH  39  40
ENDBRANCH  38  39
ENDBRANCH  36  38
BRANCH  36  69
HETATM   69  O   UNK N   1      22.962  11.526   1.910  0.00  0.00    -0.307 OA
HETATM   70  H   UNK N   1      22.858  10.978   1.116  0.00  0.00     0.222 HD
ENDBRANCH  36  69
ENDBRANCH   1  36
TORSDOF 33
ENDMDL
MODEL 2
REMARK VINA RESULT:      -6.2      8.888     14.648
REMARK WARNING: 32 MAX_TORS EXCEEDED!!!
REMARK  33 active torsions:
REMARK  status: ('A' for Active; 'I' for Inactive)
REMARK    1  A    between atoms: C_1  and  N_38 
REMARK    2  A    between atoms: C_3  and  O_6 
REMARK    3  A    between atoms: C_4  and  C_32 
REMARK    4  A    between atoms: C_5  and  O_33 
REMARK    5  A    between atoms: N_9  and  C_7 
REMARK    6  A    between atoms: C_7  and  C_8 
REMARK    7  A    between atoms: C_8  and  S_51 
REMARK       I    between atoms: C_10  and  N_9 
REMARK    8  A    between atoms: C_13  and  C_10 
REMARK    9  A    between atoms: C_12  and  N_14 
REMARK   10  A    between atoms: C_13  and  C_12 
REMARK       I    between atoms: C_16  and  N_14 
REMARK   11  A    between atoms: C_16  and  C_21 
REMARK   12  A    between atoms: C_19  and  C_17 
REMARK   13  A    between atoms: C_17  and  O_23 
REMARK   14  A    between atoms: C_21  and  C_19 
REMARK   15  A    between atoms: C_21  and  O_22 
REMARK   16  A    between atoms: O_23  and  P_30 
REMARK   17  A    between atoms: P_30  and  O_24 
REMARK   18  A    between atoms: O_24  and  P_31 
REMARK   19  A    between atoms: P_31  and  O_25 
REMARK   20  A    between atoms: C_32  and  O_25 
REMARK   21  A    between atoms: P_30  and  O_27 
REMARK   22  A    between atoms: P_31  and  O_29 
REMARK   23  A    between atoms: O_33  and  P_36 
REMARK   24  A    between atoms: P_36  and  O_34 
REMARK   25  A    between atoms: P_36  and  O_35 
REMARK   26  A    between atoms: N_50  and  C_46 
REMARK   27  A    between atoms: S_51  and  C_59 
REMARK   28  A    between atoms: C_59  and  C_52 
REMARK   29  A    between atoms: C_52  and  C_53 
REMARK   30  A    between atoms: C_53  and  C_54 
REMARK   31  A    between atoms: C_54  and  C_55 
REMARK   32  A    between atoms: C_55  and  C_56 
REMARK   33  A    between atoms: C_56  and  C_57 
ROOT
HETATM    1  O   UNK N   1      34.297  16.073   9.203  0.00  0.00    -0.195 OA
ENDROOT
BRANCH   1   2
HETATM    2  P   UNK N   1      35.280  16.358  10.621  0.00  0.00     0.401 P 
HETATM    3  O   UNK N   1      36.100  15.266   9.883  0.00  0.00    -0.631 OA
BRANCH   2   4
HETATM    4  O   UNK N   1      35.970  15.418  11.910  0.00  0.00    -0.296 OA
BRANCH   4   5
HETATM    5  C   UNK N   1      35.784  14.088  11.489  0.00  0.00     0.192 C 
BRANCH   5   6
HETATM    6  C   UNK N   1      35.883  13.041  12.621  0.00  0.00     0.009 C 
HETATM    7  C   UNK N   1      34.851  11.934  12.482  0.00  0.00     0.020 C 
HETATM    8  C   UNK N   1      37.248  12.397  12.463  0.00  0.00     0.020 C 
BRANCH   6   9
HETATM    9  C   UNK N   1      35.847  13.671  14.032  0.00  0.00     0.219 C 
BRANCH   9  10
HETATM   10  C   UNK N   1      35.255  12.896  15.178  0.00  0.00     0.247 C 
HETATM   11  N   UNK N   1      35.953  11.908  15.791  0.00  0.00    -0.358 N 
HETATM   12  H   UNK N   1      36.910  11.812  15.585  0.00  0.00     0.162 HD
HETATM   13  O   UNK N   1      34.106  13.140  15.513  0.00  0.00    -0.271 OA
BRANCH  11  14
HETATM   14  C   UNK N   1      35.353  10.989  16.730  0.00  0.00     0.132 C 
BRANCH  14  15
HETATM   15  C   UNK N   1      36.145  10.833  18.021  0.00  0.00     0.122 C 
BRANCH  15  16
HETATM   16  C   UNK N   1      35.549  11.723  19.082  0.00  0.00     0.219 C 
HETATM   17  N   UNK N   1      35.646  11.427  20.404  0.00  0.00    -0.360 N 
HETATM   18  H   UNK N   1      35.211  12.023  21.057  0.00  0.00     0.162 HD
HETATM   19  O   UNK N   1      34.950  12.729  18.738  0.00  0.00    -0.274 OA
BRANCH  17  20
HETATM   20  C   UNK N   1      36.362  10.273  20.885  0.00  0.00     0.133 C 
BRANCH  20  21
HETATM   21  C   UNK N   1      35.399   9.122  21.102  0.00  0.00     0.102 C 
BRANCH  21  22
HETATM   22  S   UNK N   1      34.684   9.273  22.764  0.00  0.00    -0.091 SA
BRANCH  22  23
HETATM   23  C   UNK N   1      33.085   9.758  22.128  0.00  0.00     0.186 C 
HETATM   24  O   UNK N   1      32.824  10.944  21.987  0.00  0.00    -0.286 OA
BRANCH  23  25
HETATM   25  C   UNK N   1      32.083   8.693  21.784  0.00  0.00     0.091 C 
BRANCH  25  26
HETATM   26  C   UNK N   1      31.415   8.889  20.428  0.00  0.00     0.008 C 
BRANCH  26  27
HETATM   27  C   UNK N   1      30.646   7.644  20.020  0.00  0.00     0.000 C 
BRANCH  27  28
HETATM   28  C   UNK N   1      30.945   6.494  20.963  0.00  0.00     0.000 C 
BRANCH  28  29
HETATM   29  C   UNK N   1      31.259   5.245  20.165  0.00  0.00    -0.000 C 
BRANCH  29  30
HETATM   30  C   UNK N   1      32.323   5.546  19.135  0.00  0.00    -0.005 C 
HETATM   31  C   UNK N   1      32.221   4.537  18.013  0.00  0.00     0.005 C 
ENDBRANCH  29  30
ENDBRANCH  28  29
ENDBRANCH  27  28
ENDBRANCH  26  27
ENDBRANCH  25  26
ENDBRANCH  23  25
ENDBRANCH  22  23
ENDBRANCH  21  22
ENDBRANCH  20  21
ENDBRANCH  17  20
ENDBRANCH  15  16
ENDBRANCH  14  15
ENDBRANCH  11  14
ENDBRANCH   9  10
BRANCH   9  32
HETATM   32  O   UNK N   1      37.089  14.200  14.397  0.00  0.00    -0.385 OA
HETATM   33  H   UNK N   1      37.936  13.824  14.686  0.00  0.00     0.210 HD
ENDBRANCH   9  32
ENDBRANCH   6   9
ENDBRANCH   5   6
ENDBRANCH   4   5
ENDBRANCH   2   4
BRANCH   2  34
HETATM   34  O   UNK N   1      33.940  15.430  11.229  0.00  0.00    -0.307 OA
HETATM   35  H   UNK N   1      34.020  14.549  11.628  0.00  0.00     0.222 HD
ENDBRANCH   2  34
ENDBRANCH   1   2
BRANCH   1  36
HETATM   36  P   UNK N   1      34.247  17.604   8.334  0.00  0.00     0.401 P 
HETATM   37  O   UNK N   1      32.855  18.275   8.509  0.00  0.00    -0.631 OA
BRANCH  36  38
HETATM   38  O   UNK N   1      34.537  17.470   6.628  0.00  0.00    -0.294 OA
BRANCH  38  39
HETATM   39  C   UNK N   1      34.119  16.194   6.250  0.00  0.00     0.215 C 
BRANCH  39  40
HETATM   40  C   UNK N   1      32.742  16.325   5.637  0.00  0.00     0.180 C 
HETATM   41  O   UNK N   1      31.721  16.047   6.555  0.00  0.00    -0.353 OA
HETATM   42  C   UNK N   1      30.588  15.809   5.742  0.00  0.00     0.262 C 
HETATM   43  C   UNK N   1      31.066  15.582   4.315  0.00  0.00     0.199 C 
HETATM   44  C   UNK N   1      32.536  15.381   4.489  0.00  0.00     0.197 C 
BRANCH  42  45
HETATM   45  N   UNK N   1      29.668  16.949   5.790  0.00  0.00    -0.297 N 
HETATM   46  C   UNK N   1      29.128  17.522   6.872  0.00  0.00     0.142 A 
HETATM   47  C   UNK N   1      28.334  18.540   6.491  0.00  0.00     0.122 A 
HETATM   48  N   UNK N   1      29.297  17.176   8.171  0.00  0.00    -0.336 N 
HETATM   49  C   UNK N   1      27.655  19.285   7.440  0.00  0.00     0.131 A 
HETATM   50  N   UNK N   1      28.346  18.651   5.149  0.00  0.00    -0.346 N 
HETATM   51  N   UNK N   1      27.814  18.946   8.754  0.00  0.00    -0.337 N 
HETATM   52  C   UNK N   1      28.626  17.900   9.120  0.00  0.00     0.183 A 
ATOM     53  HN  UNK N   1      27.323  19.477   9.473  1.00  0.00     0.168 HD
HETATM   54  C   UNK N   1      29.176  17.653   4.736  0.00  0.00     0.188 A 
ATOM     55  HN  UNK N   1      27.846  19.328   4.573  1.00  0.00     0.167 HD
ATOM     56  HN  UNK N   1      29.904  16.400   8.434  1.00  0.00     0.168 HD
BRANCH  49  57
HETATM   57  N   UNK N   1      26.821  20.360   7.071  0.00  0.00    -0.383 N 
HETATM   58  H   UNK N   1      26.686  21.179   7.599  0.00  0.00     0.157 HD
HETATM   59  H   UNK N   1      26.337  20.286   6.217  0.00  0.00     0.157 HD
ENDBRANCH  49  57
ENDBRANCH  42  45
BRANCH  43  60
HETATM   60  O   UNK N   1      30.468  14.439   3.784  0.00  0.00    -0.388 OA
HETATM   61  H   UNK N   1      29.707  14.370   3.186  0.00  0.00     0.210 HD
ENDBRANCH  43  60
BRANCH  44  62
HETATM   62  O   UNK N   1      33.260  15.798   3.361  0.00  0.00    -0.286 OA
BRANCH  62  63
HETATM   63  P   UNK N   1      33.964  14.378   2.623  0.00  0.00     0.391 P 
HETATM   64  O   UNK N   1      34.998  13.744   3.597  0.00  0.00    -0.632 OA
BRANCH  63  65
HETATM   65  O   UNK N   1      34.818  14.782   1.169  0.00  0.00    -0.307 OA
HETATM   66  H   UNK N   1      35.067  15.635   0.783  0.00  0.00     0.222 HD
ENDBRANCH  63  65
BRANCH  63  67
HETATM   67  O   UNK N   1      32.746  13.188   2.299  0.00  0.00    -0.307 OA
HETATM   68  H   UNK N   1      31.994  13.074   2.901  0.00  0.00     0.222 HD
ENDBRANCH  63  67
ENDBRANCH  62  63
ENDBRANCH  44  62
ENDBRANCH  39  40
ENDBRANCH  38  39
ENDBRANCH  36  38
BRANCH  36  69
HETATM   69  O   UNK N   1      35.408  18.705   9.005  0.00  0.00    -0.307 OA
HETATM   70  H   UNK N   1      36.301  19.017   9.220  0.00  0.00     0.222 HD
ENDBRANCH  36  69
ENDBRANCH   1  36
TORSDOF 33
ENDMDL
MODEL 3
REMARK VINA RESULT:      -6.2      5.479      9.941
REMARK WARNING: 32 MAX_TORS EXCEEDED!!!
REMARK  33 active torsions:
REMARK  status: ('A' for Active; 'I' for Inactive)
REMARK    1  A    between atoms: C_1  and  N_38 
REMARK    2  A    between atoms: C_3  and  O_6 
REMARK    3  A    between atoms: C_4  and  C_32 
REMARK    4  A    between atoms: C_5  and  O_33 
REMARK    5  A    between atoms: N_9  and  C_7 
REMARK    6  A    between atoms: C_7  and  C_8 
REMARK    7  A    between atoms: C_8  and  S_51 
REMARK       I    between atoms: C_10  and  N_9 
REMARK    8  A    between atoms: C_13  and  C_10 
REMARK    9  A    between atoms: C_12  and  N_14 
REMARK   10  A    between atoms: C_13  and  C_12 
REMARK       I    between atoms: C_16  and  N_14 
REMARK   11  A    between atoms: C_16  and  C_21 
REMARK   12  A    between atoms: C_19  and  C_17 
REMARK   13  A    between atoms: C_17  and  O_23 
REMARK   14  A    between atoms: C_21  and  C_19 
REMARK   15  A    between atoms: C_21  and  O_22 
REMARK   16  A    between atoms: O_23  and  P_30 
REMARK   17  A    between atoms: P_30  and  O_24 
REMARK   18  A    between atoms: O_24  and  P_31 
REMARK   19  A    between atoms: P_31  and  O_25 
REMARK   20  A    between atoms: C_32  and  O_25 
REMARK   21  A    between atoms: P_30  and  O_27 
REMARK   22  A    between atoms: P_31  and  O_29 
REMARK   23  A    between atoms: O_33  and  P_36 
REMARK   24  A    between atoms: P_36  and  O_34 
REMARK   25  A    between atoms: P_36  and  O_35 
REMARK   26  A    between atoms: N_50  and  C_46 
REMARK   27  A    between atoms: S_51  and  C_59 
REMARK   28  A    between atoms: C_59  and  C_52 
REMARK   29  A    between atoms: C_52  and  C_53 
REMARK   30  A    between atoms: C_53  and  C_54 
REMARK   31  A    between atoms: C_54  and  C_55 
REMARK   32  A    between atoms: C_55  and  C_56 
REMARK   33  A    between atoms: C_56  and  C_57 
ROOT
HETATM    1  O   UNK N   1      30.797  16.304   7.203  0.00  0.00    -0.195 OA
ENDROOT
BRANCH   1   2
HETATM    2  P   UNK N   1      29.679  16.666   5.908  0.00  0.00     0.401 P 
HETATM    3  O   UNK N   1      30.966  17.390   5.426  0.00  0.00    -0.631 OA
BRANCH   2   4
HETATM    4  O   UNK N   1      29.078  18.081   5.094  0.00  0.00    -0.296 OA
BRANCH   4   5
HETATM    5  C   UNK N   1      28.006  18.500   5.903  0.00  0.00     0.192 C 
BRANCH   5   6
HETATM    6  C   UNK N   1      26.922  19.310   5.156  0.00  0.00     0.009 C 
HETATM    7  C   UNK N   1      26.295  20.386   6.028  0.00  0.00     0.020 C 
HETATM    8  C   UNK N   1      27.648  20.021   4.029  0.00  0.00     0.020 C 
BRANCH   6   9
HETATM    9  C   UNK N   1      25.845  18.417   4.501  0.00  0.00     0.219 C 
BRANCH   9  10
HETATM   10  C   UNK N   1      24.520  19.014   4.110  0.00  0.00     0.247 C 
HETATM   11  N   UNK N   1      23.361  18.566   4.653  0.00  0.00    -0.358 N 
HETATM   12  H   UNK N   1      23.409  17.958   5.425  0.00  0.00     0.162 HD
HETATM   13  O   UNK N   1      24.504  19.881   3.250  0.00  0.00    -0.271 OA
BRANCH  11  14
HETATM   14  C   UNK N   1      22.061  18.940   4.147  0.00  0.00     0.132 C 
BRANCH  14  15
HETATM   15  C   UNK N   1      21.483  17.943   3.152  0.00  0.00     0.122 C 
BRANCH  15  16
HETATM   16  C   UNK N   1      19.978  18.038   3.168  0.00  0.00     0.219 C 
HETATM   17  N   UNK N   1      19.197  16.988   3.527  0.00  0.00    -0.360 N 
HETATM   18  H   UNK N   1      18.218  17.089   3.489  0.00  0.00     0.162 HD
HETATM   19  O   UNK N   1      19.451  19.086   2.832  0.00  0.00    -0.274 OA
BRANCH  17  20
HETATM   20  C   UNK N   1      19.750  15.729   3.962  0.00  0.00     0.133 C 
BRANCH  20  21
HETATM   21  C   UNK N   1      19.638  14.705   2.850  0.00  0.00     0.102 C 
BRANCH  21  22
HETATM   22  S   UNK N   1      21.097  13.627   2.908  0.00  0.00    -0.091 SA
BRANCH  22  23
HETATM   23  C   UNK N   1      21.626  14.105   1.269  0.00  0.00     0.186 C 
HETATM   24  O   UNK N   1      21.396  15.236   0.864  0.00  0.00    -0.286 OA
BRANCH  23  25
HETATM   25  C   UNK N   1      22.341  13.100   0.410  0.00  0.00     0.091 C 
BRANCH  25  26
HETATM   26  C   UNK N   1      23.780  13.481   0.083  0.00  0.00     0.008 C 
BRANCH  26  27
HETATM   27  C   UNK N   1      24.710  13.111   1.227  0.00  0.00     0.000 C 
BRANCH  27  28
HETATM   28  C   UNK N   1      25.318  14.355   1.848  0.00  0.00     0.000 C 
BRANCH  28  29
HETATM   29  C   UNK N   1      24.851  14.490   3.283  0.00  0.00    -0.000 C 
BRANCH  29  30
HETATM   30  C   UNK N   1      25.829  13.804   4.209  0.00  0.00    -0.005 C 
HETATM   31  C   UNK N   1      26.108  14.709   5.388  0.00  0.00     0.005 C 
ENDBRANCH  29  30
ENDBRANCH  28  29
ENDBRANCH  27  28
ENDBRANCH  26  27
ENDBRANCH  25  26
ENDBRANCH  23  25
ENDBRANCH  22  23
ENDBRANCH  21  22
ENDBRANCH  20  21
ENDBRANCH  17  20
ENDBRANCH  15  16
ENDBRANCH  14  15
ENDBRANCH  11  14
ENDBRANCH   9  10
BRANCH   9  32
HETATM   32  O   UNK N   1      26.366  17.664   3.443  0.00  0.00    -0.385 OA
HETATM   33  H   UNK N   1      26.034  16.941   2.888  0.00  0.00     0.210 HD
ENDBRANCH   9  32
ENDBRANCH   6   9
ENDBRANCH   5   6
ENDBRANCH   4   5
ENDBRANCH   2   4
BRANCH   2  34
HETATM   34  O   UNK N   1      29.163  17.709   7.200  0.00  0.00    -0.307 OA
HETATM   35  H   UNK N   1      28.852  18.620   7.080  0.00  0.00     0.222 HD
ENDBRANCH   2  34
ENDBRANCH   1   2
BRANCH   1  36
HETATM   36  P   UNK N   1      31.679  14.868   6.691  0.00  0.00     0.401 P 
HETATM   37  O   UNK N   1      30.759  13.948   5.840  0.00  0.00    -0.631 OA
BRANCH  36  38
HETATM   38  O   UNK N   1      32.298  13.904   7.995  0.00  0.00    -0.294 OA
BRANCH  38  39
HETATM   39  C   UNK N   1      32.250  14.701   9.139  0.00  0.00     0.215 C 
BRANCH  39  40
HETATM   40  C   UNK N   1      33.651  14.779   9.704  0.00  0.00     0.180 C 
HETATM   41  O   UNK N   1      33.684  14.538  11.083  0.00  0.00    -0.353 OA
HETATM   42  C   UNK N   1      34.939  15.050  11.488  0.00  0.00     0.262 C 
HETATM   43  C   UNK N   1      35.471  15.939  10.373  0.00  0.00     0.199 C 
HETATM   44  C   UNK N   1      34.272  16.131   9.504  0.00  0.00     0.197 C 
BRANCH  42  45
HETATM   45  N   UNK N   1      35.881  13.961  11.757  0.00  0.00    -0.297 N 
HETATM   46  C   UNK N   1      35.673  12.858  12.487  0.00  0.00     0.142 A 
HETATM   47  C   UNK N   1      36.789  12.106  12.492  0.00  0.00     0.122 A 
HETATM   48  N   UNK N   1      34.550  12.500  13.155  0.00  0.00    -0.336 N 
HETATM   49  C   UNK N   1      36.820  10.912  13.192  0.00  0.00     0.131 A 
HETATM   50  N   UNK N   1      37.747  12.706  11.759  0.00  0.00    -0.346 N 
HETATM   51  N   UNK N   1      35.695  10.539  13.872  0.00  0.00    -0.337 N 
HETATM   52  C   UNK N   1      34.568  11.324  13.857  0.00  0.00     0.183 A 
ATOM     53  HN  UNK N   1      35.692   9.665  14.398  1.00  0.00     0.168 HD
HETATM   54  C   UNK N   1      37.163  13.854  11.317  0.00  0.00     0.188 A 
ATOM     55  HN  UNK N   1      38.694  12.375  11.578  1.00  0.00     0.167 HD
ATOM     56  HN  UNK N   1      33.716  13.088  13.136  1.00  0.00     0.168 HD
BRANCH  49  57
HETATM   57  N   UNK N   1      37.973  10.102  13.210  0.00  0.00    -0.383 N 
HETATM   58  H   UNK N   1      38.687  10.147  13.886  0.00  0.00     0.157 HD
HETATM   59  H   UNK N   1      38.073   9.438  12.490  0.00  0.00     0.157 HD
ENDBRANCH  49  57
ENDBRANCH  42  45
BRANCH  43  60
HETATM   60  O   UNK N   1      35.906  17.157  10.896  0.00  0.00    -0.388 OA
HETATM   61  H   UNK N   1      35.746  18.056  10.566  0.00  0.00     0.210 HD
ENDBRANCH  43  60
BRANCH  44  62
HETATM   62  O   UNK N   1      34.624  16.327   8.160  0.00  0.00    -0.286 OA
BRANCH  62  63
HETATM   63  P   UNK N   1      34.155  17.952   7.717  0.00  0.00     0.391 P 
HETATM   64  O   UNK N   1      32.762  18.277   8.326  0.00  0.00    -0.632 OA
BRANCH  63  65
HETATM   65  O   UNK N   1      34.009  18.119   5.997  0.00  0.00    -0.307 OA
HETATM   66  H   UNK N   1      34.636  17.953   5.277  0.00  0.00     0.222 HD
ENDBRANCH  63  65
BRANCH  63  67
HETATM   67  O   UNK N   1      35.286  19.108   8.343  0.00  0.00    -0.307 OA
HETATM   68  H   UNK N   1      35.200  20.050   8.129  0.00  0.00     0.222 HD
ENDBRANCH  63  67
ENDBRANCH  62  63
ENDBRANCH  44  62
ENDBRANCH  39  40
ENDBRANCH  38  39
ENDBRANCH  36  38
BRANCH  36  69
HETATM   69  O   UNK N   1      33.003  15.321   5.664  0.00  0.00    -0.307 OA
HETATM   70  H   UNK N   1      33.910  15.609   5.475  0.00  0.00     0.222 HD
ENDBRANCH  36  69
ENDBRANCH   1  36
TORSDOF 33
ENDMDL
MODEL 4
REMARK VINA RESULT:      -6.1      5.315     10.087
REMARK WARNING: 32 MAX_TORS EXCEEDED!!!
REMARK  33 active torsions:
REMARK  status: ('A' for Active; 'I' for Inactive)
REMARK    1  A    between atoms: C_1  and  N_38 
REMARK    2  A    between atoms: C_3  and  O_6 
REMARK    3  A    between atoms: C_4  and  C_32 
REMARK    4  A    between atoms: C_5  and  O_33 
REMARK    5  A    between atoms: N_9  and  C_7 
REMARK    6  A    between atoms: C_7  and  C_8 
REMARK    7  A    between atoms: C_8  and  S_51 
REMARK       I    between atoms: C_10  and  N_9 
REMARK    8  A    between atoms: C_13  and  C_10 
REMARK    9  A    between atoms: C_12  and  N_14 
REMARK   10  A    between atoms: C_13  and  C_12 
REMARK       I    between atoms: C_16  and  N_14 
REMARK   11  A    between atoms: C_16  and  C_21 
REMARK   12  A    between atoms: C_19  and  C_17 
REMARK   13  A    between atoms: C_17  and  O_23 
REMARK   14  A    between atoms: C_21  and  C_19 
REMARK   15  A    between atoms: C_21  and  O_22 
REMARK   16  A    between atoms: O_23  and  P_30 
REMARK   17  A    between atoms: P_30  and  O_24 
REMARK   18  A    between atoms: O_24  and  P_31 
REMARK   19  A    between atoms: P_31  and  O_25 
REMARK   20  A    between atoms: C_32  and  O_25 
REMARK   21  A    between atoms: P_30  and  O_27 
REMARK   22  A    between atoms: P_31  and  O_29 
REMARK   23  A    between atoms: O_33  and  P_36 
REMARK   24  A    between atoms: P_36  and  O_34 
REMARK   25  A    between atoms: P_36  and  O_35 
REMARK   26  A    between atoms: N_50  and  C_46 
REMARK   27  A    between atoms: S_51  and  C_59 
REMARK   28  A    between atoms: C_59  and  C_52 
REMARK   29  A    between atoms: C_52  and  C_53 
REMARK   30  A    between atoms: C_53  and  C_54 
REMARK   31  A    between atoms: C_54  and  C_55 
REMARK   32  A    between atoms: C_55  and  C_56 
REMARK   33  A    between atoms: C_56  and  C_57 
ROOT
HETATM    1  O   UNK N   1      30.716  15.954   6.839  0.00  0.00    -0.195 OA
ENDROOT
BRANCH   1   2
HETATM    2  P   UNK N   1      30.386  16.641   5.265  0.00  0.00     0.401 P 
HETATM    3  O   UNK N   1      30.090  17.843   6.203  0.00  0.00    -0.631 OA
BRANCH   2   4
HETATM    4  O   UNK N   1      29.072  17.466   4.479  0.00  0.00    -0.296 OA
BRANCH   4   5
HETATM    5  C   UNK N   1      29.015  18.707   5.140  0.00  0.00     0.192 C 
BRANCH   5   6
HETATM    6  C   UNK N   1      27.603  19.330   5.205  0.00  0.00     0.009 C 
HETATM    7  C   UNK N   1      27.557  20.576   6.075  0.00  0.00     0.020 C 
HETATM    8  C   UNK N   1      27.283  19.768   3.788  0.00  0.00     0.020 C 
BRANCH   6   9
HETATM    9  C   UNK N   1      26.513  18.316   5.617  0.00  0.00     0.219 C 
BRANCH   9  10
HETATM   10  C   UNK N   1      25.755  17.565   4.556  0.00  0.00     0.247 C 
HETATM   11  N   UNK N   1      26.352  16.596   3.820  0.00  0.00    -0.358 N 
HETATM   12  H   UNK N   1      27.241  16.276   4.098  0.00  0.00     0.162 HD
HETATM   13  O   UNK N   1      24.597  17.885   4.332  0.00  0.00    -0.271 OA
BRANCH  11  14
HETATM   14  C   UNK N   1      25.745  16.014   2.646  0.00  0.00     0.132 C 
BRANCH  14  15
HETATM   15  C   UNK N   1      26.695  15.144   1.834  0.00  0.00     0.122 C 
BRANCH  15  16
HETATM   16  C   UNK N   1      27.172  13.996   2.687  0.00  0.00     0.219 C 
HETATM   17  N   UNK N   1      26.507  12.813   2.733  0.00  0.00    -0.360 N 
HETATM   18  H   UNK N   1      26.840  12.104   3.332  0.00  0.00     0.162 HD
HETATM   19  O   UNK N   1      28.174  14.144   3.367  0.00  0.00    -0.274 OA
BRANCH  17  20
HETATM   20  C   UNK N   1      25.333  12.556   1.936  0.00  0.00     0.133 C 
BRANCH  20  21
HETATM   21  C   UNK N   1      24.231  11.990   2.810  0.00  0.00     0.102 C 
BRANCH  21  22
HETATM   22  S   UNK N   1      24.073  13.032   4.289  0.00  0.00    -0.091 SA
BRANCH  22  23
HETATM   23  C   UNK N   1      22.500  13.696   3.762  0.00  0.00     0.186 C 
HETATM   24  O   UNK N   1      21.697  12.972   3.190  0.00  0.00    -0.286 OA
BRANCH  23  25
HETATM   25  C   UNK N   1      22.193  15.143   4.026  0.00  0.00     0.091 C 
BRANCH  25  26
HETATM   26  C   UNK N   1      21.805  15.929   2.780  0.00  0.00     0.008 C 
BRANCH  26  27
HETATM   27  C   UNK N   1      20.478  16.642   2.983  0.00  0.00     0.000 C 
BRANCH  27  28
HETATM   28  C   UNK N   1      20.371  17.849   2.070  0.00  0.00     0.000 C 
BRANCH  28  29
HETATM   29  C   UNK N   1      19.775  19.016   2.832  0.00  0.00    -0.000 C 
BRANCH  29  30
HETATM   30  C   UNK N   1      20.842  19.683   3.670  0.00  0.00    -0.005 C 
HETATM   31  C   UNK N   1      21.946  20.174   2.760  0.00  0.00     0.005 C 
ENDBRANCH  29  30
ENDBRANCH  28  29
ENDBRANCH  27  28
ENDBRANCH  26  27
ENDBRANCH  25  26
ENDBRANCH  23  25
ENDBRANCH  22  23
ENDBRANCH  21  22
ENDBRANCH  20  21
ENDBRANCH  17  20
ENDBRANCH  15  16
ENDBRANCH  14  15
ENDBRANCH  11  14
ENDBRANCH   9  10
BRANCH   9  32
HETATM   32  O   UNK N   1      26.971  17.432   6.600  0.00  0.00    -0.385 OA
HETATM   33  H   UNK N   1      27.543  16.647   6.603  0.00  0.00     0.210 HD
ENDBRANCH   9  32
ENDBRANCH   6   9
ENDBRANCH   5   6
ENDBRANCH   4   5
ENDBRANCH   2   4
BRANCH   2  34
HETATM   34  O   UNK N   1      29.008  15.623   5.567  0.00  0.00    -0.307 OA
HETATM   35  H   UNK N   1      28.617  15.476   6.443  0.00  0.00     0.222 HD
ENDBRANCH   2  34
ENDBRANCH   1   2
BRANCH   1  36
HETATM   36  P   UNK N   1      31.778  14.579   6.552  0.00  0.00     0.401 P 
HETATM   37  O   UNK N   1      31.070  13.535   5.642  0.00  0.00    -0.631 OA
BRANCH  36  38
HETATM   38  O   UNK N   1      32.277  13.745   7.990  0.00  0.00    -0.294 OA
BRANCH  38  39
HETATM   39  C   UNK N   1      32.247  14.680   9.025  0.00  0.00     0.215 C 
BRANCH  39  40
HETATM   40  C   UNK N   1      33.641  14.765   9.607  0.00  0.00     0.180 C 
HETATM   41  O   UNK N   1      33.659  14.514  10.985  0.00  0.00    -0.353 OA
HETATM   42  C   UNK N   1      34.905  15.033  11.409  0.00  0.00     0.262 C 
HETATM   43  C   UNK N   1      35.444  15.934  10.308  0.00  0.00     0.199 C 
HETATM   44  C   UNK N   1      34.254  16.123   9.425  0.00  0.00     0.197 C 
BRANCH  42  45
HETATM   45  N   UNK N   1      35.852  13.949  11.681  0.00  0.00    -0.297 N 
HETATM   46  C   UNK N   1      35.632  12.820  12.366  0.00  0.00     0.142 A 
HETATM   47  C   UNK N   1      36.759  12.084  12.393  0.00  0.00     0.122 A 
HETATM   48  N   UNK N   1      34.488  12.423  12.974  0.00  0.00    -0.336 N 
HETATM   49  C   UNK N   1      36.780  10.868  13.054  0.00  0.00     0.131 A 
HETATM   50  N   UNK N   1      37.736  12.722  11.720  0.00  0.00    -0.346 N 
HETATM   51  N   UNK N   1      35.634  10.456  13.674  0.00  0.00    -0.337 N 
HETATM   52  C   UNK N   1      34.496  11.225  13.638  0.00  0.00     0.183 A 
ATOM     53  HN  UNK N   1      35.623   9.565  14.170  1.00  0.00     0.168 HD
HETATM   54  C   UNK N   1      37.153  13.875  11.292  0.00  0.00     0.188 A 
ATOM     55  HN  UNK N   1      38.695  12.411  11.568  1.00  0.00     0.167 HD
ATOM     56  HN  UNK N   1      33.647  12.999  12.939  1.00  0.00     0.168 HD
BRANCH  49  57
HETATM   57  N   UNK N   1      37.944  10.074  13.093  0.00  0.00    -0.383 N 
HETATM   58  H   UNK N   1      37.963   9.092  13.027  0.00  0.00     0.157 HD
HETATM   59  H   UNK N   1      38.807  10.538  13.195  0.00  0.00     0.157 HD
ENDBRANCH  49  57
ENDBRANCH  42  45
BRANCH  43  60
HETATM   60  O   UNK N   1      35.862  17.152  10.845  0.00  0.00    -0.388 OA
HETATM   61  H   UNK N   1      36.755  17.530  10.879  0.00  0.00     0.210 HD
ENDBRANCH  43  60
BRANCH  44  62
HETATM   62  O   UNK N   1      34.620  16.333   8.087  0.00  0.00    -0.286 OA
BRANCH  62  63
HETATM   63  P   UNK N   1      34.001  17.894   7.602  0.00  0.00     0.391 P 
HETATM   64  O   UNK N   1      34.882  19.018   8.218  0.00  0.00    -0.632 OA
BRANCH  63  65
HETATM   65  O   UNK N   1      32.386  18.141   8.182  0.00  0.00    -0.307 OA
HETATM   66  H   UNK N   1      31.829  17.618   8.779  0.00  0.00     0.222 HD
ENDBRANCH  63  65
BRANCH  63  67
HETATM   67  O   UNK N   1      34.057  18.067   5.877  0.00  0.00    -0.307 OA
HETATM   68  H   UNK N   1      33.285  17.848   5.333  0.00  0.00     0.222 HD
ENDBRANCH  63  67
ENDBRANCH  62  63
ENDBRANCH  44  62
ENDBRANCH  39  40
ENDBRANCH  38  39
ENDBRANCH  36  38
BRANCH  36  69
HETATM   69  O   UNK N   1      33.196  15.093   5.693  0.00  0.00    -0.307 OA
HETATM   70  H   UNK N   1      34.070  15.505   5.607  0.00  0.00     0.222 HD
ENDBRANCH  36  69
ENDBRANCH   1  36
TORSDOF 33
ENDMDL
MODEL 5
REMARK VINA RESULT:      -6.1      5.658     10.075
REMARK WARNING: 32 MAX_TORS EXCEEDED!!!
REMARK  33 active torsions:
REMARK  status: ('A' for Active; 'I' for Inactive)
REMARK    1  A    between atoms: C_1  and  N_38 
REMARK    2  A    between atoms: C_3  and  O_6 
REMARK    3  A    between atoms: C_4  and  C_32 
REMARK    4  A    between atoms: C_5  and  O_33 
REMARK    5  A    between atoms: N_9  and  C_7 
REMARK    6  A    between atoms: C_7  and  C_8 
REMARK    7  A    between atoms: C_8  and  S_51 
REMARK       I    between atoms: C_10  and  N_9 
REMARK    8  A    between atoms: C_13  and  C_10 
REMARK    9  A    between atoms: C_12  and  N_14 
REMARK   10  A    between atoms: C_13  and  C_12 
REMARK       I    between atoms: C_16  and  N_14 
REMARK   11  A    between atoms: C_16  and  C_21 
REMARK   12  A    between atoms: C_19  and  C_17 
REMARK   13  A    between atoms: C_17  and  O_23 
REMARK   14  A    between atoms: C_21  and  C_19 
REMARK   15  A    between atoms: C_21  and  O_22 
REMARK   16  A    between atoms: O_23  and  P_30 
REMARK   17  A    between atoms: P_30  and  O_24 
REMARK   18  A    between atoms: O_24  and  P_31 
REMARK   19  A    between atoms: P_31  and  O_25 
REMARK   20  A    between atoms: C_32  and  O_25 
REMARK   21  A    between atoms: P_30  and  O_27 
REMARK   22  A    between atoms: P_31  and  O_29 
REMARK   23  A    between atoms: O_33  and  P_36 
REMARK   24  A    between atoms: P_36  and  O_34 
REMARK   25  A    between atoms: P_36  and  O_35 
REMARK   26  A    between atoms: N_50  and  C_46 
REMARK   27  A    between atoms: S_51  and  C_59 
REMARK   28  A    between atoms: C_59  and  C_52 
REMARK   29  A    between atoms: C_52  and  C_53 
REMARK   30  A    between atoms: C_53  and  C_54 
REMARK   31  A    between atoms: C_54  and  C_55 
REMARK   32  A    between atoms: C_55  and  C_56 
REMARK   33  A    between atoms: C_56  and  C_57 
ROOT
HETATM    1  O   UNK N   1      31.171  16.294   7.244  0.00  0.00    -0.195 OA
ENDROOT
BRANCH   1   2
HETATM    2  P   UNK N   1      29.964  16.598   6.016  0.00  0.00     0.401 P 
HETATM    3  O   UNK N   1      31.237  17.205   5.365  0.00  0.00    -0.631 OA
BRANCH   2   4
HETATM    4  O   UNK N   1      29.361  17.963   5.124  0.00  0.00    -0.296 OA
BRANCH   4   5
HETATM    5  C   UNK N   1      28.492  18.596   6.032  0.00  0.00     0.192 C 
BRANCH   5   6
HETATM    6  C   UNK N   1      27.275  19.286   5.374  0.00  0.00     0.009 C 
HETATM    7  C   UNK N   1      26.610  20.294   6.297  0.00  0.00     0.020 C 
HETATM    8  C   UNK N   1      27.833  20.063   4.196  0.00  0.00     0.020 C 
BRANCH   6   9
HETATM    9  C   UNK N   1      26.248  18.283   4.803  0.00  0.00     0.219 C 
BRANCH   9  10
HETATM   10  C   UNK N   1      24.836  18.731   4.541  0.00  0.00     0.247 C 
HETATM   11  N   UNK N   1      23.809  18.305   5.317  0.00  0.00    -0.358 N 
HETATM   12  H   UNK N   1      24.019  17.830   6.153  0.00  0.00     0.162 HD
HETATM   13  O   UNK N   1      24.624  19.450   3.576  0.00  0.00    -0.271 OA
BRANCH  11  14
HETATM   14  C   UNK N   1      22.423  18.517   4.972  0.00  0.00     0.132 C 
BRANCH  14  15
HETATM   15  C   UNK N   1      21.514  17.357   5.354  0.00  0.00     0.122 C 
BRANCH  15  16
HETATM   16  C   UNK N   1      21.122  17.488   6.804  0.00  0.00     0.219 C 
HETATM   17  N   UNK N   1      21.245  16.455   7.676  0.00  0.00    -0.360 N 
HETATM   18  H   UNK N   1      20.943  16.580   8.606  0.00  0.00     0.162 HD
HETATM   19  O   UNK N   1      20.667  18.549   7.197  0.00  0.00    -0.274 OA
BRANCH  17  20
HETATM   20  C   UNK N   1      21.800  15.182   7.290  0.00  0.00     0.133 C 
BRANCH  20  21
HETATM   21  C   UNK N   1      20.730  14.110   7.359  0.00  0.00     0.102 C 
BRANCH  21  22
HETATM   22  S   UNK N   1      20.190  13.722   5.670  0.00  0.00    -0.091 SA
BRANCH  22  23
HETATM   23  C   UNK N   1      21.656  12.757   5.329  0.00  0.00     0.186 C 
HETATM   24  O   UNK N   1      22.007  11.890   6.116  0.00  0.00    -0.286 OA
BRANCH  23  25
HETATM   25  C   UNK N   1      22.437  13.035   4.076  0.00  0.00     0.091 C 
BRANCH  25  26
HETATM   26  C   UNK N   1      23.790  13.691   4.325  0.00  0.00     0.008 C 
BRANCH  26  27
HETATM   27  C   UNK N   1      24.412  14.159   3.019  0.00  0.00     0.000 C 
BRANCH  27  28
HETATM   28  C   UNK N   1      23.963  13.282   1.866  0.00  0.00     0.000 C 
BRANCH  28  29
HETATM   29  C   UNK N   1      23.360  14.141   0.773  0.00  0.00    -0.000 C 
BRANCH  29  30
HETATM   30  C   UNK N   1      21.859  13.964   0.747  0.00  0.00    -0.005 C 
HETATM   31  C   UNK N   1      21.205  15.233   1.246  0.00  0.00     0.005 C 
ENDBRANCH  29  30
ENDBRANCH  28  29
ENDBRANCH  27  28
ENDBRANCH  26  27
ENDBRANCH  25  26
ENDBRANCH  23  25
ENDBRANCH  22  23
ENDBRANCH  21  22
ENDBRANCH  20  21
ENDBRANCH  17  20
ENDBRANCH  15  16
ENDBRANCH  14  15
ENDBRANCH  11  14
ENDBRANCH   9  10
BRANCH   9  32
HETATM   32  O   UNK N   1      26.753  17.599   3.691  0.00  0.00    -0.385 OA
HETATM   33  H   UNK N   1      26.744  17.750   2.732  0.00  0.00     0.210 HD
ENDBRANCH   9  32
ENDBRANCH   6   9
ENDBRANCH   5   6
ENDBRANCH   4   5
ENDBRANCH   2   4
BRANCH   2  34
HETATM   34  O   UNK N   1      29.609  17.778   7.242  0.00  0.00    -0.307 OA
HETATM   35  H   UNK N   1      30.264  18.379   7.632  0.00  0.00     0.222 HD
ENDBRANCH   2  34
ENDBRANCH   1   2
BRANCH   1  36
HETATM   36  P   UNK N   1      31.925  14.762   6.813  0.00  0.00     0.401 P 
HETATM   37  O   UNK N   1      30.928  13.882   6.007  0.00  0.00    -0.631 OA
BRANCH  36  38
HETATM   38  O   UNK N   1      32.457  13.817   8.168  0.00  0.00    -0.294 OA
BRANCH  38  39
HETATM   39  C   UNK N   1      32.356  14.638   9.292  0.00  0.00     0.215 C 
BRANCH  39  40
HETATM   40  C   UNK N   1      33.744  14.797   9.870  0.00  0.00     0.180 C 
HETATM   41  O   UNK N   1      33.764  14.635  11.262  0.00  0.00    -0.353 OA
HETATM   42  C   UNK N   1      34.994  15.213  11.654  0.00  0.00     0.262 C 
HETATM   43  C   UNK N   1      35.514  16.055  10.498  0.00  0.00     0.199 C 
HETATM   44  C   UNK N   1      34.323  16.155   9.603  0.00  0.00     0.197 C 
BRANCH  42  45
HETATM   45  N   UNK N   1      35.968  14.173  11.998  0.00  0.00    -0.297 N 
HETATM   46  C   UNK N   1      36.070  13.493  13.146  0.00  0.00     0.142 A 
HETATM   47  C   UNK N   1      37.098  12.627  13.065  0.00  0.00     0.122 A 
HETATM   48  N   UNK N   1      35.305  13.614  14.259  0.00  0.00    -0.336 N 
HETATM   49  C   UNK N   1      37.407  11.812  14.140  0.00  0.00     0.131 A 
HETATM   50  N   UNK N   1      37.683  12.726  11.856  0.00  0.00    -0.346 N 
HETATM   51  N   UNK N   1      36.646  11.925  15.270  0.00  0.00    -0.337 N 
HETATM   52  C   UNK N   1      35.604  12.818  15.333  0.00  0.00     0.183 A 
ATOM     53  HN  UNK N   1      36.855  11.338  16.077  1.00  0.00     0.168 HD
HETATM   54  C   UNK N   1      36.969  13.692  11.214  0.00  0.00     0.188 A 
ATOM     55  HN  UNK N   1      38.481  12.199  11.503  1.00  0.00     0.167 HD
ATOM     56  HN  UNK N   1      34.532  14.278  14.295  1.00  0.00     0.168 HD
BRANCH  49  57
HETATM   57  N   UNK N   1      38.474  10.893  14.081  0.00  0.00    -0.383 N 
HETATM   58  H   UNK N   1      38.420   9.985  13.705  0.00  0.00     0.157 HD
HETATM   59  H   UNK N   1      39.342  11.181  14.445  0.00  0.00     0.157 HD
ENDBRANCH  49  57
ENDBRANCH  42  45
BRANCH  43  60
HETATM   60  O   UNK N   1      35.899  17.314  10.957  0.00  0.00    -0.388 OA
HETATM   61  H   UNK N   1      36.790  17.654  11.135  0.00  0.00     0.210 HD
ENDBRANCH  43  60
BRANCH  44  62
HETATM   62  O   UNK N   1      34.689  16.287   8.255  0.00  0.00    -0.286 OA
BRANCH  62  63
HETATM   63  P   UNK N   1      34.202  17.879   7.722  0.00  0.00     0.391 P 
HETATM   64  O   UNK N   1      35.211  18.938   8.251  0.00  0.00    -0.632 OA
BRANCH  63  65
HETATM   65  O   UNK N   1      32.644  18.306   8.352  0.00  0.00    -0.307 OA
HETATM   66  H   UNK N   1      31.751  18.009   8.119  0.00  0.00     0.222 HD
ENDBRANCH  63  65
BRANCH  63  67
HETATM   67  O   UNK N   1      34.201  17.972   5.990  0.00  0.00    -0.307 OA
HETATM   68  H   UNK N   1      35.019  18.158   5.505  0.00  0.00     0.222 HD
ENDBRANCH  63  67
ENDBRANCH  62  63
ENDBRANCH  44  62
ENDBRANCH  39  40
ENDBRANCH  38  39
ENDBRANCH  36  38
BRANCH  36  69
HETATM   69  O   UNK N   1      33.283  15.042   5.770  0.00  0.00    -0.307 OA
HETATM   70  H   UNK N   1      33.879  15.584   5.228  0.00  0.00     0.222 HD
ENDBRANCH  36  69
ENDBRANCH   1  36
TORSDOF 33
ENDMDL
MODEL 6
REMARK VINA RESULT:      -6.1      6.053     10.992
REMARK WARNING: 32 MAX_TORS EXCEEDED!!!
REMARK  33 active torsions:
REMARK  status: ('A' for Active; 'I' for Inactive)
REMARK    1  A    between atoms: C_1  and  N_38 
REMARK    2  A    between atoms: C_3  and  O_6 
REMARK    3  A    between atoms: C_4  and  C_32 
REMARK    4  A    between atoms: C_5  and  O_33 
REMARK    5  A    between atoms: N_9  and  C_7 
REMARK    6  A    between atoms: C_7  and  C_8 
REMARK    7  A    between atoms: C_8  and  S_51 
REMARK       I    between atoms: C_10  and  N_9 
REMARK    8  A    between atoms: C_13  and  C_10 
REMARK    9  A    between atoms: C_12  and  N_14 
REMARK   10  A    between atoms: C_13  and  C_12 
REMARK       I    between atoms: C_16  and  N_14 
REMARK   11  A    between atoms: C_16  and  C_21 
REMARK   12  A    between atoms: C_19  and  C_17 
REMARK   13  A    between atoms: C_17  and  O_23 
REMARK   14  A    between atoms: C_21  and  C_19 
REMARK   15  A    between atoms: C_21  and  O_22 
REMARK   16  A    between atoms: O_23  and  P_30 
REMARK   17  A    between atoms: P_30  and  O_24 
REMARK   18  A    between atoms: O_24  and  P_31 
REMARK   19  A    between atoms: P_31  and  O_25 
REMARK   20  A    between atoms: C_32  and  O_25 
REMARK   21  A    between atoms: P_30  and  O_27 
REMARK   22  A    between atoms: P_31  and  O_29 
REMARK   23  A    between atoms: O_33  and  P_36 
REMARK   24  A    between atoms: P_36  and  O_34 
REMARK   25  A    between atoms: P_36  and  O_35 
REMARK   26  A    between atoms: N_50  and  C_46 
REMARK   27  A    between atoms: S_51  and  C_59 
REMARK   28  A    between atoms: C_59  and  C_52 
REMARK   29  A    between atoms: C_52  and  C_53 
REMARK   30  A    between atoms: C_53  and  C_54 
REMARK   31  A    between atoms: C_54  and  C_55 
REMARK   32  A    between atoms: C_55  and  C_56 
REMARK   33  A    between atoms: C_56  and  C_57 
ROOT
HETATM    1  O   UNK N   1      32.656  17.840   8.741  0.00  0.00    -0.195 OA
ENDROOT
BRANCH   1   2
HETATM    2  P   UNK N   1      31.619  17.440   7.390  0.00  0.00     0.401 P 
HETATM    3  O   UNK N   1      30.585  17.664   8.527  0.00  0.00    -0.631 OA
BRANCH   2   4
HETATM    4  O   UNK N   1      30.362  16.292   7.037  0.00  0.00    -0.296 OA
BRANCH   4   5
HETATM    5  C   UNK N   1      30.091  16.503   5.673  0.00  0.00     0.192 C 
BRANCH   5   6
HETATM    6  C   UNK N   1      28.670  17.035   5.380  0.00  0.00     0.009 C 
HETATM    7  C   UNK N   1      28.428  17.261   3.896  0.00  0.00     0.020 C 
HETATM    8  C   UNK N   1      27.723  15.934   5.820  0.00  0.00     0.020 C 
BRANCH   6   9
HETATM    9  C   UNK N   1      28.312  18.290   6.206  0.00  0.00     0.219 C 
BRANCH   9  10
HETATM   10  C   UNK N   1      27.510  19.395   5.573  0.00  0.00     0.247 C 
HETATM   11  N   UNK N   1      26.157  19.338   5.521  0.00  0.00    -0.358 N 
HETATM   12  H   UNK N   1      25.695  18.645   6.047  0.00  0.00     0.162 HD
HETATM   13  O   UNK N   1      28.109  20.325   5.056  0.00  0.00    -0.271 OA
BRANCH  11  14
HETATM   14  C   UNK N   1      25.361  20.247   4.729  0.00  0.00     0.132 C 
BRANCH  14  15
HETATM   15  C   UNK N   1      24.848  19.638   3.432  0.00  0.00     0.122 C 
BRANCH  15  16
HETATM   16  C   UNK N   1      23.341  19.621   3.451  0.00  0.00     0.219 C 
HETATM   17  N   UNK N   1      22.641  18.522   3.832  0.00  0.00    -0.360 N 
HETATM   18  H   UNK N   1      21.656  18.550   3.795  0.00  0.00     0.162 HD
HETATM   19  O   UNK N   1      22.736  20.620   3.098  0.00  0.00    -0.274 OA
BRANCH  17  20
HETATM   20  C   UNK N   1      23.286  17.316   4.288  0.00  0.00     0.133 C 
BRANCH  20  21
HETATM   21  C   UNK N   1      22.261  16.382   4.899  0.00  0.00     0.102 C 
BRANCH  21  22
HETATM   22  S   UNK N   1      20.976  17.380   5.703  0.00  0.00    -0.091 SA
BRANCH  22  23
HETATM   23  C   UNK N   1      20.012  15.942   6.149  0.00  0.00     0.186 C 
HETATM   24  O   UNK N   1      18.898  16.084   6.632  0.00  0.00    -0.286 OA
BRANCH  23  25
HETATM   25  C   UNK N   1      20.596  14.575   5.928  0.00  0.00     0.091 C 
BRANCH  25  26
HETATM   26  C   UNK N   1      20.744  13.752   7.202  0.00  0.00     0.008 C 
BRANCH  26  27
HETATM   27  C   UNK N   1      21.478  14.542   8.273  0.00  0.00     0.000 C 
BRANCH  27  28
HETATM   28  C   UNK N   1      20.911  14.240   9.647  0.00  0.00     0.000 C 
BRANCH  28  29
HETATM   29  C   UNK N   1      21.170  12.789  10.000  0.00  0.00    -0.000 C 
BRANCH  29  30
HETATM   30  C   UNK N   1      22.392  12.684  10.882  0.00  0.00    -0.005 C 
HETATM   31  C   UNK N   1      23.103  11.382  10.583  0.00  0.00     0.005 C 
ENDBRANCH  29  30
ENDBRANCH  28  29
ENDBRANCH  27  28
ENDBRANCH  26  27
ENDBRANCH  25  26
ENDBRANCH  23  25
ENDBRANCH  22  23
ENDBRANCH  21  22
ENDBRANCH  20  21
ENDBRANCH  17  20
ENDBRANCH  15  16
ENDBRANCH  14  15
ENDBRANCH  11  14
ENDBRANCH   9  10
BRANCH   9  32
HETATM   32  O   UNK N   1      27.772  17.955   7.453  0.00  0.00    -0.385 OA
HETATM   33  H   UNK N   1      27.127  18.362   8.052  0.00  0.00     0.210 HD
ENDBRANCH   9  32
ENDBRANCH   6   9
ENDBRANCH   5   6
ENDBRANCH   4   5
ENDBRANCH   2   4
BRANCH   2  34
HETATM   34  O   UNK N   1      32.306  15.910   7.848  0.00  0.00    -0.307 OA
HETATM   35  H   UNK N   1      33.233  15.659   7.704  0.00  0.00     0.222 HD
ENDBRANCH   2  34
ENDBRANCH   1   2
BRANCH   1  36
HETATM   36  P   UNK N   1      34.288  17.929   8.086  0.00  0.00     0.401 P 
HETATM   37  O   UNK N   1      34.247  17.882   6.533  0.00  0.00    -0.631 OA
BRANCH  36  38
HETATM   38  O   UNK N   1      35.341  16.651   8.606  0.00  0.00    -0.294 OA
BRANCH  38  39
HETATM   39  C   UNK N   1      34.914  16.275   9.880  0.00  0.00     0.215 C 
BRANCH  39  40
HETATM   40  C   UNK N   1      35.369  14.852  10.115  0.00  0.00     0.180 C 
HETATM   41  O   UNK N   1      36.552  14.787  10.862  0.00  0.00    -0.353 OA
HETATM   42  C   UNK N   1      37.031  13.477  10.627  0.00  0.00     0.262 C 
HETATM   43  C   UNK N   1      36.296  12.911   9.421  0.00  0.00     0.199 C 
HETATM   44  C   UNK N   1      35.646  14.122   8.834  0.00  0.00     0.197 C 
BRANCH  42  45
HETATM   45  N   UNK N   1      36.808  12.625  11.798  0.00  0.00    -0.297 N 
HETATM   46  C   UNK N   1      36.738  12.998  13.082  0.00  0.00     0.142 A 
HETATM   47  C   UNK N   1      36.523  11.915  13.852  0.00  0.00     0.122 A 
HETATM   48  N   UNK N   1      36.868  14.244  13.597  0.00  0.00    -0.336 N 
HETATM   49  C   UNK N   1      36.421  12.048  15.226  0.00  0.00     0.131 A 
HETATM   50  N   UNK N   1      36.446  10.814  13.080  0.00  0.00    -0.346 N 
HETATM   51  N   UNK N   1      36.553  13.299  15.760  0.00  0.00    -0.337 N 
HETATM   52  C   UNK N   1      36.776  14.390  14.955  0.00  0.00     0.183 A 
ATOM     53  HN  UNK N   1      36.485  13.425  16.770  1.00  0.00     0.168 HD
HETATM   54  C   UNK N   1      36.628  11.277  11.813  0.00  0.00     0.188 A 
ATOM     55  HN  UNK N   1      36.287   9.852  13.379  1.00  0.00     0.167 HD
ATOM     56  HN  UNK N   1      37.031  15.049  12.991  1.00  0.00     0.168 HD
BRANCH  49  57
HETATM   57  N   UNK N   1      36.191  10.933  16.057  0.00  0.00    -0.383 N 
HETATM   58  H   UNK N   1      36.629  10.772  16.923  0.00  0.00     0.157 HD
HETATM   59  H   UNK N   1      35.541  10.262  15.746  0.00  0.00     0.157 HD
ENDBRANCH  49  57
ENDBRANCH  42  45
BRANCH  43  60
HETATM   60  O   UNK N   1      37.205  12.351   8.523  0.00  0.00    -0.388 OA
HETATM   61  H   UNK N   1      38.173  12.317   8.575  0.00  0.00     0.210 HD
ENDBRANCH  43  60
BRANCH  44  62
HETATM   62  O   UNK N   1      34.452  13.806   8.168  0.00  0.00    -0.286 OA
BRANCH  62  63
HETATM   63  P   UNK N   1      34.755  13.913   6.449  0.00  0.00     0.391 P 
HETATM   64  O   UNK N   1      35.445  12.609   5.960  0.00  0.00    -0.632 OA
BRANCH  63  65
HETATM   65  O   UNK N   1      35.827  15.224   6.078  0.00  0.00    -0.307 OA
HETATM   66  H   UNK N   1      36.708  15.451   6.413  0.00  0.00     0.222 HD
ENDBRANCH  63  65
BRANCH  63  67
HETATM   67  O   UNK N   1      33.267  14.082   5.575  0.00  0.00    -0.307 OA
HETATM   68  H   UNK N   1      32.442  14.291   6.039  0.00  0.00     0.222 HD
ENDBRANCH  63  67
ENDBRANCH  62  63
ENDBRANCH  44  62
ENDBRANCH  39  40
ENDBRANCH  38  39
ENDBRANCH  36  38
BRANCH  36  69
HETATM   69  O   UNK N   1      35.015  19.447   8.511  0.00  0.00    -0.307 OA
HETATM   70  H   UNK N   1      35.754  20.061   8.643  0.00  0.00     0.222 HD
ENDBRANCH  36  69
ENDBRANCH   1  36
TORSDOF 33
ENDMDL
MODEL 7
REMARK VINA RESULT:      -6.0      5.438     10.157
REMARK WARNING: 32 MAX_TORS EXCEEDED!!!
REMARK  33 active torsions:
REMARK  status: ('A' for Active; 'I' for Inactive)
REMARK    1  A    between atoms: C_1  and  N_38 
REMARK    2  A    between atoms: C_3  and  O_6 
REMARK    3  A    between atoms: C_4  and  C_32 
REMARK    4  A    between atoms: C_5  and  O_33 
REMARK    5  A    between atoms: N_9  and  C_7 
REMARK    6  A    between atoms: C_7  and  C_8 
REMARK    7  A    between atoms: C_8  and  S_51 
REMARK       I    between atoms: C_10  and  N_9 
REMARK    8  A    between atoms: C_13  and  C_10 
REMARK    9  A    between atoms: C_12  and  N_14 
REMARK   10  A    between atoms: C_13  and  C_12 
REMARK       I    between atoms: C_16  and  N_14 
REMARK   11  A    between atoms: C_16  and  C_21 
REMARK   12  A    between atoms: C_19  and  C_17 
REMARK   13  A    between atoms: C_17  and  O_23 
REMARK   14  A    between atoms: C_21  and  C_19 
REMARK   15  A    between atoms: C_21  and  O_22 
REMARK   16  A    between atoms: O_23  and  P_30 
REMARK   17  A    between atoms: P_30  and  O_24 
REMARK   18  A    between atoms: O_24  and  P_31 
REMARK   19  A    between atoms: P_31  and  O_25 
REMARK   20  A    between atoms: C_32  and  O_25 
REMARK   21  A    between atoms: P_30  and  O_27 
REMARK   22  A    between atoms: P_31  and  O_29 
REMARK   23  A    between atoms: O_33  and  P_36 
REMARK   24  A    between atoms: P_36  and  O_34 
REMARK   25  A    between atoms: P_36  and  O_35 
REMARK   26  A    between atoms: N_50  and  C_46 
REMARK   27  A    between atoms: S_51  and  C_59 
REMARK   28  A    between atoms: C_59  and  C_52 
REMARK   29  A    between atoms: C_52  and  C_53 
REMARK   30  A    between atoms: C_53  and  C_54 
REMARK   31  A    between atoms: C_54  and  C_55 
REMARK   32  A    between atoms: C_55  and  C_56 
REMARK   33  A    between atoms: C_56  and  C_57 
ROOT
HETATM    1  O   UNK N   1      31.076  16.233   7.228  0.00  0.00    -0.195 OA
ENDROOT
BRANCH   1   2
HETATM    2  P   UNK N   1      29.840  16.471   6.014  0.00  0.00     0.401 P 
HETATM    3  O   UNK N   1      31.102  17.016   5.291  0.00  0.00    -0.631 OA
BRANCH   2   4
HETATM    4  O   UNK N   1      29.230  17.782   5.048  0.00  0.00    -0.296 OA
BRANCH   4   5
HETATM    5  C   UNK N   1      28.218  18.343   5.849  0.00  0.00     0.192 C 
BRANCH   5   6
HETATM    6  C   UNK N   1      27.180  19.181   5.071  0.00  0.00     0.009 C 
HETATM    7  C   UNK N   1      26.299  20.014   5.988  0.00  0.00     0.020 C 
HETATM    8  C   UNK N   1      27.986  20.153   4.229  0.00  0.00     0.020 C 
BRANCH   6   9
HETATM    9  C   UNK N   1      26.333  18.337   4.092  0.00  0.00     0.219 C 
BRANCH   9  10
HETATM   10  C   UNK N   1      25.525  17.180   4.613  0.00  0.00     0.247 C 
HETATM   11  N   UNK N   1      25.993  15.909   4.542  0.00  0.00    -0.358 N 
HETATM   12  H   UNK N   1      26.936  15.769   4.295  0.00  0.00     0.162 HD
HETATM   13  O   UNK N   1      24.409  17.402   5.057  0.00  0.00    -0.271 OA
BRANCH  11  14
HETATM   14  C   UNK N   1      25.171  14.753   4.813  0.00  0.00     0.132 C 
BRANCH  14  15
HETATM   15  C   UNK N   1      25.792  13.782   5.808  0.00  0.00     0.122 C 
BRANCH  15  16
HETATM   16  C   UNK N   1      25.482  14.240   7.210  0.00  0.00     0.219 C 
HETATM   17  N   UNK N   1      24.670  13.530   8.034  0.00  0.00    -0.360 N 
HETATM   18  H   UNK N   1      24.471  13.889   8.930  0.00  0.00     0.162 HD
HETATM   19  O   UNK N   1      25.964  15.289   7.607  0.00  0.00    -0.274 OA
BRANCH  17  20
HETATM   20  C   UNK N   1      24.088  12.270   7.645  0.00  0.00     0.133 C 
BRANCH  20  21
HETATM   21  C   UNK N   1      22.883  11.968   8.514  0.00  0.00     0.102 C 
BRANCH  21  22
HETATM   22  S   UNK N   1      22.995  12.967  10.025  0.00  0.00    -0.091 SA
BRANCH  22  23
HETATM   23  C   UNK N   1      21.322  13.573   9.855  0.00  0.00     0.186 C 
HETATM   24  O   UNK N   1      20.390  12.911  10.288  0.00  0.00    -0.286 OA
BRANCH  23  25
HETATM   25  C   UNK N   1      21.090  14.892   9.172  0.00  0.00     0.091 C 
BRANCH  25  26
HETATM   26  C   UNK N   1      20.578  14.765   7.743  0.00  0.00     0.008 C 
BRANCH  26  27
HETATM   27  C   UNK N   1      20.535  16.123   7.062  0.00  0.00     0.000 C 
BRANCH  27  28
HETATM   28  C   UNK N   1      21.169  16.053   5.685  0.00  0.00     0.000 C 
BRANCH  28  29
HETATM   29  C   UNK N   1      20.808  17.293   4.892  0.00  0.00    -0.000 C 
BRANCH  29  30
HETATM   30  C   UNK N   1      19.779  16.950   3.840  0.00  0.00    -0.005 C 
HETATM   31  C   UNK N   1      20.491  16.464   2.597  0.00  0.00     0.005 C 
ENDBRANCH  29  30
ENDBRANCH  28  29
ENDBRANCH  27  28
ENDBRANCH  26  27
ENDBRANCH  25  26
ENDBRANCH  23  25
ENDBRANCH  22  23
ENDBRANCH  21  22
ENDBRANCH  20  21
ENDBRANCH  17  20
ENDBRANCH  15  16
ENDBRANCH  14  15
ENDBRANCH  11  14
ENDBRANCH   9  10
BRANCH   9  32
HETATM   32  O   UNK N   1      25.545  19.140   3.260  0.00  0.00    -0.385 OA
HETATM   33  H   UNK N   1      25.580  20.065   2.968  0.00  0.00     0.210 HD
ENDBRANCH   9  32
ENDBRANCH   6   9
ENDBRANCH   5   6
ENDBRANCH   4   5
ENDBRANCH   2   4
BRANCH   2  34
HETATM   34  O   UNK N   1      29.533  17.736   7.167  0.00  0.00    -0.307 OA
HETATM   35  H   UNK N   1      30.144  17.993   7.876  0.00  0.00     0.222 HD
ENDBRANCH   2  34
ENDBRANCH   1   2
BRANCH   1  36
HETATM   36  P   UNK N   1      31.905  14.744   6.787  0.00  0.00     0.401 P 
HETATM   37  O   UNK N   1      30.962  13.830   5.955  0.00  0.00    -0.631 OA
BRANCH  36  38
HETATM   38  O   UNK N   1      32.462  13.806   8.138  0.00  0.00    -0.294 OA
BRANCH  38  39
HETATM   39  C   UNK N   1      32.346  14.620   9.265  0.00  0.00     0.215 C 
BRANCH  39  40
HETATM   40  C   UNK N   1      33.729  14.789   9.853  0.00  0.00     0.180 C 
HETATM   41  O   UNK N   1      33.742  14.613  11.243  0.00  0.00    -0.353 OA
HETATM   42  C   UNK N   1      34.963  15.201  11.649  0.00  0.00     0.262 C 
HETATM   43  C   UNK N   1      35.480  16.061  10.505  0.00  0.00     0.199 C 
HETATM   44  C   UNK N   1      34.294  16.157   9.603  0.00  0.00     0.197 C 
BRANCH  42  45
HETATM   45  N   UNK N   1      35.947  14.169  11.988  0.00  0.00    -0.297 N 
HETATM   46  C   UNK N   1      35.979  13.395  13.079  0.00  0.00     0.142 A 
HETATM   47  C   UNK N   1      37.046  12.576  13.016  0.00  0.00     0.122 A 
HETATM   48  N   UNK N   1      35.119  13.392  14.126  0.00  0.00    -0.336 N 
HETATM   49  C   UNK N   1      37.297  11.680  14.042  0.00  0.00     0.131 A 
HETATM   50  N   UNK N   1      37.727  12.801  11.877  0.00  0.00    -0.346 N 
HETATM   51  N   UNK N   1      36.439  11.668  15.106  0.00  0.00    -0.337 N 
HETATM   52  C   UNK N   1      35.359  12.516  15.152  0.00  0.00     0.183 A 
ATOM     53  HN  UNK N   1      36.602  11.020  15.876  1.00  0.00     0.168 HD
HETATM   54  C   UNK N   1      37.030  13.794  11.258  0.00  0.00     0.188 A 
ATOM     55  HN  UNK N   1      38.574  12.333  11.552  1.00  0.00     0.167 HD
ATOM     56  HN  UNK N   1      34.318  14.023  14.150  1.00  0.00     0.168 HD
BRANCH  49  57
HETATM   57  N   UNK N   1      38.402  10.807  14.000  0.00  0.00    -0.383 N 
HETATM   58  H   UNK N   1      38.420   9.937  13.540  0.00  0.00     0.157 HD
HETATM   59  H   UNK N   1      39.222  11.089  14.467  0.00  0.00     0.157 HD
ENDBRANCH  49  57
ENDBRANCH  42  45
BRANCH  43  60
HETATM   60  O   UNK N   1      35.848  17.320  10.978  0.00  0.00    -0.388 OA
HETATM   61  H   UNK N   1      35.926  18.157  10.492  0.00  0.00     0.210 HD
ENDBRANCH  43  60
BRANCH  44  62
HETATM   62  O   UNK N   1      34.667  16.306   8.259  0.00  0.00    -0.286 OA
BRANCH  62  63
HETATM   63  P   UNK N   1      34.201  17.913   7.751  0.00  0.00     0.391 P 
HETATM   64  O   UNK N   1      34.277  18.012   6.201  0.00  0.00    -0.632 OA
BRANCH  63  65
HETATM   65  O   UNK N   1      35.277  19.113   8.389  0.00  0.00    -0.307 OA
HETATM   66  H   UNK N   1      35.379  19.479   9.281  0.00  0.00     0.222 HD
ENDBRANCH  63  65
BRANCH  63  67
HETATM   67  O   UNK N   1      32.567  18.255   8.220  0.00  0.00    -0.307 OA
HETATM   68  H   UNK N   1      32.368  18.995   8.814  0.00  0.00     0.222 HD
ENDBRANCH  63  67
ENDBRANCH  62  63
ENDBRANCH  44  62
ENDBRANCH  39  40
ENDBRANCH  38  39
ENDBRANCH  36  38
BRANCH  36  69
HETATM   69  O   UNK N   1      33.264  15.101   5.768  0.00  0.00    -0.307 OA
HETATM   70  H   UNK N   1      33.892  14.929   5.049  0.00  0.00     0.222 HD
ENDBRANCH  36  69
ENDBRANCH   1  36
TORSDOF 33
ENDMDL
MODEL 8
REMARK VINA RESULT:      -5.9      4.443      9.065
REMARK WARNING: 32 MAX_TORS EXCEEDED!!!
REMARK  33 active torsions:
REMARK  status: ('A' for Active; 'I' for Inactive)
REMARK    1  A    between atoms: C_1  and  N_38 
REMARK    2  A    between atoms: C_3  and  O_6 
REMARK    3  A    between atoms: C_4  and  C_32 
REMARK    4  A    between atoms: C_5  and  O_33 
REMARK    5  A    between atoms: N_9  and  C_7 
REMARK    6  A    between atoms: C_7  and  C_8 
REMARK    7  A    between atoms: C_8  and  S_51 
REMARK       I    between atoms: C_10  and  N_9 
REMARK    8  A    between atoms: C_13  and  C_10 
REMARK    9  A    between atoms: C_12  and  N_14 
REMARK   10  A    between atoms: C_13  and  C_12 
REMARK       I    between atoms: C_16  and  N_14 
REMARK   11  A    between atoms: C_16  and  C_21 
REMARK   12  A    between atoms: C_19  and  C_17 
REMARK   13  A    between atoms: C_17  and  O_23 
REMARK   14  A    between atoms: C_21  and  C_19 
REMARK   15  A    between atoms: C_21  and  O_22 
REMARK   16  A    between atoms: O_23  and  P_30 
REMARK   17  A    between atoms: P_30  and  O_24 
REMARK   18  A    between atoms: O_24  and  P_31 
REMARK   19  A    between atoms: P_31  and  O_25 
REMARK   20  A    between atoms: C_32  and  O_25 
REMARK   21  A    between atoms: P_30  and  O_27 
REMARK   22  A    between atoms: P_31  and  O_29 
REMARK   23  A    between atoms: O_33  and  P_36 
REMARK   24  A    between atoms: P_36  and  O_34 
REMARK   25  A    between atoms: P_36  and  O_35 
REMARK   26  A    between atoms: N_50  and  C_46 
REMARK   27  A    between atoms: S_51  and  C_59 
REMARK   28  A    between atoms: C_59  and  C_52 
REMARK   29  A    between atoms: C_52  and  C_53 
REMARK   30  A    between atoms: C_53  and  C_54 
REMARK   31  A    between atoms: C_54  and  C_55 
REMARK   32  A    between atoms: C_55  and  C_56 
REMARK   33  A    between atoms: C_56  and  C_57 
ROOT
HETATM    1  O   UNK N   1      28.141  19.232   7.792  0.00  0.00    -0.195 OA
ENDROOT
BRANCH   1   2
HETATM    2  P   UNK N   1      28.565  18.663   6.194  0.00  0.00     0.401 P 
HETATM    3  O   UNK N   1      27.771  19.958   5.868  0.00  0.00    -0.631 OA
BRANCH   2   4
HETATM    4  O   UNK N   1      27.741  18.281   4.711  0.00  0.00    -0.296 OA
BRANCH   4   5
HETATM    5  C   UNK N   1      27.234  19.521   4.282  0.00  0.00     0.192 C 
BRANCH   5   6
HETATM    6  C   UNK N   1      25.868  19.438   3.565  0.00  0.00     0.009 C 
HETATM    7  C   UNK N   1      25.693  20.526   2.517  0.00  0.00     0.020 C 
HETATM    8  C   UNK N   1      25.872  18.111   2.830  0.00  0.00     0.020 C 
BRANCH   6   9
HETATM    9  C   UNK N   1      24.673  19.403   4.544  0.00  0.00     0.219 C 
BRANCH   9  10
HETATM   10  C   UNK N   1      23.292  19.107   4.024  0.00  0.00     0.247 C 
HETATM   11  N   UNK N   1      22.683  17.924   4.287  0.00  0.00    -0.358 N 
HETATM   12  H   UNK N   1      23.086  17.327   4.957  0.00  0.00     0.162 HD
HETATM   13  O   UNK N   1      22.748  19.937   3.312  0.00  0.00    -0.271 OA
BRANCH  11  14
HETATM   14  C   UNK N   1      21.470  17.502   3.627  0.00  0.00     0.132 C 
BRANCH  14  15
HETATM   15  C   UNK N   1      20.272  17.396   4.561  0.00  0.00     0.122 C 
BRANCH  15  16
HETATM   16  C   UNK N   1      20.740  17.517   5.988  0.00  0.00     0.219 C 
HETATM   17  N   UNK N   1      20.864  16.434   6.797  0.00  0.00    -0.360 N 
HETATM   18  H   UNK N   1      21.142  16.568   7.732  0.00  0.00     0.162 HD
HETATM   19  O   UNK N   1      21.000  18.624   6.431  0.00  0.00    -0.274 OA
BRANCH  17  20
HETATM   20  C   UNK N   1      20.602  15.093   6.335  0.00  0.00     0.133 C 
BRANCH  20  21
HETATM   21  C   UNK N   1      21.842  14.238   6.503  0.00  0.00     0.102 C 
BRANCH  21  22
HETATM   22  S   UNK N   1      22.594  13.981   4.871  0.00  0.00    -0.091 SA
BRANCH  22  23
HETATM   23  C   UNK N   1      24.102  14.822   5.334  0.00  0.00     0.186 C 
HETATM   24  O   UNK N   1      24.875  15.200   4.466  0.00  0.00    -0.286 OA
BRANCH  23  25
HETATM   25  C   UNK N   1      24.395  15.045   6.791  0.00  0.00     0.091 C 
BRANCH  25  26
HETATM   26  C   UNK N   1      25.445  14.098   7.361  0.00  0.00     0.008 C 
BRANCH  26  27
HETATM   27  C   UNK N   1      24.787  12.895   8.017  0.00  0.00     0.000 C 
BRANCH  27  28
HETATM   28  C   UNK N   1      24.596  13.131   9.503  0.00  0.00     0.000 C 
BRANCH  28  29
HETATM   29  C   UNK N   1      23.135  12.956   9.865  0.00  0.00    -0.000 C 
BRANCH  29  30
HETATM   30  C   UNK N   1      22.945  11.670  10.636  0.00  0.00    -0.005 C 
HETATM   31  C   UNK N   1      23.124  11.950  12.111  0.00  0.00     0.005 C 
ENDBRANCH  29  30
ENDBRANCH  28  29
ENDBRANCH  27  28
ENDBRANCH  26  27
ENDBRANCH  25  26
ENDBRANCH  23  25
ENDBRANCH  22  23
ENDBRANCH  21  22
ENDBRANCH  20  21
ENDBRANCH  17  20
ENDBRANCH  15  16
ENDBRANCH  14  15
ENDBRANCH  11  14
ENDBRANCH   9  10
BRANCH   9  32
HETATM   32  O   UNK N   1      24.945  18.616   5.669  0.00  0.00    -0.385 OA
HETATM   33  H   UNK N   1      24.620  18.592   6.583  0.00  0.00     0.210 HD
ENDBRANCH   9  32
ENDBRANCH   6   9
ENDBRANCH   5   6
ENDBRANCH   4   5
ENDBRANCH   2   4
BRANCH   2  34
HETATM   34  O   UNK N   1      27.287  17.592   6.686  0.00  0.00    -0.307 OA
HETATM   35  H   UNK N   1      26.946  16.860   6.147  0.00  0.00     0.222 HD
ENDBRANCH   2  34
ENDBRANCH   1   2
BRANCH   1  36
HETATM   36  P   UNK N   1      28.753  18.021   8.914  0.00  0.00     0.401 P 
HETATM   37  O   UNK N   1      29.354  18.709  10.171  0.00  0.00    -0.631 OA
BRANCH  36  38
HETATM   38  O   UNK N   1      29.987  16.993   8.256  0.00  0.00    -0.294 OA
BRANCH  38  39
HETATM   39  C   UNK N   1      31.205  17.632   8.487  0.00  0.00     0.215 C 
BRANCH  39  40
HETATM   40  C   UNK N   1      32.308  16.687   8.065  0.00  0.00     0.180 C 
HETATM   41  O   UNK N   1      33.522  16.963   8.707  0.00  0.00    -0.353 OA
HETATM   42  C   UNK N   1      34.485  16.297   7.914  0.00  0.00     0.262 C 
HETATM   43  C   UNK N   1      33.841  15.945   6.580  0.00  0.00     0.199 C 
HETATM   44  C   UNK N   1      32.590  16.760   6.593  0.00  0.00     0.197 C 
BRANCH  42  45
HETATM   45  N   UNK N   1      34.956  15.082   8.583  0.00  0.00    -0.297 N 
HETATM   46  C   UNK N   1      35.425  14.962   9.831  0.00  0.00     0.142 A 
HETATM   47  C   UNK N   1      35.756  13.678  10.064  0.00  0.00     0.122 A 
HETATM   48  N   UNK N   1      35.582  15.935  10.760  0.00  0.00    -0.336 N 
HETATM   49  C   UNK N   1      36.274  13.305  11.292  0.00  0.00     0.131 A 
HETATM   50  N   UNK N   1      35.505  12.935   8.968  0.00  0.00    -0.346 N 
HETATM   51  N   UNK N   1      36.441  14.277  12.239  0.00  0.00    -0.337 N 
HETATM   52  C   UNK N   1      36.100  15.582  11.978  0.00  0.00     0.183 A 
ATOM     53  HN  UNK N   1      36.823  14.031  13.151  1.00  0.00     0.168 HD
HETATM   54  C   UNK N   1      35.014  13.826   8.063  0.00  0.00     0.188 A 
ATOM     55  HN  UNK N   1      35.651  11.934   8.845  1.00  0.00     0.167 HD
ATOM     56  HN  UNK N   1      35.323  16.901  10.558  1.00  0.00     0.168 HD
BRANCH  49  57
HETATM   57  N   UNK N   1      36.625  11.968  11.566  0.00  0.00    -0.383 N 
HETATM   58  H   UNK N   1      36.916  11.310  10.895  0.00  0.00     0.157 HD
HETATM   59  H   UNK N   1      36.574  11.668  12.503  0.00  0.00     0.157 HD
ENDBRANCH  49  57
ENDBRANCH  42  45
BRANCH  43  60
HETATM   60  O   UNK N   1      34.674  16.328   5.529  0.00  0.00    -0.388 OA
HETATM   61  H   UNK N   1      34.659  17.144   5.004  0.00  0.00     0.210 HD
ENDBRANCH  43  60
BRANCH  44  62
HETATM   62  O   UNK N   1      31.562  16.156   5.855  0.00  0.00    -0.286 OA
BRANCH  62  63
HETATM   63  P   UNK N   1      31.729  16.666   4.190  0.00  0.00     0.391 P 
HETATM   64  O   UNK N   1      32.563  17.976   4.128  0.00  0.00    -0.632 OA
BRANCH  63  65
HETATM   65  O   UNK N   1      30.186  17.013   3.480  0.00  0.00    -0.307 OA
HETATM   66  H   UNK N   1      29.443  16.439   3.238  0.00  0.00     0.222 HD
ENDBRANCH  63  65
BRANCH  63  67
HETATM   67  O   UNK N   1      32.566  15.464   3.262  0.00  0.00    -0.307 OA
HETATM   68  H   UNK N   1      33.280  14.942   3.659  0.00  0.00     0.222 HD
ENDBRANCH  63  67
ENDBRANCH  62  63
ENDBRANCH  44  62
ENDBRANCH  39  40
ENDBRANCH  38  39
ENDBRANCH  36  38
BRANCH  36  69
HETATM   69  O   UNK N   1      27.449  17.023   9.478  0.00  0.00    -0.307 OA
HETATM   70  H   UNK N   1      26.551  16.851   9.802  0.00  0.00     0.222 HD
ENDBRANCH  36  69
ENDBRANCH   1  36
TORSDOF 33
ENDMDL
MODEL 9
REMARK VINA RESULT:      -5.9      4.603      8.596
REMARK WARNING: 32 MAX_TORS EXCEEDED!!!
REMARK  33 active torsions:
REMARK  status: ('A' for Active; 'I' for Inactive)
REMARK    1  A    between atoms: C_1  and  N_38 
REMARK    2  A    between atoms: C_3  and  O_6 
REMARK    3  A    between atoms: C_4  and  C_32 
REMARK    4  A    between atoms: C_5  and  O_33 
REMARK    5  A    between atoms: N_9  and  C_7 
REMARK    6  A    between atoms: C_7  and  C_8 
REMARK    7  A    between atoms: C_8  and  S_51 
REMARK       I    between atoms: C_10  and  N_9 
REMARK    8  A    between atoms: C_13  and  C_10 
REMARK    9  A    between atoms: C_12  and  N_14 
REMARK   10  A    between atoms: C_13  and  C_12 
REMARK       I    between atoms: C_16  and  N_14 
REMARK   11  A    between atoms: C_16  and  C_21 
REMARK   12  A    between atoms: C_19  and  C_17 
REMARK   13  A    between atoms: C_17  and  O_23 
REMARK   14  A    between atoms: C_21  and  C_19 
REMARK   15  A    between atoms: C_21  and  O_22 
REMARK   16  A    between atoms: O_23  and  P_30 
REMARK   17  A    between atoms: P_30  and  O_24 
REMARK   18  A    between atoms: O_24  and  P_31 
REMARK   19  A    between atoms: P_31  and  O_25 
REMARK   20  A    between atoms: C_32  and  O_25 
REMARK   21  A    between atoms: P_30  and  O_27 
REMARK   22  A    between atoms: P_31  and  O_29 
REMARK   23  A    between atoms: O_33  and  P_36 
REMARK   24  A    between atoms: P_36  and  O_34 
REMARK   25  A    between atoms: P_36  and  O_35 
REMARK   26  A    between atoms: N_50  and  C_46 
REMARK   27  A    between atoms: S_51  and  C_59 
REMARK   28  A    between atoms: C_59  and  C_52 
REMARK   29  A    between atoms: C_52  and  C_53 
REMARK   30  A    between atoms: C_53  and  C_54 
REMARK   31  A    between atoms: C_54  and  C_55 
REMARK   32  A    between atoms: C_55  and  C_56 
REMARK   33  A    between atoms: C_56  and  C_57 
ROOT
HETATM    1  O   UNK N   1      28.139  19.286   7.743  0.00  0.00    -0.195 OA
ENDROOT
BRANCH   1   2
HETATM    2  P   UNK N   1      28.496  18.646   6.155  0.00  0.00     0.401 P 
HETATM    3  O   UNK N   1      27.758  19.967   5.804  0.00  0.00    -0.631 OA
BRANCH   2   4
HETATM    4  O   UNK N   1      27.618  18.258   4.704  0.00  0.00    -0.296 OA
BRANCH   4   5
HETATM    5  C   UNK N   1      27.132  19.503   4.266  0.00  0.00     0.192 C 
BRANCH   5   6
HETATM    6  C   UNK N   1      25.760  19.439   3.559  0.00  0.00     0.009 C 
HETATM    7  C   UNK N   1      25.640  20.448   2.428  0.00  0.00     0.020 C 
HETATM    8  C   UNK N   1      25.687  18.060   2.931  0.00  0.00     0.020 C 
BRANCH   6   9
HETATM    9  C   UNK N   1      24.570  19.549   4.538  0.00  0.00     0.219 C 
BRANCH   9  10
HETATM   10  C   UNK N   1      23.231  18.984   4.150  0.00  0.00     0.247 C 
HETATM   11  N   UNK N   1      22.778  17.823   4.684  0.00  0.00    -0.358 N 
HETATM   12  H   UNK N   1      23.261  17.438   5.450  0.00  0.00     0.162 HD
HETATM   13  O   UNK N   1      22.578  19.567   3.298  0.00  0.00    -0.271 OA
BRANCH  11  14
HETATM   14  C   UNK N   1      21.618  17.125   4.179  0.00  0.00     0.132 C 
BRANCH  14  15
HETATM   15  C   UNK N   1      20.531  16.911   5.223  0.00  0.00     0.122 C 
BRANCH  15  16
HETATM   16  C   UNK N   1      21.084  17.230   6.590  0.00  0.00     0.219 C 
HETATM   17  N   UNK N   1      21.511  16.257   7.435  0.00  0.00    -0.360 N 
HETATM   18  H   UNK N   1      21.832  16.513   8.330  0.00  0.00     0.162 HD
HETATM   19  O   UNK N   1      21.131  18.395   6.949  0.00  0.00    -0.274 OA
BRANCH  17  20
HETATM   20  C   UNK N   1      21.511  14.862   7.068  0.00  0.00     0.133 C 
BRANCH  20  21
HETATM   21  C   UNK N   1      22.926  14.320   7.103  0.00  0.00     0.102 C 
BRANCH  21  22
HETATM   22  S   UNK N   1      23.466  14.003   5.400  0.00  0.00    -0.091 SA
BRANCH  22  23
HETATM   23  C   UNK N   1      24.939  14.999   5.587  0.00  0.00     0.186 C 
HETATM   24  O   UNK N   1      24.837  16.179   5.893  0.00  0.00    -0.286 OA
BRANCH  23  25
HETATM   25  C   UNK N   1      26.282  14.367   5.358  0.00  0.00     0.091 C 
BRANCH  25  26
HETATM   26  C   UNK N   1      26.952  14.795   4.058  0.00  0.00     0.008 C 
BRANCH  26  27
HETATM   27  C   UNK N   1      26.453  13.958   2.891  0.00  0.00     0.000 C 
BRANCH  27  28
HETATM   28  C   UNK N   1      27.576  13.117   2.313  0.00  0.00     0.000 C 
BRANCH  28  29
HETATM   29  C   UNK N   1      27.007  11.849   1.710  0.00  0.00    -0.000 C 
BRANCH  29  30
HETATM   30  C   UNK N   1      28.051  11.176   0.849  0.00  0.00    -0.005 C 
HETATM   31  C   UNK N   1      29.266  12.072   0.758  0.00  0.00     0.005 C 
ENDBRANCH  29  30
ENDBRANCH  28  29
ENDBRANCH  27  28
ENDBRANCH  26  27
ENDBRANCH  25  26
ENDBRANCH  23  25
ENDBRANCH  22  23
ENDBRANCH  21  22
ENDBRANCH  20  21
ENDBRANCH  17  20
ENDBRANCH  15  16
ENDBRANCH  14  15
ENDBRANCH  11  14
ENDBRANCH   9  10
BRANCH   9  32
HETATM   32  O   UNK N   1      24.917  19.128   5.827  0.00  0.00    -0.385 OA
HETATM   33  H   UNK N   1      25.548  19.430   6.500  0.00  0.00     0.210 HD
ENDBRANCH   9  32
ENDBRANCH   6   9
ENDBRANCH   5   6
ENDBRANCH   4   5
ENDBRANCH   2   4
BRANCH   2  34
HETATM   34  O   UNK N   1      27.179  17.655   6.711  0.00  0.00    -0.307 OA
HETATM   35  H   UNK N   1      26.262  17.959   6.797  0.00  0.00     0.222 HD
ENDBRANCH   2  34
ENDBRANCH   1   2
BRANCH   1  36
HETATM   36  P   UNK N   1      28.771  18.109   8.890  0.00  0.00     0.401 P 
HETATM   37  O   UNK N   1      29.394  18.835  10.116  0.00  0.00    -0.631 OA
BRANCH  36  38
HETATM   38  O   UNK N   1      29.995  17.062   8.243  0.00  0.00    -0.294 OA
BRANCH  38  39
HETATM   39  C   UNK N   1      31.217  17.703   8.445  0.00  0.00     0.215 C 
BRANCH  39  40
HETATM   40  C   UNK N   1      32.312  16.748   8.023  0.00  0.00     0.180 C 
HETATM   41  O   UNK N   1      33.539  17.041   8.632  0.00  0.00    -0.353 OA
HETATM   42  C   UNK N   1      34.487  16.356   7.835  0.00  0.00     0.262 C 
HETATM   43  C   UNK N   1      33.815  15.970   6.525  0.00  0.00     0.199 C 
HETATM   44  C   UNK N   1      32.564  16.785   6.544  0.00  0.00     0.197 C 
BRANCH  42  45
HETATM   45  N   UNK N   1      34.973  15.158   8.525  0.00  0.00    -0.297 N 
HETATM   46  C   UNK N   1      35.405  15.057   9.787  0.00  0.00     0.142 A 
HETATM   47  C   UNK N   1      35.768  13.785  10.037  0.00  0.00     0.122 A 
HETATM   48  N   UNK N   1      35.502  16.038  10.717  0.00  0.00    -0.336 N 
HETATM   49  C   UNK N   1      36.258  13.433  11.283  0.00  0.00     0.131 A 
HETATM   50  N   UNK N   1      35.575  13.032   8.938  0.00  0.00    -0.346 N 
HETATM   51  N   UNK N   1      36.364  14.413  12.230  0.00  0.00    -0.337 N 
HETATM   52  C   UNK N   1      35.992  15.706  11.952  0.00  0.00     0.183 A 
ATOM     53  HN  UNK N   1      36.724  14.182  13.155  1.00  0.00     0.168 HD
HETATM   54  C   UNK N   1      35.086  13.904   8.013  0.00  0.00     0.188 A 
ATOM     55  HN  UNK N   1      35.755  12.034   8.824  1.00  0.00     0.167 HD
ATOM     56  HN  UNK N   1      35.220  16.995  10.503  1.00  0.00     0.168 HD
BRANCH  49  57
HETATM   57  N   UNK N   1      36.640  12.108  11.574  0.00  0.00    -0.383 N 
HETATM   58  H   UNK N   1      36.973  11.457  10.916  0.00  0.00     0.157 HD
HETATM   59  H   UNK N   1      36.569  11.811  12.510  0.00  0.00     0.157 HD
ENDBRANCH  49  57
ENDBRANCH  42  45
BRANCH  43  60
HETATM   60  O   UNK N   1      34.625  16.328   5.447  0.00  0.00    -0.388 OA
HETATM   61  H   UNK N   1      34.598  17.130   4.903  0.00  0.00     0.210 HD
ENDBRANCH  43  60
BRANCH  44  62
HETATM   62  O   UNK N   1      31.521  16.162   5.842  0.00  0.00    -0.286 OA
BRANCH  62  63
HETATM   63  P   UNK N   1      31.639  16.646   4.167  0.00  0.00     0.391 P 
HETATM   64  O   UNK N   1      32.393  18.003   4.069  0.00  0.00    -0.632 OA
BRANCH  63  65
HETATM   65  O   UNK N   1      30.071  16.887   3.467  0.00  0.00    -0.307 OA
HETATM   66  H   UNK N   1      29.362  16.264   3.246  0.00  0.00     0.222 HD
ENDBRANCH  63  65
BRANCH  63  67
HETATM   67  O   UNK N   1      32.537  15.478   3.253  0.00  0.00    -0.307 OA
HETATM   68  H   UNK N   1      33.310  15.746   2.731  0.00  0.00     0.222 HD
ENDBRANCH  63  67
ENDBRANCH  62  63
ENDBRANCH  44  62
ENDBRANCH  39  40
ENDBRANCH  38  39
ENDBRANCH  36  38
BRANCH  36  69
HETATM   69  O   UNK N   1      27.479  17.129   9.507  0.00  0.00    -0.307 OA
HETATM   70  H   UNK N   1      27.093  16.422  10.048  0.00  0.00     0.222 HD
ENDBRANCH  36  69
ENDBRANCH   1  36
TORSDOF 33
ENDMDL
