REMARK  15 active torsions:
REMARK  status: ('A' for Active; 'I' for Inactive)
REMARK    1  A    between atoms: C_4  and  C_5 
REMARK    2  A    between atoms: C_5  and  C_6 
REMARK    3  A    between atoms: C_6  and  C_7 
REMARK    4  A    between atoms: C_9  and  C_10 
REMARK    5  A    between atoms: C_10  and  C_11 
REMARK    6  A    between atoms: C_11  and  C_12 
REMARK    7  A    between atoms: C_12  and  C_24 
REMARK    8  A    between atoms: C_13  and  C_14 
REMARK    9  A    between atoms: C_14  and  O_15 
REMARK   10  A    between atoms: P_16  and  O_15 
REMARK   11  A    between atoms: P_16  and  O_17 
REMARK   12  A    between atoms: P_16  and  O_19 
REMARK   13  A    between atoms: O_19  and  P_20 
REMARK   14  A    between atoms: P_20  and  O_21 
REMARK   15  A    between atoms: P_20  and  O_22 
ROOT
HETATM    1  C   UNK N   1       1.270  -1.013  -0.116  0.00  0.00     0.024 C 
HETATM    2  C   UNK N   1       1.286  -2.349   0.047  0.00  0.00     0.011 C 
ENDROOT
BRANCH   1   3
HETATM    3  C   UNK N   1      -0.064  -0.374  -0.375  0.00  0.00     0.047 C 
BRANCH   3   4
HETATM    4  C   UNK N   1      -0.434   0.537   0.782  0.00  0.00     0.032 C 
BRANCH   4   5
HETATM    5  C   UNK N   1      -1.415   1.580   0.351  0.00  0.00    -0.024 C 
HETATM    6  C   UNK N   1      -1.065   2.863   0.190  0.00  0.00    -0.087 C 
HETATM    7  C   UNK N   1       0.358   3.301   0.404  0.00  0.00     0.043 C 
BRANCH   6   8
HETATM    8  C   UNK N   1      -2.132   3.852  -0.188  0.00  0.00     0.037 C 
BRANCH   8   9
HETATM    9  C   UNK N   1      -1.610   5.276  -0.297  0.00  0.00     0.031 C 
BRANCH   9  10
HETATM   10  C   UNK N   1      -2.730   6.246  -0.098  0.00  0.00    -0.024 C 
HETATM   11  C   UNK N   1      -2.533   7.569  -0.067  0.00  0.00    -0.091 C 
HETATM   12  C   UNK N   1      -3.697   8.472   0.150  0.00  0.00     0.042 C 
HETATM   13  C   UNK N   1      -1.171   8.165  -0.230  0.00  0.00     0.042 C 
ENDBRANCH   9  10
ENDBRANCH   8   9
ENDBRANCH   6   8
ENDBRANCH   4   5
ENDBRANCH   3   4
ENDBRANCH   1   3
BRANCH   1  14
HETATM   14  C   UNK N   1       2.491  -0.104  -0.057  0.00  0.00     0.413 C 
HETATM   15  F   UNK N   1       2.352   0.807   0.972  0.00  0.00    -0.166 F 
HETATM   16  F   UNK N   1       3.672  -0.777   0.148  0.00  0.00    -0.166 F 
HETATM   17  F   UNK N   1       2.591   0.585  -1.250  0.00  0.00    -0.166 F 
ENDBRANCH   1  14
BRANCH   2  18
HETATM   18  C   UNK N   1       2.472  -3.220   0.359  0.00  0.00     0.208 C 
BRANCH  18  19
HETATM   19  O   UNK N   1       3.383  -3.267  -0.700  0.00  0.00    -0.293 OA
BRANCH  19  20
HETATM   20  P   UNK N   1       4.969  -3.460   0.020  0.00  0.00     0.402 P 
HETATM   21  O   UNK N   1       4.899  -3.004   1.509  0.00  0.00    -0.631 OA
BRANCH  20  22
HETATM   22  O   UNK N   1       5.450  -5.128   0.017  0.00  0.00    -0.307 OA
HETATM   23  H   UNK N   1       4.777  -5.826   0.015  0.00  0.00     0.222 HD
ENDBRANCH  20  22
BRANCH  20  24
HETATM   24  O   UNK N   1       6.131  -2.470  -0.842  0.00  0.00    -0.195 OA
BRANCH  24  25
HETATM   25  P   UNK N   1       7.182  -1.724   0.334  0.00  0.00     0.399 P 
HETATM   26  O   UNK N   1       6.584  -0.499  -0.410  0.00  0.00    -0.631 OA
BRANCH  25  27
HETATM   27  O   UNK N   1       8.595  -0.858  -0.180  0.00  0.00    -0.307 OA
HETATM   28  H   UNK N   1       9.410  -1.300  -0.467  0.00  0.00     0.222 HD
ENDBRANCH  25  27
BRANCH  25  29
HETATM   29  O   UNK N   1       8.117  -2.687  -0.766  0.00  0.00    -0.307 OA
HETATM   30  H   UNK N   1       7.912  -3.409  -1.381  0.00  0.00     0.222 HD
ENDBRANCH  25  29
ENDBRANCH  24  25
ENDBRANCH  20  24
ENDBRANCH  19  20
ENDBRANCH  18  19
ENDBRANCH   2  18
TORSDOF 15
