REMARK  8 active torsions:
REMARK  status: ('A' for Active; 'I' for Inactive)
REMARK    1  A    between atoms: C_2  and  O_1 
REMARK    2  A    between atoms: C_4  and  O_5 
REMARK    3  A    between atoms: C_6  and  O_7 
REMARK    4  A    between atoms: C_8  and  C_9 
REMARK    5  A    between atoms: C_9  and  O_10 
REMARK    6  A    between atoms: O_10  and  P_11 
REMARK    7  A    between atoms: P_11  and  O_12 
REMARK    8  A    between atoms: P_11  and  O_13 
ROOT
HETATM    1  C   UNK N   1       1.920  -0.438  -0.125  0.00  0.00     0.260 C 
HETATM    2  C   UNK N   1       0.721  -1.384  -0.119  0.00  0.00     0.095 C 
HETATM    3  C   UNK N   1      -0.514  -0.581  -0.502  0.00  0.00     0.154 C 
HETATM    4  C   UNK N   1      -0.650   0.598   0.454  0.00  0.00     0.178 C 
HETATM    5  C   UNK N   1       0.656   1.406   0.480  0.00  0.00     0.180 C 
HETATM    6  O   UNK N   1       1.761   0.588   0.834  0.00  0.00    -0.351 OA
ENDROOT
BRANCH   5   7
HETATM    7  C   UNK N   1       0.893   2.228  -0.796  0.00  0.00     0.215 C 
BRANCH   7   8
HETATM    8  O   UNK N   1       1.977   3.109  -0.657  0.00  0.00    -0.294 OA
BRANCH   8   9
HETATM    9  P   UNK N   1       1.376   4.499   0.216  0.00  0.00     0.390 P 
HETATM   10  O   UNK N   1       1.107   5.001  -1.229  0.00  0.00    -0.632 OA
BRANCH   9  11
HETATM   11  O   UNK N   1       2.177   6.037   0.260  0.00  0.00    -0.307 OA
HETATM   12  H   UNK N   1       3.146   6.079   0.285  0.00  0.00     0.222 HD
ENDBRANCH   9  11
BRANCH   9  13
HETATM   13  O   UNK N   1       3.099   4.339   0.367  0.00  0.00    -0.307 OA
HETATM   14  H   UNK N   1       3.503   3.461   0.452  0.00  0.00     0.222 HD
ENDBRANCH   9  13
ENDBRANCH   8   9
ENDBRANCH   7   8
ENDBRANCH   5   7
BRANCH   4  15
HETATM   15  O   UNK N   1      -1.725   1.411   0.082  0.00  0.00    -0.390 OA
HETATM   16  H   UNK N   1      -1.610   2.339  -0.177  0.00  0.00     0.210 HD
ENDBRANCH   4  15
BRANCH   3  17
HETATM   17  O   UNK N   1      -1.646  -1.393  -0.433  0.00  0.00    -0.393 OA
HETATM   18  H   UNK N   1      -2.529  -0.994  -0.385  0.00  0.00     0.210 HD
ENDBRANCH   3  17
BRANCH   1  19
HETATM   19  O   UNK N   1       3.080  -1.160   0.158  0.00  0.00    -0.371 OA
HETATM   20  H   UNK N   1       3.048  -2.109   0.355  0.00  0.00     0.212 HD
ENDBRANCH   1  19
TORSDOF 8
