REMARK  4 active torsions:
REMARK  status: ('A' for Active; 'I' for Inactive)
REMARK    1  A    between atoms: C_2  and  O_4 
REMARK    2  A    between atoms: O_4  and  P_5 
REMARK    3  A    between atoms: P_5  and  O_6 
REMARK    4  A    between atoms: P_5  and  O_7 
ROOT
HETATM    1  P   UNK N   1       1.113   0.524   0.696  0.00  0.00     0.398 P 
HETATM    2  O   UNK N   1      -0.016   0.830  -0.326  0.00  0.00    -0.631 OA
ENDROOT
BRANCH   1   3
HETATM    3  O   UNK N   1       1.139  -1.001  -0.121  0.00  0.00    -0.221 OA
BRANCH   3   4
HETATM    4  C   UNK N   1       0.117  -1.902  -0.096  0.00  0.00     0.263 C 
HETATM    5  C   UNK N   1       0.330  -3.259  -0.677  0.00  0.00     0.126 C 
HETATM    6  O   UNK N   1      -0.957  -1.623   0.400  0.00  0.00    -0.265 OA
ENDBRANCH   3   4
ENDBRANCH   1   3
BRANCH   1   7
HETATM    7  O   UNK N   1       1.685   1.990  -0.034  0.00  0.00    -0.307 OA
HETATM    8  H   UNK N   1       2.555   2.123  -0.442  0.00  0.00     0.222 HD
ENDBRANCH   1   7
BRANCH   1   9
HETATM    9  O   UNK N   1       2.583   0.317  -0.205  0.00  0.00    -0.307 OA
HETATM   10  H   UNK N   1       2.893  -0.452  -0.709  0.00  0.00     0.222 HD
ENDBRANCH   1   9
TORSDOF 4
