REMARK  11 active torsions:
REMARK  status: ('A' for Active; 'I' for Inactive)
REMARK    1  A    between atoms: N_1  and  C_2 
REMARK    2  A    between atoms: C_3  and  S_51 
REMARK    3  A    between atoms: C_5  and  N_6 
REMARK    4  A    between atoms: N_6  and  C_7 
REMARK    5  A    between atoms: C_10  and  N_11 
REMARK       I    between atoms: N_11  and  C_12 
REMARK       I    between atoms: C_19  and  N_20 
REMARK    6  A    between atoms: N_20  and  C_21 
REMARK    7  A    between atoms: C_26  and  S_27 
REMARK    8  A    between atoms: S_27  and  O_28 
REMARK    9  A    between atoms: C_33  and  S_35 
REMARK   10  A    between atoms: S_35  and  O_36 
REMARK   11  A    between atoms: S_51  and  O_52 
ROOT
HETATM    1  C   UNK N   1       3.460   3.610  -0.118  0.00  0.00     0.034 A 
HETATM    2  C   UNK N   1       3.658   4.850  -0.724  0.00  0.00     0.032 A 
HETATM    3  C   UNK N   1       4.915   5.469  -0.636  0.00  0.00     0.034 A 
HETATM    4  C   UNK N   1       5.984   4.858   0.049  0.00  0.00     0.072 A 
HETATM    5  C   UNK N   1       5.724   3.641   0.754  0.00  0.00     0.101 A 
HETATM    6  C   UNK N   1       4.479   3.062   0.640  0.00  0.00     0.057 A 
ENDROOT
BRANCH   1   7
HETATM    7  N   UNK N   1       2.268   2.861  -0.340  0.00  0.00    -0.355 N 
HETATM    8  H   UNK N   1       1.435   3.349  -0.534  0.00  0.00     0.166 HD
BRANCH   7   9
HETATM    9  C   UNK N   1       2.231   1.425  -0.294  0.00  0.00     0.049 A 
HETATM   10  C   UNK N   1       3.428   0.698  -0.313  0.00  0.00     0.058 A 
HETATM   11  C   UNK N   1       3.457  -0.683  -0.274  0.00  0.00     0.101 A 
HETATM   12  C   UNK N   1       2.260  -1.400  -0.231  0.00  0.00     0.065 A 
HETATM   13  C   UNK N   1       1.018  -0.708  -0.224  0.00  0.00     0.059 A 
HETATM   14  C   UNK N   1       1.004   0.719  -0.254  0.00  0.00     0.058 A 
HETATM   15  C   UNK N   1      -0.277  -1.452  -0.178  0.00  0.00     0.196 A 
HETATM   16  C   UNK N   1      -0.302   1.443  -0.229  0.00  0.00     0.196 A 
HETATM   17  C   UNK N   1      -1.569   0.687  -0.162  0.00  0.00     0.029 A 
HETATM   18  O   UNK N   1      -0.338   2.665  -0.252  0.00  0.00    -0.286 OA
HETATM   19  C   UNK N   1      -2.793   1.370  -0.118  0.00  0.00     0.016 A 
HETATM   20  C   UNK N   1      -1.556  -0.717  -0.139  0.00  0.00     0.029 A 
HETATM   21  C   UNK N   1      -3.994   0.662  -0.052  0.00  0.00     0.001 A 
HETATM   22  C   UNK N   1      -3.982  -0.733  -0.031  0.00  0.00     0.001 A 
HETATM   23  C   UNK N   1      -2.768  -1.421  -0.075  0.00  0.00     0.016 A 
HETATM   24  O   UNK N   1      -0.293  -2.675  -0.167  0.00  0.00    -0.286 OA
BRANCH  11  25
HETATM   25  S   UNK N   1       5.055  -1.504  -0.247  0.00  0.00     0.132 S 
HETATM   26  O   UNK N   1       6.127  -0.655  -0.948  0.00  0.00    -0.597 OA
HETATM   27  O   UNK N   1       5.086  -2.783  -1.097  0.00  0.00    -0.597 OA
BRANCH  25  28
HETATM   28  O   UNK N   1       5.740  -1.930   1.268  0.00  0.00    -0.292 OA
HETATM   29  H   UNK N   1       5.725  -2.386   2.125  0.00  0.00     0.232 HD
ENDBRANCH  25  28
ENDBRANCH  11  25
BRANCH  12  30
HETATM   30  N   UNK N   1       2.306  -2.812  -0.184  0.00  0.00    -0.397 N 
HETATM   31  H   UNK N   1       1.471  -3.332  -0.152  0.00  0.00     0.156 HD
HETATM   32  H   UNK N   1       3.175  -3.276  -0.184  0.00  0.00     0.156 HD
ENDBRANCH  12  30
ENDBRANCH   7   9
ENDBRANCH   1   7
BRANCH   5  33
HETATM   33  S   UNK N   1       6.835   2.665   1.761  0.00  0.00     0.132 S 
HETATM   34  O   UNK N   1       7.317   1.504   0.887  0.00  0.00    -0.597 OA
HETATM   35  O   UNK N   1       8.149   3.296   2.244  0.00  0.00    -0.597 OA
BRANCH  33  36
HETATM   36  O   UNK N   1       6.160   1.841   3.106  0.00  0.00    -0.292 OA
HETATM   37  H   UNK N   1       5.566   1.939   3.867  0.00  0.00     0.232 HD
ENDBRANCH  33  36
ENDBRANCH   5  33
BRANCH   4  38
HETATM   38  N   UNK N   1       7.261   5.488  -0.051  0.00  0.00    -0.190 N 
HETATM   39  C   UNK N   1       8.492   4.826  -0.322  0.00  0.00     0.699 A 
HETATM   40  N   UNK N   1       9.626   5.552  -0.500  0.00  0.00    -0.164 N 
HETATM   41  N   UNK N   1       8.549   3.478  -0.421  0.00  0.00    -0.022 N 
HETATM   42  C   UNK N   1      10.803   4.922  -0.754  0.00  0.00     0.208 A 
ATOM     43  HN  UNK N   1       9.593   6.570  -0.444  1.00  0.00     0.186 HD
HETATM   44 Cl   UNK N   1      12.259   5.862  -1.002  0.00  0.00    -0.044 Cl
HETATM   45  N   UNK N   1      10.858   3.563  -0.789  0.00  0.00    -0.164 N 
HETATM   46  C   UNK N   1       9.723   2.834  -0.621  0.00  0.00     0.699 A 
ATOM     47  HN  UNK N   1      11.750   3.092  -0.941  1.00  0.00     0.186 HD
HETATM   48  N   UNK N   1       9.753   1.410  -0.513  0.00  0.00    -0.190 N 
HETATM   49  H   UNK N   1       8.902   0.964  -0.297  0.00  0.00     0.184 HD
ATOM     50  HN  UNK N   1       7.689   2.935  -0.344  1.00  0.00     0.203 HD
HETATM   51  H   UNK N   1       7.294   6.464   0.079  0.00  0.00     0.184 HD
BRANCH  48  52
HETATM   52  C   UNK N   1      10.889   0.570  -0.685  0.00  0.00     0.072 A 
HETATM   53  C   UNK N   1      12.039   1.050  -1.330  0.00  0.00     0.031 A 
HETATM   54  C   UNK N   1      13.149   0.225  -1.515  0.00  0.00     0.002 A 
HETATM   55  C   UNK N   1      13.125  -1.091  -1.057  0.00  0.00     0.002 A 
HETATM   56  C   UNK N   1      11.994  -1.583  -0.410  0.00  0.00     0.028 A 
HETATM   57  C   UNK N   1      10.873  -0.770  -0.216  0.00  0.00     0.099 A 
BRANCH  57  58
HETATM   58  S   UNK N   1       9.474  -1.500   0.653  0.00  0.00     0.132 S 
HETATM   59  O   UNK N   1       8.703  -0.528   1.550  0.00  0.00    -0.597 OA
HETATM   60  O   UNK N   1       9.990  -2.483   1.715  0.00  0.00    -0.597 OA
BRANCH  58  61
HETATM   61  O   UNK N   1       8.308  -2.412  -0.214  0.00  0.00    -0.292 OA
HETATM   62  H   UNK N   1       7.532  -2.098  -0.704  0.00  0.00     0.232 HD
ENDBRANCH  58  61
ENDBRANCH  57  58
ENDBRANCH  48  52
ENDBRANCH   4  38
TORSDOF 11
