MODEL 1
REMARK VINA RESULT:      -4.3      0.000      0.000
REMARK  5 active torsions:
REMARK  status: ('A' for Active; 'I' for Inactive)
REMARK    1  A    between atoms: C_2  and  N_3 
REMARK    2  A    between atoms: N_3  and  C_6 
REMARK    3  A    between atoms: C_6  and  C_7 
REMARK    4  A    between atoms: C_7  and  C_8 
REMARK    5  A    between atoms: C_8  and  S_9 
ROOT
HETATM    1  C   UNK N   1      31.282  17.116   7.135  0.00  0.00     0.237 C 
ENDROOT
BRANCH   1   2
HETATM    2  N   UNK N   1      30.397  16.614   6.081  0.00  0.00    -0.075 N 
HETATM    3  C   UNK N   1      30.738  15.232   5.752  0.00  0.00     0.272 C 
HETATM    4  C   UNK N   1      29.007  16.687   6.526  0.00  0.00     0.272 C 
BRANCH   2   5
HETATM    5  C   UNK N   1      30.599  17.476   4.913  0.00  0.00     0.232 C 
HETATM    6  C   UNK N   1      32.050  17.533   4.436  0.00  0.00     0.034 C 
ENDBRANCH   2   5
ENDBRANCH   1   2
BRANCH   1   7
HETATM    7  C   UNK N   1      32.142  16.030   7.778  0.00  0.00     0.045 C 
BRANCH   7   8
HETATM    8  C   UNK N   1      33.596  16.465   7.761  0.00  0.00     0.167 C 
BRANCH   8   9
HETATM    9  S   UNK N   1      33.704  18.251   8.083  0.00  0.00     0.101 S 
HETATM   10  O   UNK N   1      35.094  19.213   8.381  0.00  0.00    -0.595 OA
HETATM   11  O   UNK N   1      34.326  17.520   9.281  0.00  0.00    -0.595 OA
HETATM   12  O   UNK N   1      34.677  17.856   6.960  0.00  0.00    -0.595 OA
ENDBRANCH   8   9
ENDBRANCH   7   8
ENDBRANCH   1   7
TORSDOF 5
ENDMDL
MODEL 2
REMARK VINA RESULT:      -4.3     12.522     13.825
REMARK  5 active torsions:
REMARK  status: ('A' for Active; 'I' for Inactive)
REMARK    1  A    between atoms: C_2  and  N_3 
REMARK    2  A    between atoms: N_3  and  C_6 
REMARK    3  A    between atoms: C_6  and  C_7 
REMARK    4  A    between atoms: C_7  and  C_8 
REMARK    5  A    between atoms: C_8  and  S_9 
ROOT
HETATM    1  C   UNK N   1      27.113  24.176  -4.267  0.00  0.00     0.237 C 
ENDROOT
BRANCH   1   2
HETATM    2  N   UNK N   1      26.737  25.547  -4.618  0.00  0.00    -0.075 N 
HETATM    3  C   UNK N   1      26.530  26.340  -3.409  0.00  0.00     0.272 C 
HETATM    4  C   UNK N   1      27.788  26.155  -5.432  0.00  0.00     0.272 C 
BRANCH   2   5
HETATM    5  C   UNK N   1      25.492  25.461  -5.386  0.00  0.00     0.232 C 
HETATM    6  C   UNK N   1      24.906  26.823  -5.759  0.00  0.00     0.034 C 
ENDBRANCH   2   5
ENDBRANCH   1   2
BRANCH   1   7
HETATM    7  C   UNK N   1      28.623  23.942  -4.254  0.00  0.00     0.045 C 
BRANCH   7   8
HETATM    8  C   UNK N   1      29.034  23.391  -2.901  0.00  0.00     0.167 C 
BRANCH   8   9
HETATM    9  S   UNK N   1      30.836  23.156  -2.859  0.00  0.00     0.101 S 
HETATM   10  O   UNK N   1      31.739  21.834  -2.238  0.00  0.00    -0.595 OA
HETATM   11  O   UNK N   1      30.321  23.090  -1.414  0.00  0.00    -0.595 OA
HETATM   12  O   UNK N   1      30.156  21.919  -3.471  0.00  0.00    -0.595 OA
ENDBRANCH   8   9
ENDBRANCH   7   8
ENDBRANCH   1   7
TORSDOF 5
ENDMDL
MODEL 3
REMARK VINA RESULT:      -4.0      0.778      1.746
REMARK  5 active torsions:
REMARK  status: ('A' for Active; 'I' for Inactive)
REMARK    1  A    between atoms: C_2  and  N_3 
REMARK    2  A    between atoms: N_3  and  C_6 
REMARK    3  A    between atoms: C_6  and  C_7 
REMARK    4  A    between atoms: C_7  and  C_8 
REMARK    5  A    between atoms: C_8  and  S_9 
ROOT
HETATM    1  C   UNK N   1      31.629  16.625   7.460  0.00  0.00     0.237 C 
ENDROOT
BRANCH   1   2
HETATM    2  N   UNK N   1      30.748  16.676   6.291  0.00  0.00    -0.075 N 
HETATM    3  C   UNK N   1      31.442  17.290   5.161  0.00  0.00     0.272 C 
HETATM    4  C   UNK N   1      30.323  15.324   5.932  0.00  0.00     0.272 C 
BRANCH   2   5
HETATM    5  C   UNK N   1      29.586  17.484   6.670  0.00  0.00     0.232 C 
HETATM    6  C   UNK N   1      29.288  17.463   8.169  0.00  0.00     0.034 C 
ENDBRANCH   2   5
ENDBRANCH   1   2
BRANCH   1   7
HETATM    7  C   UNK N   1      32.780  15.632   7.313  0.00  0.00     0.045 C 
BRANCH   7   8
HETATM    8  C   UNK N   1      34.058  16.264   7.834  0.00  0.00     0.167 C 
BRANCH   8   9
HETATM    9  S   UNK N   1      33.779  18.031   8.155  0.00  0.00     0.101 S 
HETATM   10  O   UNK N   1      34.931  19.287   8.359  0.00  0.00    -0.595 OA
HETATM   11  O   UNK N   1      34.634  17.474   9.303  0.00  0.00    -0.595 OA
HETATM   12  O   UNK N   1      34.736  17.855   6.965  0.00  0.00    -0.595 OA
ENDBRANCH   8   9
ENDBRANCH   7   8
ENDBRANCH   1   7
TORSDOF 5
ENDMDL
MODEL 4
REMARK VINA RESULT:      -3.9      3.641      5.484
REMARK  5 active torsions:
REMARK  status: ('A' for Active; 'I' for Inactive)
REMARK    1  A    between atoms: C_2  and  N_3 
REMARK    2  A    between atoms: N_3  and  C_6 
REMARK    3  A    between atoms: C_6  and  C_7 
REMARK    4  A    between atoms: C_7  and  C_8 
REMARK    5  A    between atoms: C_8  and  S_9 
ROOT
HETATM    1  C   UNK N   1      34.310  14.115   9.092  0.00  0.00     0.237 C 
ENDROOT
BRANCH   1   2
HETATM    2  N   UNK N   1      35.132  13.639  10.207  0.00  0.00    -0.075 N 
HETATM    3  C   UNK N   1      34.879  12.221  10.452  0.00  0.00     0.272 C 
HETATM    4  C   UNK N   1      36.546  13.843   9.902  0.00  0.00     0.272 C 
BRANCH   2   5
HETATM    5  C   UNK N   1      34.750  14.429  11.381  0.00  0.00     0.232 C 
HETATM    6  C   UNK N   1      35.431  13.977  12.673  0.00  0.00     0.034 C 
ENDBRANCH   2   5
ENDBRANCH   1   2
BRANCH   1   7
HETATM    7  C   UNK N   1      33.800  15.543   9.276  0.00  0.00     0.045 C 
BRANCH   7   8
HETATM    8  C   UNK N   1      33.962  16.306   7.974  0.00  0.00     0.167 C 
BRANCH   8   9
HETATM    9  S   UNK N   1      33.825  18.091   8.290  0.00  0.00     0.101 S 
HETATM   10  O   UNK N   1      35.067  19.274   8.361  0.00  0.00    -0.595 OA
HETATM   11  O   UNK N   1      34.750  17.495   9.361  0.00  0.00    -0.595 OA
HETATM   12  O   UNK N   1      34.650  17.842   7.016  0.00  0.00    -0.595 OA
ENDBRANCH   8   9
ENDBRANCH   7   8
ENDBRANCH   1   7
TORSDOF 5
ENDMDL
MODEL 5
REMARK VINA RESULT:      -3.8      6.265      7.944
REMARK  5 active torsions:
REMARK  status: ('A' for Active; 'I' for Inactive)
REMARK    1  A    between atoms: C_2  and  N_3 
REMARK    2  A    between atoms: N_3  and  C_6 
REMARK    3  A    between atoms: C_6  and  C_7 
REMARK    4  A    between atoms: C_7  and  C_8 
REMARK    5  A    between atoms: C_8  and  S_9 
ROOT
HETATM    1  C   UNK N   1      35.631  13.531  12.838  0.00  0.00     0.237 C 
ENDROOT
BRANCH   1   2
HETATM    2  N   UNK N   1      35.699  12.189  13.423  0.00  0.00    -0.075 N 
HETATM    3  C   UNK N   1      35.512  11.176  12.387  0.00  0.00     0.272 C 
HETATM    4  C   UNK N   1      36.995  11.998  14.071  0.00  0.00     0.272 C 
BRANCH   2   5
HETATM    5  C   UNK N   1      34.623  12.104  14.414  0.00  0.00     0.232 C 
HETATM    6  C   UNK N   1      33.760  10.849  14.276  0.00  0.00     0.034 C 
ENDBRANCH   2   5
ENDBRANCH   1   2
BRANCH   1   7
HETATM    7  C   UNK N   1      34.978  13.560  11.458  0.00  0.00     0.045 C 
BRANCH   7   8
HETATM    8  C   UNK N   1      35.726  14.538  10.570  0.00  0.00     0.167 C 
BRANCH   8   9
HETATM    9  S   UNK N   1      35.289  16.241  11.032  0.00  0.00     0.101 S 
HETATM   10  O   UNK N   1      35.523  17.695  10.149  0.00  0.00    -0.595 OA
HETATM   11  O   UNK N   1      36.802  16.199  10.776  0.00  0.00    -0.595 OA
HETATM   12  O   UNK N   1      34.744  15.918   9.631  0.00  0.00    -0.595 OA
ENDBRANCH   8   9
ENDBRANCH   7   8
ENDBRANCH   1   7
TORSDOF 5
ENDMDL
MODEL 6
REMARK VINA RESULT:      -3.8      4.582      6.414
REMARK  5 active torsions:
REMARK  status: ('A' for Active; 'I' for Inactive)
REMARK    1  A    between atoms: C_2  and  N_3 
REMARK    2  A    between atoms: N_3  and  C_6 
REMARK    3  A    between atoms: C_6  and  C_7 
REMARK    4  A    between atoms: C_7  and  C_8 
REMARK    5  A    between atoms: C_8  and  S_9 
ROOT
HETATM    1  C   UNK N   1      34.819  14.148  10.711  0.00  0.00     0.237 C 
ENDROOT
BRANCH   1   2
HETATM    2  N   UNK N   1      35.842  13.695  11.656  0.00  0.00    -0.075 N 
HETATM    3  C   UNK N   1      35.958  14.639  12.765  0.00  0.00     0.272 C 
HETATM    4  C   UNK N   1      35.491  12.373  12.169  0.00  0.00     0.272 C 
BRANCH   2   5
HETATM    5  C   UNK N   1      37.104  13.629  10.915  0.00  0.00     0.232 C 
HETATM    6  C   UNK N   1      37.925  12.374  11.211  0.00  0.00     0.034 C 
ENDBRANCH   2   5
ENDBRANCH   1   2
BRANCH   1   7
HETATM    7  C   UNK N   1      34.813  15.661  10.498  0.00  0.00     0.045 C 
BRANCH   7   8
HETATM    8  C   UNK N   1      34.642  15.959   9.020  0.00  0.00     0.167 C 
BRANCH   8   9
HETATM    9  S   UNK N   1      34.181  17.704   8.798  0.00  0.00     0.101 S 
HETATM   10  O   UNK N   1      35.162  19.028   8.318  0.00  0.00    -0.595 OA
HETATM   11  O   UNK N   1      35.303  17.645   9.845  0.00  0.00    -0.595 OA
HETATM   12  O   UNK N   1      34.916  17.189   7.550  0.00  0.00    -0.595 OA
ENDBRANCH   8   9
ENDBRANCH   7   8
ENDBRANCH   1   7
TORSDOF 5
ENDMDL
MODEL 7
REMARK VINA RESULT:      -3.8      1.978      2.885
REMARK  5 active torsions:
REMARK  status: ('A' for Active; 'I' for Inactive)
REMARK    1  A    between atoms: C_2  and  N_3 
REMARK    2  A    between atoms: N_3  and  C_6 
REMARK    3  A    between atoms: C_6  and  C_7 
REMARK    4  A    between atoms: C_7  and  C_8 
REMARK    5  A    between atoms: C_8  and  S_9 
ROOT
HETATM    1  C   UNK N   1      32.187  15.697   5.070  0.00  0.00     0.237 C 
ENDROOT
BRANCH   1   2
HETATM    2  N   UNK N   1      31.872  15.600   3.642  0.00  0.00    -0.075 N 
HETATM    3  C   UNK N   1      32.109  16.882   2.984  0.00  0.00     0.272 C 
HETATM    4  C   UNK N   1      32.698  14.566   3.023  0.00  0.00     0.272 C 
BRANCH   2   5
HETATM    5  C   UNK N   1      30.455  15.238   3.546  0.00  0.00     0.232 C 
HETATM    6  C   UNK N   1      29.615  16.248   2.765  0.00  0.00     0.034 C 
ENDBRANCH   2   5
ENDBRANCH   1   2
BRANCH   1   7
HETATM    7  C   UNK N   1      32.986  16.947   5.433  0.00  0.00     0.045 C 
BRANCH   7   8
HETATM    8  C   UNK N   1      32.666  17.351   6.861  0.00  0.00     0.167 C 
BRANCH   8   9
HETATM    9  S   UNK N   1      34.209  17.529   7.805  0.00  0.00     0.101 S 
HETATM   10  O   UNK N   1      35.162  18.935   8.063  0.00  0.00    -0.595 OA
HETATM   11  O   UNK N   1      34.488  17.975   6.363  0.00  0.00    -0.595 OA
HETATM   12  O   UNK N   1      33.191  18.593   8.250  0.00  0.00    -0.595 OA
ENDBRANCH   8   9
ENDBRANCH   7   8
ENDBRANCH   1   7
TORSDOF 5
ENDMDL
MODEL 8
REMARK VINA RESULT:      -3.8      6.996      8.573
REMARK  5 active torsions:
REMARK  status: ('A' for Active; 'I' for Inactive)
REMARK    1  A    between atoms: C_2  and  N_3 
REMARK    2  A    between atoms: N_3  and  C_6 
REMARK    3  A    between atoms: C_6  and  C_7 
REMARK    4  A    between atoms: C_7  and  C_8 
REMARK    5  A    between atoms: C_8  and  S_9 
ROOT
HETATM    1  C   UNK N   1      35.961  13.757  14.212  0.00  0.00     0.237 C 
ENDROOT
BRANCH   1   2
HETATM    2  N   UNK N   1      35.440  12.577  14.906  0.00  0.00    -0.075 N 
HETATM    3  C   UNK N   1      36.540  11.717  15.336  0.00  0.00     0.272 C 
HETATM    4  C   UNK N   1      34.656  12.992  16.067  0.00  0.00     0.272 C 
BRANCH   2   5
HETATM    5  C   UNK N   1      34.587  11.865  13.951  0.00  0.00     0.232 C 
HETATM    6  C   UNK N   1      33.680  10.819  14.598  0.00  0.00     0.034 C 
ENDBRANCH   2   5
ENDBRANCH   1   2
BRANCH   1   7
HETATM    7  C   UNK N   1      35.657  13.766  12.715  0.00  0.00     0.045 C 
BRANCH   7   8
HETATM    8  C   UNK N   1      35.949  15.145  12.152  0.00  0.00     0.167 C 
BRANCH   8   9
HETATM    9  S   UNK N   1      35.772  15.117  10.343  0.00  0.00     0.101 S 
HETATM   10  O   UNK N   1      35.085  16.300   9.305  0.00  0.00    -0.595 OA
HETATM   11  O   UNK N   1      34.370  15.273  10.949  0.00  0.00    -0.595 OA
HETATM   12  O   UNK N   1      36.433  16.432  10.788  0.00  0.00    -0.595 OA
ENDBRANCH   8   9
ENDBRANCH   7   8
ENDBRANCH   1   7
TORSDOF 5
ENDMDL
MODEL 9
REMARK VINA RESULT:      -3.6     13.055     14.361
REMARK  5 active torsions:
REMARK  status: ('A' for Active; 'I' for Inactive)
REMARK    1  A    between atoms: C_2  and  N_3 
REMARK    2  A    between atoms: N_3  and  C_6 
REMARK    3  A    between atoms: C_6  and  C_7 
REMARK    4  A    between atoms: C_7  and  C_8 
REMARK    5  A    between atoms: C_8  and  S_9 
ROOT
HETATM    1  C   UNK N   1      28.409  23.857  -4.410  0.00  0.00     0.237 C 
ENDROOT
BRANCH   1   2
HETATM    2  N   UNK N   1      29.597  23.508  -3.626  0.00  0.00    -0.075 N 
HETATM    3  C   UNK N   1      30.452  24.681  -3.457  0.00  0.00     0.272 C 
HETATM    4  C   UNK N   1      29.194  22.999  -2.318  0.00  0.00     0.272 C 
BRANCH   2   5
HETATM    5  C   UNK N   1      30.308  22.469  -4.375  0.00  0.00     0.232 C 
HETATM    6  C   UNK N   1      30.485  21.165  -3.597  0.00  0.00     0.034 C 
ENDBRANCH   2   5
ENDBRANCH   1   2
BRANCH   1   7
HETATM    7  C   UNK N   1      27.215  24.274  -3.554  0.00  0.00     0.045 C 
BRANCH   7   8
HETATM    8  C   UNK N   1      26.312  25.188  -4.363  0.00  0.00     0.167 C 
BRANCH   8   9
HETATM    9  S   UNK N   1      26.678  26.922  -3.958  0.00  0.00     0.101 S 
HETATM   10  O   UNK N   1      25.723  28.052  -3.086  0.00  0.00    -0.595 OA
HETATM   11  O   UNK N   1      25.367  26.893  -4.758  0.00  0.00    -0.595 OA
HETATM   12  O   UNK N   1      26.264  26.159  -2.689  0.00  0.00    -0.595 OA
ENDBRANCH   8   9
ENDBRANCH   7   8
ENDBRANCH   1   7
TORSDOF 5
ENDMDL
