REMARK  18 active torsions:
REMARK  status: ('A' for Active; 'I' for Inactive)
REMARK    1  A    between atoms: C_3  and  C_2 
REMARK    2  A    between atoms: N_17  and  C_2 
REMARK    3  A    between atoms: S_36  and  C_3 
REMARK    4  A    between atoms: C_9  and  C_5 
REMARK    5  A    between atoms: O_22  and  C_5 
REMARK    6  A    between atoms: C_11  and  C_6 
REMARK    7  A    between atoms: O_23  and  C_6 
REMARK    8  A    between atoms: O_24  and  C_7 
REMARK    9  A    between atoms: C_8  and  C_15 
REMARK   10  A    between atoms: C_10  and  O_33 
REMARK   11  A    between atoms: C_12  and  N_19 
REMARK   12  A    between atoms: C_13  and  O_25 
REMARK   13  A    between atoms: C_14  and  O_35 
REMARK   14  A    between atoms: O_26  and  C_15 
REMARK   15  A    between atoms: C_16  and  O_33 
REMARK   16  A    between atoms: S_36  and  O_27 
REMARK   17  A    between atoms: S_37  and  O_30 
REMARK   18  A    between atoms: S_37  and  O_35 
ROOT
HETATM    1  C   UNK N   1      -1.628  -1.139  -0.211  0.00  0.00     0.181 C 
HETATM    2  C   UNK N   1       1.039  -0.340   0.597  0.00  0.00     0.169 C 
HETATM    3  C   UNK N   1       0.645  -1.828   0.572  0.00  0.00     0.178 C 
HETATM    4  C   UNK N   1      -0.861  -1.924   0.866  0.00  0.00     0.206 C 
HETATM    5  C   UNK N   1       0.137   0.494  -0.373  0.00  0.00     0.286 C 
HETATM    6  O   UNK N   1      -1.233   0.212  -0.157  0.00  0.00    -0.349 OA
ENDROOT
BRANCH   5   7
HETATM    7  O   UNK N   1       0.348   1.875  -0.087  0.00  0.00    -0.352 OA
BRANCH   7   8
HETATM    8  C   UNK N   1      -0.583   2.750  -0.727  0.00  0.00     0.151 C 
HETATM    9  C   UNK N   1       0.016   4.150  -0.818  0.00  0.00     0.067 C 
HETATM   10  C   UNK N   1      -1.193   5.111  -0.756  0.00  0.00     0.154 C 
HETATM   11  N   UNK N   1      -2.363   4.267  -0.578  0.00  0.00    -0.401 N 
HETATM   12  C   UNK N   1      -1.848   3.086   0.081  0.00  0.00     0.130 C 
HETATM   13  H   UNK N   1      -3.325   4.462  -0.853  0.00  0.00     0.154 HD
BRANCH  10  14
HETATM   14  C   UNK N   1      -1.261   6.150   0.362  0.00  0.00     0.134 C 
HETATM   15  N   UNK N   1      -0.301   6.431   1.187  0.00  0.00    -0.372 N 
ATOM     16  HN  UNK N   1      -0.523   7.079   1.943  1.00  0.00     0.161 HD
BRANCH  15  17
HETATM   17  C   UNK N   1       1.045   5.924   1.146  0.00  0.00     0.138 C 
BRANCH  17  18
HETATM   18  C   UNK N   1       1.806   6.538  -0.030  0.00  0.00     0.175 C 
BRANCH  18  19
HETATM   19  S   UNK N   1       1.650   8.359  -0.118  0.00  0.00     0.095 S 
HETATM   20  O   UNK N   1       0.212   8.873   0.055  0.00  0.00    -0.601 OA
HETATM   21  O   UNK N   1       2.391   9.089   1.012  0.00  0.00    -0.601 OA
BRANCH  19  22
HETATM   22  O   UNK N   1       2.185   9.119  -1.560  0.00  0.00    -0.296 OA
HETATM   23  H   UNK N   1       2.708   9.071  -2.376  0.00  0.00     0.232 HD
ENDBRANCH  19  22
ENDBRANCH  18  19
ENDBRANCH  17  18
ENDBRANCH  15  17
BRANCH  14  24
HETATM   24  O   UNK N   1      -2.421   6.819   0.503  0.00  0.00    -0.348 OA
HETATM   25  H   UNK N   1      -2.421   7.750   0.602  0.00  0.00     0.219 HD
ENDBRANCH  14  24
ENDBRANCH  10  14
BRANCH  12  26
HETATM   26  C   UNK N   1      -2.971   2.064   0.122  0.00  0.00     0.191 C 
BRANCH  26  27
HETATM   27  O   UNK N   1      -4.020   2.526   0.918  0.00  0.00    -0.399 OA
HETATM   28  H   UNK N   1      -4.107   3.318   1.471  0.00  0.00     0.209 HD
ENDBRANCH  26  27
ENDBRANCH  12  26
ENDBRANCH   7   8
ENDBRANCH   5   7
BRANCH   2  29
HETATM   29  N   UNK N   1       2.455  -0.245   0.273  0.00  0.00    -0.363 N 
HETATM   30  C   UNK N   1       3.208   0.773   0.515  0.00  0.00     0.107 C 
HETATM   31  C   UNK N   1       4.646   0.723   0.131  0.00  0.00     0.097 C 
ATOM     32  HN  UNK N   1       2.887  -1.049  -0.182  1.00  0.00     0.162 HD
BRANCH  30  33
HETATM   33  O   UNK N   1       2.727   1.866   1.141  0.00  0.00    -0.350 OA
HETATM   34  H   UNK N   1       3.218   2.535   1.575  0.00  0.00     0.219 HD
ENDBRANCH  30  33
ENDBRANCH   2  29
BRANCH   3  35
HETATM   35  O   UNK N   1       0.954  -2.375  -0.679  0.00  0.00    -0.391 OA
HETATM   36  H   UNK N   1       0.734  -2.750  -1.546  0.00  0.00     0.210 HD
ENDBRANCH   3  35
BRANCH   1  37
HETATM   37  C   UNK N   1      -3.131  -1.130   0.080  0.00  0.00     0.199 C 
BRANCH  37  38
HETATM   38  O   UNK N   1      -3.695  -2.402   0.004  0.00  0.00    -0.398 OA
HETATM   39  H   UNK N   1      -4.658  -2.505  -0.050  0.00  0.00     0.209 HD
ENDBRANCH  37  38
ENDBRANCH   1  37
BRANCH   4  40
HETATM   40  O   UNK N   1      -1.356  -3.225   1.146  0.00  0.00    -0.253 OA
BRANCH  40  41
HETATM   41  S   UNK N   1      -1.132  -4.404  -0.103  0.00  0.00     0.240 S 
HETATM   42  O   UNK N   1      -2.045  -5.582   0.267  0.00  0.00    -0.579 OA
HETATM   43  O   UNK N   1      -1.701  -3.951  -1.455  0.00  0.00    -0.579 OA
BRANCH  41  44
HETATM   44  O   UNK N   1       0.446  -5.054  -0.277  0.00  0.00    -0.274 OA
HETATM   45  H   UNK N   1       0.574  -6.010  -0.375  0.00  0.00     0.234 HD
ENDBRANCH  41  44
ENDBRANCH  40  41
ENDBRANCH   4  40
TORSDOF 18
