MODEL 1
REMARK VINA RESULT:      -7.4      0.000      0.000
REMARK  12 active torsions:
REMARK  status: ('A' for Active; 'I' for Inactive)
REMARK    1  A    between atoms: C_3  and  C_1 
REMARK    2  A    between atoms: O_27  and  C_1 
REMARK    3  A    between atoms: C_5  and  O_20 
REMARK    4  A    between atoms: C_6  and  O_21 
REMARK    5  A    between atoms: O_22  and  C_8 
REMARK    6  A    between atoms: C_9  and  N_19 
REMARK       I    between atoms: N_11  and  C_10 
REMARK    7  A    between atoms: P_30  and  N_13 
REMARK    8  A    between atoms: P_30  and  O_23 
REMARK    9  A    between atoms: P_31  and  O_25 
REMARK   10  A    between atoms: P_31  and  O_27 
REMARK   11  A    between atoms: P_30  and  O_29 
REMARK   12  A    between atoms: P_31  and  O_29 
ROOT
HETATM    1  C   UNK N   1      29.460  16.871   6.559  0.00  0.00     0.180 C 
HETATM    2  C   UNK N   1      29.511  17.943   7.650  0.00  0.00     0.182 C 
HETATM    3  C   UNK N   1      28.356  18.857   7.254  0.00  0.00     0.198 C 
HETATM    4  C   UNK N   1      27.727  18.109   6.079  0.00  0.00     0.262 C 
HETATM    5  O   UNK N   1      28.821  17.470   5.458  0.00  0.00    -0.353 OA
ENDROOT
BRANCH   4   6
HETATM    6  N   UNK N   1      27.002  18.950   5.119  0.00  0.00    -0.297 N 
HETATM    7  C   UNK N   1      27.591  19.877   4.318  0.00  0.00     0.188 A 
HETATM    8  N   UNK N   1      26.681  20.494   3.514  0.00  0.00    -0.346 N 
HETATM    9  C   UNK N   1      25.513  19.910   3.825  0.00  0.00     0.130 A 
ATOM     10  HN  UNK N   1      26.849  21.233   2.830  1.00  0.00     0.167 HD
HETATM   11  C   UNK N   1      25.699  18.985   4.788  0.00  0.00     0.157 A 
HETATM   12  C   UNK N   1      24.250  20.120   3.296  0.00  0.00     0.186 A 
HETATM   13  N   UNK N   1      24.688  18.221   5.262  0.00  0.00    -0.174 N 
HETATM   14  C   UNK N   1      23.434  18.409   4.744  0.00  0.00     0.679 A 
HETATM   15  H   UNK N   1      24.850  17.547   5.962  0.00  0.00     0.186 HD
HETATM   16  N   UNK N   1      22.461  17.696   5.159  0.00  0.00    -0.234 N 
HETATM   17  N   UNK N   1      23.222  19.357   3.770  0.00  0.00    -0.168 N 
HETATM   18  H   UNK N   1      22.588  17.082   5.919  0.00  0.00     0.174 HD
ATOM     19  HN  UNK N   1      21.550  17.761   4.703  1.00  0.00     0.174 HD
ATOM     20  HN  UNK N   1      22.284  19.492   3.396  1.00  0.00     0.186 HD
BRANCH  12  21
HETATM   21  O   UNK N   1      24.040  21.038   2.337  0.00  0.00    -0.344 OA
HETATM   22  H   UNK N   1      24.214  20.828   1.441  0.00  0.00     0.219 HD
ENDBRANCH  12  21
ENDBRANCH   4   6
BRANCH   3  23
HETATM   23  O   UNK N   1      27.449  19.109   8.288  0.00  0.00    -0.388 OA
HETATM   24  H   UNK N   1      26.733  18.651   8.757  0.00  0.00     0.210 HD
ENDBRANCH   3  23
BRANCH   2  25
HETATM   25  O   UNK N   1      29.365  17.371   8.918  0.00  0.00    -0.390 OA
HETATM   26  H   UNK N   1      28.707  17.476   9.622  0.00  0.00     0.210 HD
ENDBRANCH   2  25
BRANCH   1  27
HETATM   27  C   UNK N   1      30.824  16.307   6.188  0.00  0.00     0.215 C 
BRANCH  27  28
HETATM   28  O   UNK N   1      31.829  16.962   6.905  0.00  0.00    -0.294 OA
BRANCH  28  29
HETATM   29  P   UNK N   1      33.212  17.093   5.850  0.00  0.00     0.401 P 
HETATM   30  O   UNK N   1      33.695  15.659   5.487  0.00  0.00    -0.631 OA
BRANCH  29  31
HETATM   31  O   UNK N   1      32.833  17.899   4.359  0.00  0.00    -0.307 OA
HETATM   32  H   UNK N   1      33.502  17.975   3.662  0.00  0.00     0.222 HD
ENDBRANCH  29  31
BRANCH  29  33
HETATM   33  O   UNK N   1      34.498  17.929   6.691  0.00  0.00    -0.201 OA
BRANCH  33  34
HETATM   34  P   UNK N   1      34.007  18.110   8.360  0.00  0.00     0.351 P 
HETATM   35  O   UNK N   1      35.221  19.079   8.339  0.00  0.00    -0.637 OA
BRANCH  34  36
HETATM   36  N   UNK N   1      35.013  17.473   9.701  0.00  0.00    -0.342 N 
HETATM   37  H   UNK N   1      34.711  17.472  10.676  0.00  0.00     0.161 HD
HETATM   38  H   UNK N   1      35.934  17.094   9.479  0.00  0.00     0.161 HD
ENDBRANCH  34  36
BRANCH  34  39
HETATM   39  O   UNK N   1      34.579  16.509   8.008  0.00  0.00    -0.312 OA
HETATM   40  H   UNK N   1      35.060  16.315   7.190  0.00  0.00     0.221 HD
ENDBRANCH  34  39
ENDBRANCH  33  34
ENDBRANCH  29  33
ENDBRANCH  28  29
ENDBRANCH  27  28
ENDBRANCH   1  27
TORSDOF 12
ENDMDL
MODEL 2
REMARK VINA RESULT:      -7.4      2.098      3.198
REMARK  12 active torsions:
REMARK  status: ('A' for Active; 'I' for Inactive)
REMARK    1  A    between atoms: C_3  and  C_1 
REMARK    2  A    between atoms: O_27  and  C_1 
REMARK    3  A    between atoms: C_5  and  O_20 
REMARK    4  A    between atoms: C_6  and  O_21 
REMARK    5  A    between atoms: O_22  and  C_8 
REMARK    6  A    between atoms: C_9  and  N_19 
REMARK       I    between atoms: N_11  and  C_10 
REMARK    7  A    between atoms: P_30  and  N_13 
REMARK    8  A    between atoms: P_30  and  O_23 
REMARK    9  A    between atoms: P_31  and  O_25 
REMARK   10  A    between atoms: P_31  and  O_27 
REMARK   11  A    between atoms: P_30  and  O_29 
REMARK   12  A    between atoms: P_31  and  O_29 
ROOT
HETATM    1  C   UNK N   1      30.448  17.269   8.090  0.00  0.00     0.180 C 
HETATM    2  C   UNK N   1      29.767  18.477   8.738  0.00  0.00     0.182 C 
HETATM    3  C   UNK N   1      28.301  18.242   8.388  0.00  0.00     0.198 C 
HETATM    4  C   UNK N   1      28.335  16.872   7.711  0.00  0.00     0.262 C 
HETATM    5  O   UNK N   1      29.587  16.845   7.061  0.00  0.00    -0.353 OA
ENDROOT
BRANCH   4   6
HETATM    6  N   UNK N   1      27.248  16.618   6.759  0.00  0.00    -0.297 N 
HETATM    7  C   UNK N   1      26.341  15.614   6.884  0.00  0.00     0.188 A 
HETATM    8  N   UNK N   1      25.434  15.629   5.868  0.00  0.00    -0.346 N 
HETATM    9  C   UNK N   1      25.792  16.683   5.119  0.00  0.00     0.130 A 
ATOM     10  HN  UNK N   1      24.659  14.984   5.711  1.00  0.00     0.167 HD
HETATM   11  C   UNK N   1      26.880  17.279   5.647  0.00  0.00     0.157 A 
HETATM   12  C   UNK N   1      25.206  17.195   3.973  0.00  0.00     0.186 A 
HETATM   13  N   UNK N   1      27.430  18.392   5.107  0.00  0.00    -0.174 N 
HETATM   14  C   UNK N   1      26.856  18.917   3.980  0.00  0.00     0.679 A 
HETATM   15  H   UNK N   1      28.221  18.814   5.515  0.00  0.00     0.186 HD
HETATM   16  N   UNK N   1      27.341  19.974   3.453  0.00  0.00    -0.234 N 
HETATM   17  N   UNK N   1      25.754  18.316   3.419  0.00  0.00    -0.168 N 
HETATM   18  H   UNK N   1      28.183  20.354   3.795  0.00  0.00     0.174 HD
ATOM     19  HN  UNK N   1      26.856  20.425   2.676  1.00  0.00     0.174 HD
ATOM     20  HN  UNK N   1      25.340  18.713   2.576  1.00  0.00     0.186 HD
BRANCH  12  21
HETATM   21  O   UNK N   1      24.122  16.617   3.428  0.00  0.00    -0.344 OA
HETATM   22  H   UNK N   1      24.184  15.757   3.060  0.00  0.00     0.219 HD
ENDBRANCH  12  21
ENDBRANCH   4   6
BRANCH   3  23
HETATM   23  O   UNK N   1      27.440  18.286   9.488  0.00  0.00    -0.388 OA
HETATM   24  H   UNK N   1      27.042  18.947  10.076  0.00  0.00     0.210 HD
ENDBRANCH   3  23
BRANCH   2  25
HETATM   25  O   UNK N   1      30.018  18.513  10.112  0.00  0.00    -0.390 OA
HETATM   26  H   UNK N   1      30.537  17.949  10.707  0.00  0.00     0.210 HD
ENDBRANCH   2  25
BRANCH   1  27
HETATM   27  C   UNK N   1      31.851  17.559   7.575  0.00  0.00     0.215 C 
BRANCH  27  28
HETATM   28  O   UNK N   1      32.659  18.034   8.611  0.00  0.00    -0.294 OA
BRANCH  28  29
HETATM   29  P   UNK N   1      34.315  17.875   8.089  0.00  0.00     0.401 P 
HETATM   30  O   UNK N   1      34.343  17.843   6.534  0.00  0.00    -0.631 OA
BRANCH  29  31
HETATM   31  O   UNK N   1      35.299  19.216   8.592  0.00  0.00    -0.307 OA
HETATM   32  H   UNK N   1      36.225  19.273   8.313  0.00  0.00     0.222 HD
ENDBRANCH  29  31
BRANCH  29  33
HETATM   33  O   UNK N   1      34.967  16.371   8.699  0.00  0.00    -0.201 OA
BRANCH  33  34
HETATM   34  P   UNK N   1      35.235  16.570  10.416  0.00  0.00     0.351 P 
HETATM   35  O   UNK N   1      36.403  15.603  10.080  0.00  0.00    -0.637 OA
BRANCH  34  36
HETATM   36  N   UNK N   1      34.945  15.224  11.566  0.00  0.00    -0.342 N 
HETATM   37  H   UNK N   1      35.689  14.628  11.929  0.00  0.00     0.161 HD
HETATM   38  H   UNK N   1      33.988  15.045  11.872  0.00  0.00     0.161 HD
ENDBRANCH  34  36
BRANCH  34  39
HETATM   39  O   UNK N   1      33.739  15.761  10.069  0.00  0.00    -0.312 OA
HETATM   40  H   UNK N   1      33.599  15.299   9.229  0.00  0.00     0.221 HD
ENDBRANCH  34  39
ENDBRANCH  33  34
ENDBRANCH  29  33
ENDBRANCH  28  29
ENDBRANCH  27  28
ENDBRANCH   1  27
TORSDOF 12
ENDMDL
MODEL 3
REMARK VINA RESULT:      -7.3      1.487      1.919
REMARK  12 active torsions:
REMARK  status: ('A' for Active; 'I' for Inactive)
REMARK    1  A    between atoms: C_3  and  C_1 
REMARK    2  A    between atoms: O_27  and  C_1 
REMARK    3  A    between atoms: C_5  and  O_20 
REMARK    4  A    between atoms: C_6  and  O_21 
REMARK    5  A    between atoms: O_22  and  C_8 
REMARK    6  A    between atoms: C_9  and  N_19 
REMARK       I    between atoms: N_11  and  C_10 
REMARK    7  A    between atoms: P_30  and  N_13 
REMARK    8  A    between atoms: P_30  and  O_23 
REMARK    9  A    between atoms: P_31  and  O_25 
REMARK   10  A    between atoms: P_31  and  O_27 
REMARK   11  A    between atoms: P_30  and  O_29 
REMARK   12  A    between atoms: P_31  and  O_29 
ROOT
HETATM    1  C   UNK N   1      30.330  17.242   7.495  0.00  0.00     0.180 C 
HETATM    2  C   UNK N   1      29.951  18.024   8.754  0.00  0.00     0.182 C 
HETATM    3  C   UNK N   1      28.607  18.630   8.361  0.00  0.00     0.198 C 
HETATM    4  C   UNK N   1      28.346  18.003   6.992  0.00  0.00     0.262 C 
HETATM    5  O   UNK N   1      29.634  17.853   6.436  0.00  0.00    -0.353 OA
ENDROOT
BRANCH   4   6
HETATM    6  N   UNK N   1      27.481  18.785   6.101  0.00  0.00    -0.297 N 
HETATM    7  C   UNK N   1      27.770  20.039   5.664  0.00  0.00     0.188 A 
HETATM    8  N   UNK N   1      26.801  20.514   4.833  0.00  0.00    -0.346 N 
HETATM    9  C   UNK N   1      25.912  19.511   4.751  0.00  0.00     0.130 A 
ATOM     10  HN  UNK N   1      26.759  21.426   4.377  1.00  0.00     0.167 HD
HETATM   11  C   UNK N   1      26.315  18.473   5.510  0.00  0.00     0.157 A 
HETATM   12  C   UNK N   1      24.740  19.425   4.018  0.00  0.00     0.186 A 
HETATM   13  N   UNK N   1      25.618  17.314   5.579  0.00  0.00    -0.174 N 
HETATM   14  C   UNK N   1      24.461  17.209   4.854  0.00  0.00     0.679 A 
HETATM   15  H   UNK N   1      25.935  16.566   6.136  0.00  0.00     0.186 HD
HETATM   16  N   UNK N   1      23.788  16.125   4.885  0.00  0.00    -0.234 N 
HETATM   17  N   UNK N   1      24.028  18.263   4.083  0.00  0.00    -0.168 N 
HETATM   18  H   UNK N   1      24.042  15.404   5.505  0.00  0.00     0.174 HD
ATOM     19  HN  UNK N   1      22.984  16.006   4.267  1.00  0.00     0.174 HD
ATOM     20  HN  UNK N   1      23.162  18.174   3.552  1.00  0.00     0.186 HD
BRANCH  12  21
HETATM   21  O   UNK N   1      24.318  20.448   3.256  0.00  0.00    -0.344 OA
HETATM   22  H   UNK N   1      24.878  21.185   3.108  0.00  0.00     0.219 HD
ENDBRANCH  12  21
ENDBRANCH   4   6
BRANCH   3  23
HETATM   23  O   UNK N   1      27.582  18.384   9.278  0.00  0.00    -0.388 OA
HETATM   24  H   UNK N   1      27.227  18.769  10.096  0.00  0.00     0.210 HD
ENDBRANCH   3  23
BRANCH   2  25
HETATM   25  O   UNK N   1      29.881  17.177   9.865  0.00  0.00    -0.390 OA
HETATM   26  H   UNK N   1      30.086  16.238   9.997  0.00  0.00     0.210 HD
ENDBRANCH   2  25
BRANCH   1  27
HETATM   27  C   UNK N   1      31.829  17.187   7.235  0.00  0.00     0.215 C 
BRANCH  27  28
HETATM   28  O   UNK N   1      32.529  17.703   8.328  0.00  0.00    -0.294 OA
BRANCH  28  29
HETATM   29  P   UNK N   1      34.207  17.805   7.864  0.00  0.00     0.401 P 
HETATM   30  O   UNK N   1      34.291  17.811   6.311  0.00  0.00    -0.631 OA
BRANCH  29  31
HETATM   31  O   UNK N   1      34.960  19.268   8.424  0.00  0.00    -0.307 OA
HETATM   32  H   UNK N   1      35.660  19.687   7.900  0.00  0.00     0.222 HD
ENDBRANCH  29  31
BRANCH  29  33
HETATM   33  O   UNK N   1      35.058  16.404   8.474  0.00  0.00    -0.201 OA
BRANCH  33  34
HETATM   34  P   UNK N   1      34.640  16.227  10.162  0.00  0.00     0.351 P 
HETATM   35  O   UNK N   1      35.637  17.414  10.264  0.00  0.00    -0.637 OA
BRANCH  34  36
HETATM   36  N   UNK N   1      35.828  15.612  11.357  0.00  0.00    -0.342 N 
HETATM   37  H   UNK N   1      36.819  15.487  11.148  0.00  0.00     0.161 HD
HETATM   38  H   UNK N   1      35.497  15.373  12.292  0.00  0.00     0.161 HD
ENDBRANCH  34  36
BRANCH  34  39
HETATM   39  O   UNK N   1      35.492  14.847   9.544  0.00  0.00    -0.312 OA
HETATM   40  H   UNK N   1      35.042  14.175   9.009  0.00  0.00     0.221 HD
ENDBRANCH  34  39
ENDBRANCH  33  34
ENDBRANCH  29  33
ENDBRANCH  28  29
ENDBRANCH  27  28
ENDBRANCH   1  27
TORSDOF 12
ENDMDL
MODEL 4
REMARK VINA RESULT:      -7.0      4.636      6.556
REMARK  12 active torsions:
REMARK  status: ('A' for Active; 'I' for Inactive)
REMARK    1  A    between atoms: C_3  and  C_1 
REMARK    2  A    between atoms: O_27  and  C_1 
REMARK    3  A    between atoms: C_5  and  O_20 
REMARK    4  A    between atoms: C_6  and  O_21 
REMARK    5  A    between atoms: O_22  and  C_8 
REMARK    6  A    between atoms: C_9  and  N_19 
REMARK       I    between atoms: N_11  and  C_10 
REMARK    7  A    between atoms: P_30  and  N_13 
REMARK    8  A    between atoms: P_30  and  O_23 
REMARK    9  A    between atoms: P_31  and  O_25 
REMARK   10  A    between atoms: P_31  and  O_27 
REMARK   11  A    between atoms: P_30  and  O_29 
REMARK   12  A    between atoms: P_31  and  O_29 
ROOT
HETATM    1  C   UNK N   1      33.796  15.891   9.874  0.00  0.00     0.180 C 
HETATM    2  C   UNK N   1      34.893  16.705   9.184  0.00  0.00     0.182 C 
HETATM    3  C   UNK N   1      34.098  17.507   8.160  0.00  0.00     0.198 C 
HETATM    4  C   UNK N   1      32.653  17.142   8.498  0.00  0.00     0.262 C 
HETATM    5  O   UNK N   1      32.737  15.808   8.951  0.00  0.00    -0.353 OA
ENDROOT
BRANCH   4   6
HETATM    6  N   UNK N   1      31.703  17.254   7.385  0.00  0.00    -0.297 N 
HETATM    7  C   UNK N   1      32.009  16.983   6.089  0.00  0.00     0.188 A 
HETATM    8  N   UNK N   1      30.931  17.152   5.274  0.00  0.00    -0.346 N 
HETATM    9  C   UNK N   1      29.941  17.517   6.104  0.00  0.00     0.130 A 
ATOM     10  HN  UNK N   1      30.886  17.029   4.262  1.00  0.00     0.167 HD
HETATM   11  C   UNK N   1      30.399  17.581   7.370  0.00  0.00     0.157 A 
HETATM   12  C   UNK N   1      28.611  17.790   5.830  0.00  0.00     0.186 A 
HETATM   13  N   UNK N   1      29.596  17.891   8.415  0.00  0.00    -0.174 N 
HETATM   14  C   UNK N   1      28.276  18.155   8.163  0.00  0.00     0.679 A 
HETATM   15  H   UNK N   1      29.952  17.926   9.333  0.00  0.00     0.186 HD
HETATM   16  N   UNK N   1      27.488  18.437   9.127  0.00  0.00    -0.234 N 
HETATM   17  N   UNK N   1      27.793  18.107   6.875  0.00  0.00    -0.168 N 
HETATM   18  H   UNK N   1      27.846  18.564  10.035  0.00  0.00     0.174 HD
ATOM     19  HN  UNK N   1      26.486  18.532   8.955  1.00  0.00     0.174 HD
ATOM     20  HN  UNK N   1      26.810  18.311   6.700  1.00  0.00     0.186 HD
BRANCH  12  21
HETATM   21  O   UNK N   1      28.133  17.734   4.575  0.00  0.00    -0.344 OA
HETATM   22  H   UNK N   1      28.632  18.090   3.866  0.00  0.00     0.219 HD
ENDBRANCH  12  21
ENDBRANCH   4   6
BRANCH   3  23
HETATM   23  O   UNK N   1      34.337  18.883   8.205  0.00  0.00    -0.388 OA
HETATM   24  H   UNK N   1      34.025  19.692   7.769  0.00  0.00     0.210 HD
ENDBRANCH   3  23
BRANCH   2  25
HETATM   25  O   UNK N   1      35.580  17.498  10.108  0.00  0.00    -0.390 OA
HETATM   26  H   UNK N   1      36.451  17.925  10.098  0.00  0.00     0.210 HD
ENDBRANCH   2  25
BRANCH   1  27
HETATM   27  C   UNK N   1      34.253  14.515  10.340  0.00  0.00     0.215 C 
BRANCH  27  28
HETATM   28  O   UNK N   1      34.426  14.507  11.727  0.00  0.00    -0.294 OA
BRANCH  28  29
HETATM   29  P   UNK N   1      36.104  14.142  12.034  0.00  0.00     0.401 P 
HETATM   30  O   UNK N   1      36.344  12.634  11.741  0.00  0.00    -0.631 OA
BRANCH  29  31
HETATM   31  O   UNK N   1      37.175  15.043  11.005  0.00  0.00    -0.307 OA
HETATM   32  H   UNK N   1      38.039  14.676  10.761  0.00  0.00     0.222 HD
ENDBRANCH  29  31
BRANCH  29  33
HETATM   33  O   UNK N   1      36.460  14.457  13.718  0.00  0.00    -0.201 OA
BRANCH  33  34
HETATM   34  P   UNK N   1      36.380  12.931  14.569  0.00  0.00     0.351 P 
HETATM   35  O   UNK N   1      34.905  13.394  14.724  0.00  0.00    -0.637 OA
BRANCH  34  36
HETATM   36  N   UNK N   1      36.157  12.866  16.347  0.00  0.00    -0.342 N 
HETATM   37  H   UNK N   1      36.867  13.174  17.012  0.00  0.00     0.161 HD
HETATM   38  H   UNK N   1      35.277  12.502  16.712  0.00  0.00     0.161 HD
ENDBRANCH  34  36
BRANCH  34  39
HETATM   39  O   UNK N   1      37.402  14.082  15.370  0.00  0.00    -0.312 OA
HETATM   40  H   UNK N   1      37.325  14.247  16.322  0.00  0.00     0.221 HD
ENDBRANCH  34  39
ENDBRANCH  33  34
ENDBRANCH  29  33
ENDBRANCH  28  29
ENDBRANCH  27  28
ENDBRANCH   1  27
TORSDOF 12
ENDMDL
MODEL 5
REMARK VINA RESULT:      -7.0      3.400      5.399
REMARK  12 active torsions:
REMARK  status: ('A' for Active; 'I' for Inactive)
REMARK    1  A    between atoms: C_3  and  C_1 
REMARK    2  A    between atoms: O_27  and  C_1 
REMARK    3  A    between atoms: C_5  and  O_20 
REMARK    4  A    between atoms: C_6  and  O_21 
REMARK    5  A    between atoms: O_22  and  C_8 
REMARK    6  A    between atoms: C_9  and  N_19 
REMARK       I    between atoms: N_11  and  C_10 
REMARK    7  A    between atoms: P_30  and  N_13 
REMARK    8  A    between atoms: P_30  and  O_23 
REMARK    9  A    between atoms: P_31  and  O_25 
REMARK   10  A    between atoms: P_31  and  O_27 
REMARK   11  A    between atoms: P_30  and  O_29 
REMARK   12  A    between atoms: P_31  and  O_29 
ROOT
HETATM    1  C   UNK N   1      33.794  15.458   6.337  0.00  0.00     0.180 C 
HETATM    2  C   UNK N   1      33.066  14.201   6.817  0.00  0.00     0.182 C 
HETATM    3  C   UNK N   1      31.622  14.500   6.428  0.00  0.00     0.198 C 
HETATM    4  C   UNK N   1      31.749  15.818   5.664  0.00  0.00     0.262 C 
HETATM    5  O   UNK N   1      32.824  16.476   6.298  0.00  0.00    -0.353 OA
ENDROOT
BRANCH   4   6
HETATM    6  N   UNK N   1      30.547  16.660   5.668  0.00  0.00    -0.297 N 
HETATM    7  C   UNK N   1      29.737  16.840   4.591  0.00  0.00     0.188 A 
HETATM    8  N   UNK N   1      28.686  17.654   4.887  0.00  0.00    -0.346 N 
HETATM    9  C   UNK N   1      28.856  17.959   6.183  0.00  0.00     0.130 A 
ATOM     10  HN  UNK N   1      27.939  17.963   4.264  1.00  0.00     0.167 HD
HETATM   11  C   UNK N   1      29.971  17.367   6.655  0.00  0.00     0.157 A 
HETATM   12  C   UNK N   1      28.068  18.730   7.021  0.00  0.00     0.186 A 
HETATM   13  N   UNK N   1      30.357  17.479   7.948  0.00  0.00    -0.174 N 
HETATM   14  C   UNK N   1      29.585  18.231   8.793  0.00  0.00     0.679 A 
HETATM   15  H   UNK N   1      31.173  17.032   8.272  0.00  0.00     0.186 HD
HETATM   16  N   UNK N   1      29.914  18.347  10.021  0.00  0.00    -0.234 N 
HETATM   17  N   UNK N   1      28.451  18.853   8.326  0.00  0.00    -0.168 N 
HETATM   18  H   UNK N   1      30.771  17.982  10.339  0.00  0.00     0.174 HD
ATOM     19  HN  UNK N   1      29.287  18.818  10.674  1.00  0.00     0.174 HD
ATOM     20  HN  UNK N   1      27.887  19.415   8.963  1.00  0.00     0.186 HD
BRANCH  12  21
HETATM   21  O   UNK N   1      26.953  19.331   6.572  0.00  0.00    -0.344 OA
HETATM   22  H   UNK N   1      26.378  18.877   5.989  0.00  0.00     0.219 HD
ENDBRANCH  12  21
ENDBRANCH   4   6
BRANCH   3  23
HETATM   23  O   UNK N   1      31.015  13.490   5.677  0.00  0.00    -0.388 OA
HETATM   24  H   UNK N   1      30.828  13.286   4.746  0.00  0.00     0.210 HD
ENDBRANCH   3  23
BRANCH   2  25
HETATM   25  O   UNK N   1      33.588  13.058   6.204  0.00  0.00    -0.390 OA
HETATM   26  H   UNK N   1      34.447  12.854   5.801  0.00  0.00     0.210 HD
ENDBRANCH   2  25
BRANCH   1  27
HETATM   27  C   UNK N   1      34.988  15.843   7.200  0.00  0.00     0.215 C 
BRANCH  27  28
HETATM   28  O   UNK N   1      34.929  15.183   8.430  0.00  0.00    -0.294 OA
BRANCH  28  29
HETATM   29  P   UNK N   1      34.404  16.350   9.616  0.00  0.00     0.401 P 
HETATM   30  O   UNK N   1      35.304  17.614   9.498  0.00  0.00    -0.631 OA
BRANCH  29  31
HETATM   31  O   UNK N   1      32.764  16.862   9.359  0.00  0.00    -0.307 OA
HETATM   32  H   UNK N   1      32.247  17.227  10.093  0.00  0.00     0.222 HD
ENDBRANCH  29  31
BRANCH  29  33
HETATM   33  O   UNK N   1      34.592  15.666  11.215  0.00  0.00    -0.201 OA
BRANCH  33  34
HETATM   34  P   UNK N   1      35.637  14.272  11.074  0.00  0.00     0.351 P 
HETATM   35  O   UNK N   1      34.824  13.862  12.332  0.00  0.00    -0.637 OA
BRANCH  34  36
HETATM   36  N   UNK N   1      36.937  13.957  12.269  0.00  0.00    -0.342 N 
HETATM   37  H   UNK N   1      37.073  14.518  13.110  0.00  0.00     0.161 HD
HETATM   38  H   UNK N   1      37.574  13.178  12.099  0.00  0.00     0.161 HD
ENDBRANCH  34  36
BRANCH  34  39
HETATM   39  O   UNK N   1      36.516  15.723  11.439  0.00  0.00    -0.312 OA
HETATM   40  H   UNK N   1      36.729  15.966  12.353  0.00  0.00     0.221 HD
ENDBRANCH  34  39
ENDBRANCH  33  34
ENDBRANCH  29  33
ENDBRANCH  28  29
ENDBRANCH  27  28
ENDBRANCH   1  27
TORSDOF 12
ENDMDL
MODEL 6
REMARK VINA RESULT:      -6.9      3.363      5.479
REMARK  12 active torsions:
REMARK  status: ('A' for Active; 'I' for Inactive)
REMARK    1  A    between atoms: C_3  and  C_1 
REMARK    2  A    between atoms: O_27  and  C_1 
REMARK    3  A    between atoms: C_5  and  O_20 
REMARK    4  A    between atoms: C_6  and  O_21 
REMARK    5  A    between atoms: O_22  and  C_8 
REMARK    6  A    between atoms: C_9  and  N_19 
REMARK       I    between atoms: N_11  and  C_10 
REMARK    7  A    between atoms: P_30  and  N_13 
REMARK    8  A    between atoms: P_30  and  O_23 
REMARK    9  A    between atoms: P_31  and  O_25 
REMARK   10  A    between atoms: P_31  and  O_27 
REMARK   11  A    between atoms: P_30  and  O_29 
REMARK   12  A    between atoms: P_31  and  O_29 
ROOT
HETATM    1  C   UNK N   1      31.666  15.521   3.479  0.00  0.00     0.180 C 
HETATM    2  C   UNK N   1      31.082  14.119   3.661  0.00  0.00     0.182 C 
HETATM    3  C   UNK N   1      29.782  14.408   4.403  0.00  0.00     0.198 C 
HETATM    4  C   UNK N   1      29.741  15.936   4.420  0.00  0.00     0.262 C 
HETATM    5  O   UNK N   1      31.099  16.312   4.495  0.00  0.00    -0.353 OA
ENDROOT
BRANCH   4   6
HETATM    6  N   UNK N   1      28.975  16.528   5.523  0.00  0.00    -0.297 N 
HETATM    7  C   UNK N   1      27.637  16.763   5.485  0.00  0.00     0.188 A 
HETATM    8  N   UNK N   1      27.189  17.298   6.655  0.00  0.00    -0.346 N 
HETATM    9  C   UNK N   1      28.285  17.371   7.428  0.00  0.00     0.130 A 
ATOM     10  HN  UNK N   1      26.238  17.581   6.890  1.00  0.00     0.167 HD
HETATM   11  C   UNK N   1      29.358  16.912   6.754  0.00  0.00     0.157 A 
HETATM   12  C   UNK N   1      28.418  17.809   8.735  0.00  0.00     0.186 A 
HETATM   13  N   UNK N   1      30.588  16.840   7.315  0.00  0.00    -0.174 N 
HETATM   14  C   UNK N   1      30.735  17.260   8.610  0.00  0.00     0.679 A 
HETATM   15  H   UNK N   1      31.356  16.495   6.805  0.00  0.00     0.186 HD
HETATM   16  N   UNK N   1      31.879  17.193   9.174  0.00  0.00    -0.234 N 
HETATM   17  N   UNK N   1      29.654  17.744   9.309  0.00  0.00    -0.168 N 
HETATM   18  H   UNK N   1      32.672  16.936   8.651  0.00  0.00     0.174 HD
ATOM     19  HN  UNK N   1      31.970  17.406  10.168  1.00  0.00     0.174 HD
ATOM     20  HN  UNK N   1      29.778  18.058  10.271  1.00  0.00     0.186 HD
BRANCH  12  21
HETATM   21  O   UNK N   1      27.362  18.272   9.425  0.00  0.00    -0.344 OA
HETATM   22  H   UNK N   1      26.687  17.684   9.701  0.00  0.00     0.219 HD
ENDBRANCH  12  21
ENDBRANCH   4   6
BRANCH   3  23
HETATM   23  O   UNK N   1      28.651  13.839   3.812  0.00  0.00    -0.388 OA
HETATM   24  H   UNK N   1      27.966  14.080   3.168  0.00  0.00     0.210 HD
ENDBRANCH   3  23
BRANCH   2  25
HETATM   25  O   UNK N   1      30.896  13.492   2.425  0.00  0.00    -0.390 OA
HETATM   26  H   UNK N   1      30.799  12.564   2.159  0.00  0.00     0.210 HD
ENDBRANCH   2  25
BRANCH   1  27
HETATM   27  C   UNK N   1      33.188  15.562   3.509  0.00  0.00     0.215 C 
BRANCH  27  28
HETATM   28  O   UNK N   1      33.671  14.787   4.568  0.00  0.00    -0.294 OA
BRANCH  28  29
HETATM   29  P   UNK N   1      34.211  15.889   5.807  0.00  0.00     0.401 P 
HETATM   30  O   UNK N   1      35.728  15.648   6.056  0.00  0.00    -0.631 OA
BRANCH  29  31
HETATM   31  O   UNK N   1      34.025  17.552   5.341  0.00  0.00    -0.307 OA
HETATM   32  H   UNK N   1      34.662  18.217   5.642  0.00  0.00     0.222 HD
ENDBRANCH  29  31
BRANCH  29  33
HETATM   33  O   UNK N   1      33.335  15.563   7.286  0.00  0.00    -0.201 OA
BRANCH  33  34
HETATM   34  P   UNK N   1      33.323  13.831   7.522  0.00  0.00     0.351 P 
HETATM   35  O   UNK N   1      31.823  14.058   7.190  0.00  0.00    -0.637 OA
BRANCH  34  36
HETATM   36  N   UNK N   1      32.513  13.089   8.940  0.00  0.00    -0.342 N 
HETATM   37  H   UNK N   1      32.823  13.234   9.901  0.00  0.00     0.161 HD
HETATM   38  H   UNK N   1      31.702  12.491   8.777  0.00  0.00     0.161 HD
ENDBRANCH  34  36
BRANCH  34  39
HETATM   39  O   UNK N   1      33.699  14.694   8.980  0.00  0.00    -0.312 OA
HETATM   40  H   UNK N   1      33.107  14.668   9.747  0.00  0.00     0.221 HD
ENDBRANCH  34  39
ENDBRANCH  33  34
ENDBRANCH  29  33
ENDBRANCH  28  29
ENDBRANCH  27  28
ENDBRANCH   1  27
TORSDOF 12
ENDMDL
MODEL 7
REMARK VINA RESULT:      -6.8      3.538      5.220
REMARK  12 active torsions:
REMARK  status: ('A' for Active; 'I' for Inactive)
REMARK    1  A    between atoms: C_3  and  C_1 
REMARK    2  A    between atoms: O_27  and  C_1 
REMARK    3  A    between atoms: C_5  and  O_20 
REMARK    4  A    between atoms: C_6  and  O_21 
REMARK    5  A    between atoms: O_22  and  C_8 
REMARK    6  A    between atoms: C_9  and  N_19 
REMARK       I    between atoms: N_11  and  C_10 
REMARK    7  A    between atoms: P_30  and  N_13 
REMARK    8  A    between atoms: P_30  and  O_23 
REMARK    9  A    between atoms: P_31  and  O_25 
REMARK   10  A    between atoms: P_31  and  O_27 
REMARK   11  A    between atoms: P_30  and  O_29 
REMARK   12  A    between atoms: P_31  and  O_29 
ROOT
HETATM    1  C   UNK N   1      33.282  14.798   8.023  0.00  0.00     0.180 C 
HETATM    2  C   UNK N   1      33.235  15.952   9.027  0.00  0.00     0.182 C 
HETATM    3  C   UNK N   1      32.065  16.780   8.507  0.00  0.00     0.198 C 
HETATM    4  C   UNK N   1      31.527  15.918   7.366  0.00  0.00     0.262 C 
HETATM    5  O   UNK N   1      32.676  15.283   6.849  0.00  0.00    -0.353 OA
ENDROOT
BRANCH   4   6
HETATM    6  N   UNK N   1      30.817  16.650   6.310  0.00  0.00    -0.297 N 
HETATM    7  C   UNK N   1      31.080  16.523   4.983  0.00  0.00     0.188 A 
HETATM    8  N   UNK N   1      30.256  17.305   4.232  0.00  0.00    -0.346 N 
HETATM    9  C   UNK N   1      29.459  17.906   5.131  0.00  0.00     0.130 A 
ATOM     10  HN  UNK N   1      30.245  17.411   3.218  1.00  0.00     0.167 HD
HETATM   11  C   UNK N   1      29.793  17.519   6.378  0.00  0.00     0.157 A 
HETATM   12  C   UNK N   1      28.411  18.789   4.933  0.00  0.00     0.186 A 
HETATM   13  N   UNK N   1      29.122  17.948   7.473  0.00  0.00    -0.174 N 
HETATM   14  C   UNK N   1      28.076  18.814   7.294  0.00  0.00     0.679 A 
HETATM   15  H   UNK N   1      29.380  17.646   8.374  0.00  0.00     0.186 HD
HETATM   16  N   UNK N   1      27.414  19.227   8.304  0.00  0.00    -0.234 N 
HETATM   17  N   UNK N   1      27.730  19.231   6.030  0.00  0.00    -0.168 N 
HETATM   18  H   UNK N   1      27.715  19.006   9.215  0.00  0.00     0.174 HD
ATOM     19  HN  UNK N   1      26.572  19.788   8.167  1.00  0.00     0.174 HD
ATOM     20  HN  UNK N   1      26.952  19.879   5.911  1.00  0.00     0.186 HD
BRANCH  12  21
HETATM   21  O   UNK N   1      28.061  19.191   3.699  0.00  0.00    -0.344 OA
HETATM   22  H   UNK N   1      28.448  18.787   2.947  0.00  0.00     0.219 HD
ENDBRANCH  12  21
ENDBRANCH   4   6
BRANCH   3  23
HETATM   23  O   UNK N   1      31.098  17.070   9.474  0.00  0.00    -0.388 OA
HETATM   24  H   UNK N   1      30.174  17.360   9.516  0.00  0.00     0.210 HD
ENDBRANCH   3  23
BRANCH   2  25
HETATM   25  O   UNK N   1      33.050  15.472  10.327  0.00  0.00    -0.390 OA
HETATM   26  H   UNK N   1      33.624  14.997  10.948  0.00  0.00     0.210 HD
ENDBRANCH   2  25
BRANCH   1  27
HETATM   27  C   UNK N   1      34.685  14.269   7.761  0.00  0.00     0.215 C 
BRANCH  27  28
HETATM   28  O   UNK N   1      35.636  15.109   8.346  0.00  0.00    -0.294 OA
BRANCH  28  29
HETATM   29  P   UNK N   1      36.508  14.161   9.522  0.00  0.00     0.401 P 
HETATM   30  O   UNK N   1      37.083  12.901   8.813  0.00  0.00    -0.631 OA
BRANCH  29  31
HETATM   31  O   UNK N   1      37.853  15.026  10.203  0.00  0.00    -0.307 OA
HETATM   32  H   UNK N   1      38.176  15.836   9.779  0.00  0.00     0.222 HD
ENDBRANCH  29  31
BRANCH  29  33
HETATM   33  O   UNK N   1      35.405  13.651  10.780  0.00  0.00    -0.201 OA
BRANCH  33  34
HETATM   34  P   UNK N   1      35.924  14.399  12.273  0.00  0.00     0.351 P 
HETATM   35  O   UNK N   1      36.891  13.183  12.240  0.00  0.00    -0.637 OA
BRANCH  34  36
HETATM   36  N   UNK N   1      35.605  13.628  13.861  0.00  0.00    -0.342 N 
HETATM   37  H   UNK N   1      35.336  12.650  13.965  0.00  0.00     0.161 HD
HETATM   38  H   UNK N   1      35.696  14.197  14.703  0.00  0.00     0.161 HD
ENDBRANCH  34  36
BRANCH  34  39
HETATM   39  O   UNK N   1      34.297  13.803  12.364  0.00  0.00    -0.312 OA
HETATM   40  H   UNK N   1      33.538  14.405  12.342  0.00  0.00     0.221 HD
ENDBRANCH  34  39
ENDBRANCH  33  34
ENDBRANCH  29  33
ENDBRANCH  28  29
ENDBRANCH  27  28
ENDBRANCH   1  27
TORSDOF 12
ENDMDL
MODEL 8
REMARK VINA RESULT:      -6.8     11.223     14.325
REMARK  12 active torsions:
REMARK  status: ('A' for Active; 'I' for Inactive)
REMARK    1  A    between atoms: C_3  and  C_1 
REMARK    2  A    between atoms: O_27  and  C_1 
REMARK    3  A    between atoms: C_5  and  O_20 
REMARK    4  A    between atoms: C_6  and  O_21 
REMARK    5  A    between atoms: O_22  and  C_8 
REMARK    6  A    between atoms: C_9  and  N_19 
REMARK       I    between atoms: N_11  and  C_10 
REMARK    7  A    between atoms: P_30  and  N_13 
REMARK    8  A    between atoms: P_30  and  O_23 
REMARK    9  A    between atoms: P_31  and  O_25 
REMARK   10  A    between atoms: P_31  and  O_27 
REMARK   11  A    between atoms: P_30  and  O_29 
REMARK   12  A    between atoms: P_31  and  O_29 
ROOT
HETATM    1  C   UNK N   1      28.090  25.797  -4.562  0.00  0.00     0.180 C 
HETATM    2  C   UNK N   1      26.943  25.057  -3.870  0.00  0.00     0.182 C 
HETATM    3  C   UNK N   1      27.671  23.899  -3.196  0.00  0.00     0.198 C 
HETATM    4  C   UNK N   1      29.139  24.216  -3.483  0.00  0.00     0.262 C 
HETATM    5  O   UNK N   1      29.110  24.845  -4.745  0.00  0.00    -0.353 OA
ENDROOT
BRANCH   4   6
HETATM    6  N   UNK N   1      30.037  23.055  -3.500  0.00  0.00    -0.297 N 
HETATM    7  C   UNK N   1      30.846  22.699  -2.468  0.00  0.00     0.188 A 
HETATM    8  N   UNK N   1      31.552  21.570  -2.752  0.00  0.00    -0.346 N 
HETATM    9  C   UNK N   1      31.144  21.223  -3.983  0.00  0.00     0.130 A 
ATOM     10  HN  UNK N   1      32.237  21.095  -2.163  1.00  0.00     0.167 HD
HETATM   11  C   UNK N   1      30.237  22.111  -4.436  0.00  0.00     0.157 A 
HETATM   12  C   UNK N   1      31.506  20.137  -4.762  0.00  0.00     0.186 A 
HETATM   13  N   UNK N   1      29.634  21.977  -5.641  0.00  0.00    -0.174 N 
HETATM   14  C   UNK N   1      29.973  20.904  -6.421  0.00  0.00     0.679 A 
HETATM   15  H   UNK N   1      28.969  22.635  -5.949  0.00  0.00     0.186 HD
HETATM   16  N   UNK N   1      29.413  20.740  -7.556  0.00  0.00    -0.234 N 
HETATM   17  N   UNK N   1      30.906  19.994  -5.980  0.00  0.00    -0.168 N 
HETATM   18  H   UNK N   1      28.815  21.435  -7.916  0.00  0.00     0.174 HD
ATOM     19  HN  UNK N   1      29.586  19.889  -8.092  1.00  0.00     0.174 HD
ATOM     20  HN  UNK N   1      31.154  19.202  -6.571  1.00  0.00     0.186 HD
BRANCH  12  21
HETATM   21  O   UNK N   1      32.409  19.240  -4.330  0.00  0.00    -0.344 OA
HETATM   22  H   UNK N   1      33.308  19.487  -4.238  0.00  0.00     0.219 HD
ENDBRANCH  12  21
ENDBRANCH   4   6
BRANCH   3  23
HETATM   23  O   UNK N   1      27.398  23.772  -1.831  0.00  0.00    -0.388 OA
HETATM   24  H   UNK N   1      27.776  23.340  -1.049  0.00  0.00     0.210 HD
ENDBRANCH   3  23
BRANCH   2  25
HETATM   25  O   UNK N   1      26.275  25.898  -2.976  0.00  0.00    -0.390 OA
HETATM   26  H   UNK N   1      26.065  26.845  -2.986  0.00  0.00     0.210 HD
ENDBRANCH   2  25
BRANCH   1  27
HETATM   27  C   UNK N   1      27.690  26.462  -5.872  0.00  0.00     0.215 C 
BRANCH  27  28
HETATM   28  O   UNK N   1      26.441  25.996  -6.289  0.00  0.00    -0.294 OA
BRANCH  28  29
HETATM   29  P   UNK N   1      26.717  24.886  -7.606  0.00  0.00     0.401 P 
HETATM   30  O   UNK N   1      27.181  25.699  -8.849  0.00  0.00    -0.631 OA
BRANCH  29  31
HETATM   31  O   UNK N   1      27.969  23.735  -7.249  0.00  0.00    -0.307 OA
HETATM   32  H   UNK N   1      28.826  23.793  -7.697  0.00  0.00     0.222 HD
ENDBRANCH  29  31
BRANCH  29  33
HETATM   33  O   UNK N   1      25.220  24.067  -7.990  0.00  0.00    -0.201 OA
BRANCH  33  34
HETATM   34  P   UNK N   1      25.458  22.362  -7.686  0.00  0.00     0.351 P 
HETATM   35  O   UNK N   1      24.103  22.305  -8.442  0.00  0.00    -0.637 OA
BRANCH  34  36
HETATM   36  N   UNK N   1      24.423  21.469  -6.524  0.00  0.00    -0.342 N 
HETATM   37  H   UNK N   1      23.815  20.696  -6.796  0.00  0.00     0.161 HD
HETATM   38  H   UNK N   1      24.443  21.748  -5.543  0.00  0.00     0.161 HD
ENDBRANCH  34  36
BRANCH  34  39
HETATM   39  O   UNK N   1      25.232  23.269  -6.224  0.00  0.00    -0.312 OA
HETATM   40  H   UNK N   1      25.941  23.352  -5.568  0.00  0.00     0.221 HD
ENDBRANCH  34  39
ENDBRANCH  33  34
ENDBRANCH  29  33
ENDBRANCH  28  29
ENDBRANCH  27  28
ENDBRANCH   1  27
TORSDOF 12
ENDMDL
MODEL 9
REMARK VINA RESULT:      -6.8      4.634      9.423
REMARK  12 active torsions:
REMARK  status: ('A' for Active; 'I' for Inactive)
REMARK    1  A    between atoms: C_3  and  C_1 
REMARK    2  A    between atoms: O_27  and  C_1 
REMARK    3  A    between atoms: C_5  and  O_20 
REMARK    4  A    between atoms: C_6  and  O_21 
REMARK    5  A    between atoms: O_22  and  C_8 
REMARK    6  A    between atoms: C_9  and  N_19 
REMARK       I    between atoms: N_11  and  C_10 
REMARK    7  A    between atoms: P_30  and  N_13 
REMARK    8  A    between atoms: P_30  and  O_23 
REMARK    9  A    between atoms: P_31  and  O_25 
REMARK   10  A    between atoms: P_31  and  O_27 
REMARK   11  A    between atoms: P_30  and  O_29 
REMARK   12  A    between atoms: P_31  and  O_29 
ROOT
HETATM    1  C   UNK N   1      32.478  15.943   5.608  0.00  0.00     0.180 C 
HETATM    2  C   UNK N   1      32.776  17.419   5.883  0.00  0.00     0.182 C 
HETATM    3  C   UNK N   1      33.509  17.353   7.218  0.00  0.00     0.198 C 
HETATM    4  C   UNK N   1      33.645  15.848   7.451  0.00  0.00     0.262 C 
HETATM    5  O   UNK N   1      32.482  15.308   6.863  0.00  0.00    -0.353 OA
ENDROOT
BRANCH   4   6
HETATM    6  N   UNK N   1      33.757  15.441   8.856  0.00  0.00    -0.297 N 
HETATM    7  C   UNK N   1      32.698  15.290   9.694  0.00  0.00     0.188 A 
HETATM    8  N   UNK N   1      33.093  14.884  10.932  0.00  0.00    -0.346 N 
HETATM    9  C   UNK N   1      34.427  14.767  10.833  0.00  0.00     0.130 A 
ATOM     10  HN  UNK N   1      32.509  14.708  11.750  1.00  0.00     0.167 HD
HETATM   11  C   UNK N   1      34.830  15.101   9.591  0.00  0.00     0.157 A 
HETATM   12  C   UNK N   1      35.352  14.357  11.779  0.00  0.00     0.186 A 
HETATM   13  N   UNK N   1      36.127  15.036   9.209  0.00  0.00    -0.174 N 
HETATM   14  C   UNK N   1      37.054  14.624  10.129  0.00  0.00     0.679 A 
HETATM   15  H   UNK N   1      36.397  15.279   8.294  0.00  0.00     0.186 HD
HETATM   16  N   UNK N   1      38.284  14.538   9.798  0.00  0.00    -0.234 N 
HETATM   17  N   UNK N   1      36.663  14.291  11.405  0.00  0.00    -0.168 N 
HETATM   18  H   UNK N   1      38.581  14.862   8.917  0.00  0.00     0.174 HD
ATOM     19  HN  UNK N   1      38.959  14.133  10.447  1.00  0.00     0.174 HD
ATOM     20  HN  UNK N   1      37.364  13.990  12.083  1.00  0.00     0.186 HD
BRANCH  12  21
HETATM   21  O   UNK N   1      34.974  14.020  13.024  0.00  0.00    -0.344 OA
HETATM   22  H   UNK N   1      35.534  13.493  13.558  0.00  0.00     0.219 HD
ENDBRANCH  12  21
ENDBRANCH   4   6
BRANCH   3  23
HETATM   23  O   UNK N   1      34.738  18.019   7.227  0.00  0.00    -0.388 OA
HETATM   24  H   UNK N   1      35.636  17.897   6.880  0.00  0.00     0.210 HD
ENDBRANCH   3  23
BRANCH   2  25
HETATM   25  O   UNK N   1      33.538  17.974   4.851  0.00  0.00    -0.390 OA
HETATM   26  H   UNK N   1      34.021  17.590   4.101  0.00  0.00     0.210 HD
ENDBRANCH   2  25
BRANCH   1  27
HETATM   27  C   UNK N   1      31.175  15.710   4.856  0.00  0.00     0.215 C 
BRANCH  27  28
HETATM   28  O   UNK N   1      30.634  16.928   4.437  0.00  0.00    -0.294 OA
BRANCH  28  29
HETATM   29  P   UNK N   1      29.096  17.112   5.240  0.00  0.00     0.401 P 
HETATM   30  O   UNK N   1      28.624  18.584   5.074  0.00  0.00    -0.631 OA
BRANCH  29  31
HETATM   31  O   UNK N   1      27.866  16.096   4.552  0.00  0.00    -0.307 OA
HETATM   32  H   UNK N   1      27.994  15.137   4.508  0.00  0.00     0.222 HD
ENDBRANCH  29  31
BRANCH  29  33
HETATM   33  O   UNK N   1      29.295  16.768   6.944  0.00  0.00    -0.201 OA
BRANCH  33  34
HETATM   34  P   UNK N   1      28.873  18.217   7.828  0.00  0.00     0.351 P 
HETATM   35  O   UNK N   1      29.631  17.443   8.942  0.00  0.00    -0.637 OA
BRANCH  34  36
HETATM   36  N   UNK N   1      27.658  18.183   9.147  0.00  0.00    -0.342 N 
HETATM   37  H   UNK N   1      27.480  18.975   9.764  0.00  0.00     0.161 HD
HETATM   38  H   UNK N   1      27.118  17.329   9.287  0.00  0.00     0.161 HD
ENDBRANCH  34  36
BRANCH  34  39
HETATM   39  O   UNK N   1      27.478  17.291   7.370  0.00  0.00    -0.312 OA
HETATM   40  H   UNK N   1      27.528  16.613   6.679  0.00  0.00     0.221 HD
ENDBRANCH  34  39
ENDBRANCH  33  34
ENDBRANCH  29  33
ENDBRANCH  28  29
ENDBRANCH  27  28
ENDBRANCH   1  27
TORSDOF 12
ENDMDL
