MODEL 1
REMARK VINA RESULT:      -7.2      0.000      0.000
REMARK  18 active torsions:
REMARK  status: ('A' for Active; 'I' for Inactive)
REMARK    1  A    between atoms: C_3  and  C_2 
REMARK    2  A    between atoms: N_17  and  C_2 
REMARK    3  A    between atoms: S_36  and  C_3 
REMARK    4  A    between atoms: C_9  and  C_5 
REMARK    5  A    between atoms: O_22  and  C_5 
REMARK    6  A    between atoms: C_11  and  C_6 
REMARK    7  A    between atoms: O_23  and  C_6 
REMARK    8  A    between atoms: O_24  and  C_7 
REMARK    9  A    between atoms: C_8  and  C_15 
REMARK   10  A    between atoms: C_10  and  O_33 
REMARK   11  A    between atoms: C_12  and  N_19 
REMARK   12  A    between atoms: C_13  and  O_25 
REMARK   13  A    between atoms: C_14  and  O_35 
REMARK   14  A    between atoms: O_26  and  C_15 
REMARK   15  A    between atoms: C_16  and  O_33 
REMARK   16  A    between atoms: S_36  and  O_27 
REMARK   17  A    between atoms: S_37  and  O_30 
REMARK   18  A    between atoms: S_37  and  O_35 
ROOT
HETATM    1  C   UNK N   1      27.014  20.612   5.932  0.00  0.00     0.181 C 
HETATM    2  C   UNK N   1      27.512  18.106   4.563  0.00  0.00     0.169 C 
HETATM    3  C   UNK N   1      26.724  19.231   3.867  0.00  0.00     0.178 C 
HETATM    4  C   UNK N   1      25.982  20.030   4.952  0.00  0.00     0.206 C 
HETATM    5  C   UNK N   1      28.436  18.682   5.686  0.00  0.00     0.286 C 
HETATM    6  O   UNK N   1      27.715  19.551   6.539  0.00  0.00    -0.349 OA
ENDROOT
BRANCH   5   7
HETATM    7  O   UNK N   1      28.902  17.588   6.473  0.00  0.00    -0.352 OA
BRANCH   7   8
HETATM    8  C   UNK N   1      29.958  17.928   7.374  0.00  0.00     0.151 C 
HETATM    9  C   UNK N   1      31.165  17.037   7.101  0.00  0.00     0.067 C 
HETATM   10  C   UNK N   1      31.873  16.886   8.467  0.00  0.00     0.154 C 
HETATM   11  N   UNK N   1      31.049  17.607   9.423  0.00  0.00    -0.401 N 
HETATM   12  C   UNK N   1      29.721  17.560   8.849  0.00  0.00     0.130 C 
HETATM   13  H   UNK N   1      31.338  18.043  10.298  0.00  0.00     0.154 HD
BRANCH  10  14
HETATM   14  C   UNK N   1      32.062  15.490   9.057  0.00  0.00     0.134 C 
HETATM   15  N   UNK N   1      33.008  14.661   8.740  0.00  0.00    -0.372 N 
ATOM     16  HN  UNK N   1      32.952  13.727   9.146  1.00  0.00     0.161 HD
BRANCH  15  17
HETATM   17  C   UNK N   1      34.129  14.924   7.877  0.00  0.00     0.138 C 
BRANCH  17  18
HETATM   18  C   UNK N   1      35.432  14.895   8.677  0.00  0.00     0.175 C 
BRANCH  18  19
HETATM   19  S   UNK N   1      35.375  15.932  10.184  0.00  0.00     0.095 S 
HETATM   20  O   UNK N   1      36.751  16.189  10.819  0.00  0.00    -0.601 OA
HETATM   21  O   UNK N   1      34.870  17.359   9.923  0.00  0.00    -0.601 OA
BRANCH  19  22
HETATM   22  O   UNK N   1      34.423  15.358  11.491  0.00  0.00    -0.296 OA
HETATM   23  H   UNK N   1      33.847  14.667  11.854  0.00  0.00     0.232 HD
ENDBRANCH  19  22
ENDBRANCH  18  19
ENDBRANCH  17  18
ENDBRANCH  15  17
BRANCH  14  24
HETATM   24  O   UNK N   1      31.162  15.088   9.974  0.00  0.00    -0.348 OA
HETATM   25  H   UNK N   1      30.246  15.123   9.785  0.00  0.00     0.219 HD
ENDBRANCH  14  24
ENDBRANCH  10  14
BRANCH  12  26
HETATM   26  C   UNK N   1      28.834  18.466   9.685  0.00  0.00     0.191 C 
BRANCH  26  27
HETATM   27  O   UNK N   1      27.499  18.327   9.302  0.00  0.00    -0.399 OA
HETATM   28  H   UNK N   1      27.024  18.622   8.510  0.00  0.00     0.209 HD
ENDBRANCH  26  27
ENDBRANCH  12  26
ENDBRANCH   7   8
ENDBRANCH   5   7
BRANCH   2  29
HETATM   29  N   UNK N   1      28.251  17.378   3.541  0.00  0.00    -0.363 N 
HETATM   30  C   UNK N   1      28.505  16.115   3.564  0.00  0.00     0.107 C 
HETATM   31  C   UNK N   1      29.269  15.505   2.440  0.00  0.00     0.097 C 
ATOM     32  HN  UNK N   1      28.595  17.911   2.742  1.00  0.00     0.162 HD
BRANCH  30  33
HETATM   33  O   UNK N   1      28.062  15.330   4.566  0.00  0.00    -0.350 OA
HETATM   34  H   UNK N   1      28.245  14.421   4.701  0.00  0.00     0.219 HD
ENDBRANCH  30  33
ENDBRANCH   2  29
BRANCH   3  35
HETATM   35  O   UNK N   1      27.605  20.048   3.149  0.00  0.00    -0.391 OA
HETATM   36  H   UNK N   1      28.215  20.795   3.046  0.00  0.00     0.210 HD
ENDBRANCH   3  35
BRANCH   1  37
HETATM   37  C   UNK N   1      26.325  21.349   7.084  0.00  0.00     0.199 C 
BRANCH  37  38
HETATM   38  O   UNK N   1      26.274  20.586   8.248  0.00  0.00    -0.398 OA
HETATM   39  H   UNK N   1      25.601  19.895   8.349  0.00  0.00     0.209 HD
ENDBRANCH  37  38
ENDBRANCH   1  37
BRANCH   4  40
HETATM   40  O   UNK N   1      24.997  20.940   4.487  0.00  0.00    -0.253 OA
BRANCH  40  41
HETATM   41  S   UNK N   1      24.067  20.414   3.123  0.00  0.00     0.240 S 
HETATM   42  O   UNK N   1      22.925  21.432   2.980  0.00  0.00    -0.579 OA
HETATM   43  O   UNK N   1      24.822  20.569   1.795  0.00  0.00    -0.579 OA
BRANCH  41  44
HETATM   44  O   UNK N   1      23.325  18.872   3.242  0.00  0.00    -0.274 OA
HETATM   45  H   UNK N   1      23.411  18.230   2.521  0.00  0.00     0.234 HD
ENDBRANCH  41  44
ENDBRANCH  40  41
ENDBRANCH   4  40
TORSDOF 18
ENDMDL
MODEL 2
REMARK VINA RESULT:      -6.8      3.722      9.513
REMARK  18 active torsions:
REMARK  status: ('A' for Active; 'I' for Inactive)
REMARK    1  A    between atoms: C_3  and  C_2 
REMARK    2  A    between atoms: N_17  and  C_2 
REMARK    3  A    between atoms: S_36  and  C_3 
REMARK    4  A    between atoms: C_9  and  C_5 
REMARK    5  A    between atoms: O_22  and  C_5 
REMARK    6  A    between atoms: C_11  and  C_6 
REMARK    7  A    between atoms: O_23  and  C_6 
REMARK    8  A    between atoms: O_24  and  C_7 
REMARK    9  A    between atoms: C_8  and  C_15 
REMARK   10  A    between atoms: C_10  and  O_33 
REMARK   11  A    between atoms: C_12  and  N_19 
REMARK   12  A    between atoms: C_13  and  O_25 
REMARK   13  A    between atoms: C_14  and  O_35 
REMARK   14  A    between atoms: O_26  and  C_15 
REMARK   15  A    between atoms: C_16  and  O_33 
REMARK   16  A    between atoms: S_36  and  O_27 
REMARK   17  A    between atoms: S_37  and  O_30 
REMARK   18  A    between atoms: S_37  and  O_35 
ROOT
HETATM    1  C   UNK N   1      34.498  16.026   9.792  0.00  0.00     0.181 C 
HETATM    2  C   UNK N   1      33.973  13.789   8.025  0.00  0.00     0.169 C 
HETATM    3  C   UNK N   1      33.446  13.780   9.471  0.00  0.00     0.178 C 
HETATM    4  C   UNK N   1      34.425  14.590  10.337  0.00  0.00     0.206 C 
HETATM    5  C   UNK N   1      34.216  15.253   7.527  0.00  0.00     0.286 C 
HETATM    6  O   UNK N   1      34.977  15.987   8.468  0.00  0.00    -0.349 OA
ENDROOT
BRANCH   5   7
HETATM    7  O   UNK N   1      34.968  15.185   6.317  0.00  0.00    -0.352 OA
BRANCH   7   8
HETATM    8  C   UNK N   1      34.500  16.061   5.291  0.00  0.00     0.151 C 
HETATM    9  C   UNK N   1      33.600  17.129   5.906  0.00  0.00     0.067 C 
HETATM   10  C   UNK N   1      32.583  17.486   4.799  0.00  0.00     0.154 C 
HETATM   11  N   UNK N   1      32.888  16.610   3.680  0.00  0.00    -0.401 N 
HETATM   12  C   UNK N   1      33.497  15.451   4.297  0.00  0.00     0.130 C 
HETATM   13  H   UNK N   1      32.713  16.773   2.689  0.00  0.00     0.154 HD
BRANCH  10  14
HETATM   14  C   UNK N   1      31.091  17.301   5.072  0.00  0.00     0.134 C 
HETATM   15  N   UNK N   1      30.549  17.188   6.244  0.00  0.00    -0.372 N 
ATOM     16  HN  UNK N   1      29.552  16.973   6.268  1.00  0.00     0.161 HD
BRANCH  15  17
HETATM   17  C   UNK N   1      31.208  17.335   7.515  0.00  0.00     0.138 C 
BRANCH  17  18
HETATM   18  C   UNK N   1      30.190  17.240   8.652  0.00  0.00     0.175 C 
BRANCH  18  19
HETATM   19  S   UNK N   1      28.508  17.766   8.161  0.00  0.00     0.095 S 
HETATM   20  O   UNK N   1      28.477  19.036   7.296  0.00  0.00    -0.601 OA
HETATM   21  O   UNK N   1      27.789  16.748   7.264  0.00  0.00    -0.601 OA
BRANCH  19  22
HETATM   22  O   UNK N   1      27.396  18.104   9.423  0.00  0.00    -0.296 OA
HETATM   23  H   UNK N   1      27.139  18.666  10.172  0.00  0.00     0.232 HD
ENDBRANCH  19  22
ENDBRANCH  18  19
ENDBRANCH  17  18
ENDBRANCH  15  17
BRANCH  14  24
HETATM   24  O   UNK N   1      30.278  17.241   4.000  0.00  0.00    -0.348 OA
HETATM   25  H   UNK N   1      30.073  18.017   3.518  0.00  0.00     0.219 HD
ENDBRANCH  14  24
ENDBRANCH  10  14
BRANCH  12  26
HETATM   26  C   UNK N   1      34.032  14.572   3.180  0.00  0.00     0.191 C 
BRANCH  26  27
HETATM   27  O   UNK N   1      35.172  13.887   3.604  0.00  0.00    -0.399 OA
HETATM   28  H   UNK N   1      35.592  13.816   4.475  0.00  0.00     0.209 HD
ENDBRANCH  26  27
ENDBRANCH  12  26
ENDBRANCH   7   8
ENDBRANCH   5   7
BRANCH   2  29
HETATM   29  N   UNK N   1      33.023  13.062   7.196  0.00  0.00    -0.363 N 
HETATM   30  C   UNK N   1      33.329  12.325   6.183  0.00  0.00     0.107 C 
HETATM   31  C   UNK N   1      32.245  11.633   5.432  0.00  0.00     0.097 C 
ATOM     32  HN  UNK N   1      32.035  13.141   7.436  1.00  0.00     0.162 HD
BRANCH  30  33
HETATM   33  O   UNK N   1      34.612  12.140   5.815  0.00  0.00    -0.350 OA
HETATM   34  H   UNK N   1      35.271  11.657   6.273  0.00  0.00     0.219 HD
ENDBRANCH  30  33
ENDBRANCH   2  29
BRANCH   3  35
HETATM   35  O   UNK N   1      32.160  14.332   9.506  0.00  0.00    -0.391 OA
HETATM   36  H   UNK N   1      31.473  14.922   9.854  0.00  0.00     0.210 HD
ENDBRANCH   3  35
BRANCH   1  37
HETATM   37  C   UNK N   1      35.524  16.858  10.566  0.00  0.00     0.199 C 
BRANCH  37  38
HETATM   38  O   UNK N   1      36.715  16.167  10.781  0.00  0.00    -0.398 OA
HETATM   39  H   UNK N   1      36.939  15.847  11.669  0.00  0.00     0.209 HD
ENDBRANCH  37  38
ENDBRANCH   1  37
BRANCH   4  40
HETATM   40  O   UNK N   1      34.252  14.475  11.741  0.00  0.00    -0.253 OA
BRANCH  40  41
HETATM   41  S   UNK N   1      35.341  13.399  12.551  0.00  0.00     0.240 S 
HETATM   42  O   UNK N   1      34.838  13.308  13.999  0.00  0.00    -0.579 OA
HETATM   43  O   UNK N   1      35.216  11.949  12.061  0.00  0.00    -0.579 OA
BRANCH  41  44
HETATM   44  O   UNK N   1      36.984  13.886  12.641  0.00  0.00    -0.274 OA
HETATM   45  H   UNK N   1      37.383  14.399  11.922  0.00  0.00     0.234 HD
ENDBRANCH  41  44
ENDBRANCH  40  41
ENDBRANCH   4  40
TORSDOF 18
ENDMDL
MODEL 3
REMARK VINA RESULT:      -6.7      2.999      5.332
REMARK  18 active torsions:
REMARK  status: ('A' for Active; 'I' for Inactive)
REMARK    1  A    between atoms: C_3  and  C_2 
REMARK    2  A    between atoms: N_17  and  C_2 
REMARK    3  A    between atoms: S_36  and  C_3 
REMARK    4  A    between atoms: C_9  and  C_5 
REMARK    5  A    between atoms: O_22  and  C_5 
REMARK    6  A    between atoms: C_11  and  C_6 
REMARK    7  A    between atoms: O_23  and  C_6 
REMARK    8  A    between atoms: O_24  and  C_7 
REMARK    9  A    between atoms: C_8  and  C_15 
REMARK   10  A    between atoms: C_10  and  O_33 
REMARK   11  A    between atoms: C_12  and  N_19 
REMARK   12  A    between atoms: C_13  and  O_25 
REMARK   13  A    between atoms: C_14  and  O_35 
REMARK   14  A    between atoms: O_26  and  C_15 
REMARK   15  A    between atoms: C_16  and  O_33 
REMARK   16  A    between atoms: S_36  and  O_27 
REMARK   17  A    between atoms: S_37  and  O_30 
REMARK   18  A    between atoms: S_37  and  O_35 
ROOT
HETATM    1  C   UNK N   1      22.795  16.343   3.712  0.00  0.00     0.181 C 
HETATM    2  C   UNK N   1      24.470  18.629   4.321  0.00  0.00     0.169 C 
HETATM    3  C   UNK N   1      22.967  18.652   4.655  0.00  0.00     0.178 C 
HETATM    4  C   UNK N   1      22.240  17.774   3.624  0.00  0.00     0.206 C 
HETATM    5  C   UNK N   1      25.001  17.159   4.236  0.00  0.00     0.286 C 
HETATM    6  O   UNK N   1      24.170  16.368   3.407  0.00  0.00    -0.349 OA
ENDROOT
BRANCH   5   7
HETATM    7  O   UNK N   1      26.298  17.196   3.643  0.00  0.00    -0.352 OA
BRANCH   7   8
HETATM    8  C   UNK N   1      27.224  16.270   4.214  0.00  0.00     0.151 C 
HETATM    9  C   UNK N   1      27.975  16.942   5.359  0.00  0.00     0.067 C 
HETATM   10  C   UNK N   1      29.365  16.267   5.382  0.00  0.00     0.154 C 
HETATM   11  N   UNK N   1      29.371  15.332   4.269  0.00  0.00    -0.401 N 
HETATM   12  C   UNK N   1      28.426  15.897   3.330  0.00  0.00     0.130 C 
HETATM   13  H   UNK N   1      29.916  14.476   4.172  0.00  0.00     0.154 HD
BRANCH  10  14
HETATM   14  C   UNK N   1      30.614  17.129   5.203  0.00  0.00     0.134 C 
HETATM   15  N   UNK N   1      31.456  17.436   6.139  0.00  0.00    -0.372 N 
ATOM     16  HN  UNK N   1      32.192  18.099   5.893  1.00  0.00     0.161 HD
BRANCH  15  17
HETATM   17  C   UNK N   1      31.461  16.938   7.490  0.00  0.00     0.138 C 
BRANCH  17  18
HETATM   18  C   UNK N   1      32.310  17.844   8.384  0.00  0.00     0.175 C 
BRANCH  18  19
HETATM   19  S   UNK N   1      34.074  17.887   7.900  0.00  0.00     0.095 S 
HETATM   20  O   UNK N   1      34.812  19.162   8.337  0.00  0.00    -0.601 OA
HETATM   21  O   UNK N   1      34.914  16.786   8.564  0.00  0.00    -0.601 OA
BRANCH  19  22
HETATM   22  O   UNK N   1      34.427  17.763   6.226  0.00  0.00    -0.296 OA
HETATM   23  H   UNK N   1      34.667  18.205   5.396  0.00  0.00     0.232 HD
ENDBRANCH  19  22
ENDBRANCH  18  19
ENDBRANCH  17  18
ENDBRANCH  15  17
BRANCH  14  24
HETATM   24  O   UNK N   1      30.848  17.614   3.969  0.00  0.00    -0.348 OA
HETATM   25  H   UNK N   1      30.142  17.734   3.366  0.00  0.00     0.219 HD
ENDBRANCH  14  24
ENDBRANCH  10  14
BRANCH  12  26
HETATM   26  C   UNK N   1      28.220  14.875   2.225  0.00  0.00     0.191 C 
BRANCH  26  27
HETATM   27  O   UNK N   1      26.886  14.864   1.815  0.00  0.00    -0.399 OA
HETATM   28  H   UNK N   1      26.112  14.393   2.159  0.00  0.00     0.209 HD
ENDBRANCH  26  27
ENDBRANCH  12  26
ENDBRANCH   7   8
ENDBRANCH   5   7
BRANCH   2  29
HETATM   29  N   UNK N   1      25.165  19.423   5.324  0.00  0.00    -0.363 N 
HETATM   30  C   UNK N   1      26.206  20.151   5.107  0.00  0.00     0.107 C 
HETATM   31  C   UNK N   1      26.808  20.917   6.234  0.00  0.00     0.097 C 
ATOM     32  HN  UNK N   1      24.799  19.401   6.275  1.00  0.00     0.162 HD
BRANCH  30  33
HETATM   33  O   UNK N   1      26.738  20.262   3.873  0.00  0.00    -0.350 OA
HETATM   34  H   UNK N   1      27.253  20.968   3.536  0.00  0.00     0.219 HD
ENDBRANCH  30  33
ENDBRANCH   2  29
BRANCH   3  35
HETATM   35  O   UNK N   1      22.768  18.179   5.957  0.00  0.00    -0.391 OA
HETATM   36  H   UNK N   1      22.954  17.602   6.714  0.00  0.00     0.210 HD
ENDBRANCH   3  35
BRANCH   1  37
HETATM   37  C   UNK N   1      22.164  15.441   2.647  0.00  0.00     0.199 C 
BRANCH  37  38
HETATM   38  O   UNK N   1      20.822  15.169   2.908  0.00  0.00    -0.398 OA
HETATM   39  H   UNK N   1      20.416  14.355   2.571  0.00  0.00     0.209 HD
ENDBRANCH  37  38
ENDBRANCH   1  37
BRANCH   4  40
HETATM   40  O   UNK N   1      20.824  17.883   3.607  0.00  0.00    -0.253 OA
BRANCH  40  41
HETATM   41  S   UNK N   1      20.185  19.306   2.855  0.00  0.00     0.240 S 
HETATM   42  O   UNK N   1      18.666  19.092   2.779  0.00  0.00    -0.579 OA
HETATM   43  O   UNK N   1      20.303  20.551   3.745  0.00  0.00    -0.579 OA
BRANCH  41  44
HETATM   44  O   UNK N   1      20.705  19.633   1.253  0.00  0.00    -0.274 OA
HETATM   45  H   UNK N   1      20.410  19.074   0.518  0.00  0.00     0.234 HD
ENDBRANCH  41  44
ENDBRANCH  40  41
ENDBRANCH   4  40
TORSDOF 18
ENDMDL
MODEL 4
REMARK VINA RESULT:      -6.7      2.878      9.319
REMARK  18 active torsions:
REMARK  status: ('A' for Active; 'I' for Inactive)
REMARK    1  A    between atoms: C_3  and  C_2 
REMARK    2  A    between atoms: N_17  and  C_2 
REMARK    3  A    between atoms: S_36  and  C_3 
REMARK    4  A    between atoms: C_9  and  C_5 
REMARK    5  A    between atoms: O_22  and  C_5 
REMARK    6  A    between atoms: C_11  and  C_6 
REMARK    7  A    between atoms: O_23  and  C_6 
REMARK    8  A    between atoms: O_24  and  C_7 
REMARK    9  A    between atoms: C_8  and  C_15 
REMARK   10  A    between atoms: C_10  and  O_33 
REMARK   11  A    between atoms: C_12  and  N_19 
REMARK   12  A    between atoms: C_13  and  O_25 
REMARK   13  A    between atoms: C_14  and  O_35 
REMARK   14  A    between atoms: O_26  and  C_15 
REMARK   15  A    between atoms: C_16  and  O_33 
REMARK   16  A    between atoms: S_36  and  O_27 
REMARK   17  A    between atoms: S_37  and  O_30 
REMARK   18  A    between atoms: S_37  and  O_35 
ROOT
HETATM    1  C   UNK N   1      30.234  17.548   8.339  0.00  0.00     0.181 C 
HETATM    2  C   UNK N   1      30.646  16.400   5.710  0.00  0.00     0.169 C 
HETATM    3  C   UNK N   1      31.732  16.274   6.794  0.00  0.00     0.178 C 
HETATM    4  C   UNK N   1      31.635  17.508   7.706  0.00  0.00     0.206 C 
HETATM    5  C   UNK N   1      29.236  16.618   6.353  0.00  0.00     0.286 C 
HETATM    6  O   UNK N   1      29.274  17.656   7.314  0.00  0.00    -0.349 OA
ENDROOT
BRANCH   5   7
HETATM    7  O   UNK N   1      28.340  17.017   5.317  0.00  0.00    -0.352 OA
BRANCH   7   8
HETATM    8  C   UNK N   1      27.015  17.300   5.771  0.00  0.00     0.151 C 
HETATM    9  C   UNK N   1      26.108  16.113   5.461  0.00  0.00     0.067 C 
HETATM   10  C   UNK N   1      24.707  16.725   5.234  0.00  0.00     0.154 C 
HETATM   11  N   UNK N   1      24.877  18.164   5.355  0.00  0.00    -0.401 N 
HETATM   12  C   UNK N   1      26.259  18.387   4.989  0.00  0.00     0.130 C 
HETATM   13  H   UNK N   1      24.183  18.856   5.634  0.00  0.00     0.154 HD
BRANCH  10  14
HETATM   14  C   UNK N   1      24.006  16.505   3.894  0.00  0.00     0.134 C 
HETATM   15  N   UNK N   1      22.727  16.574   3.694  0.00  0.00    -0.372 N 
ATOM     16  HN  UNK N   1      22.395  16.308   2.766  1.00  0.00     0.161 HD
BRANCH  15  17
HETATM   17  C   UNK N   1      21.728  16.985   4.644  0.00  0.00     0.138 C 
BRANCH  17  18
HETATM   18  C   UNK N   1      20.622  17.774   3.940  0.00  0.00     0.175 C 
BRANCH  18  19
HETATM   19  S   UNK N   1      21.180  19.403   3.322  0.00  0.00     0.095 S 
HETATM   20  O   UNK N   1      20.425  20.595   3.932  0.00  0.00    -0.601 OA
HETATM   21  O   UNK N   1      22.637  19.726   3.685  0.00  0.00    -0.601 OA
BRANCH  19  22
HETATM   22  O   UNK N   1      21.075  19.674   1.632  0.00  0.00    -0.296 OA
HETATM   23  H   UNK N   1      21.141  19.319   0.731  0.00  0.00     0.232 HD
ENDBRANCH  19  22
ENDBRANCH  18  19
ENDBRANCH  17  18
ENDBRANCH  15  17
BRANCH  14  24
HETATM   24  O   UNK N   1      24.788  16.206   2.839  0.00  0.00    -0.348 OA
HETATM   25  H   UNK N   1      24.803  15.337   2.493  0.00  0.00     0.219 HD
ENDBRANCH  14  24
ENDBRANCH  10  14
BRANCH  12  26
HETATM   26  C   UNK N   1      26.577  19.842   5.285  0.00  0.00     0.191 C 
BRANCH  26  27
HETATM   27  O   UNK N   1      27.708  19.937   6.097  0.00  0.00    -0.399 OA
HETATM   28  H   UNK N   1      28.129  20.698   6.526  0.00  0.00     0.209 HD
ENDBRANCH  26  27
ENDBRANCH  12  26
ENDBRANCH   7   8
ENDBRANCH   5   7
BRANCH   2  29
HETATM   29  N   UNK N   1      30.707  15.209   4.874  0.00  0.00    -0.363 N 
HETATM   30  C   UNK N   1      31.271  15.140   3.716  0.00  0.00     0.107 C 
HETATM   31  C   UNK N   1      31.260  13.847   2.977  0.00  0.00     0.097 C 
ATOM     32  HN  UNK N   1      30.268  14.361   5.232  1.00  0.00     0.162 HD
BRANCH  30  33
HETATM   33  O   UNK N   1      31.901  16.204   3.180  0.00  0.00    -0.350 OA
HETATM   34  H   UNK N   1      32.803  16.267   2.936  0.00  0.00     0.219 HD
ENDBRANCH  30  33
ENDBRANCH   2  29
BRANCH   3  35
HETATM   35  O   UNK N   1      31.539  15.092   7.517  0.00  0.00    -0.391 OA
HETATM   36  H   UNK N   1      31.625  14.522   8.298  0.00  0.00     0.210 HD
ENDBRANCH   3  35
BRANCH   1  37
HETATM   37  C   UNK N   1      30.052  18.806   9.194  0.00  0.00     0.199 C 
BRANCH  37  38
HETATM   38  O   UNK N   1      29.701  18.508  10.509  0.00  0.00    -0.398 OA
HETATM   39  H   UNK N   1      28.793  18.240  10.722  0.00  0.00     0.209 HD
ENDBRANCH  37  38
ENDBRANCH   1  37
BRANCH   4  40
HETATM   40  O   UNK N   1      32.719  17.703   8.602  0.00  0.00    -0.253 OA
BRANCH  40  41
HETATM   41  S   UNK N   1      34.275  17.915   7.871  0.00  0.00     0.240 S 
HETATM   42  O   UNK N   1      35.027  16.597   8.102  0.00  0.00    -0.579 OA
HETATM   43  O   UNK N   1      34.204  17.996   6.339  0.00  0.00    -0.579 OA
BRANCH  41  44
HETATM   44  O   UNK N   1      35.268  19.157   8.515  0.00  0.00    -0.274 OA
HETATM   45  H   UNK N   1      34.872  19.975   8.852  0.00  0.00     0.234 HD
ENDBRANCH  41  44
ENDBRANCH  40  41
ENDBRANCH   4  40
TORSDOF 18
ENDMDL
MODEL 5
REMARK VINA RESULT:      -6.5      3.429      9.757
REMARK  18 active torsions:
REMARK  status: ('A' for Active; 'I' for Inactive)
REMARK    1  A    between atoms: C_3  and  C_2 
REMARK    2  A    between atoms: N_17  and  C_2 
REMARK    3  A    between atoms: S_36  and  C_3 
REMARK    4  A    between atoms: C_9  and  C_5 
REMARK    5  A    between atoms: O_22  and  C_5 
REMARK    6  A    between atoms: C_11  and  C_6 
REMARK    7  A    between atoms: O_23  and  C_6 
REMARK    8  A    between atoms: O_24  and  C_7 
REMARK    9  A    between atoms: C_8  and  C_15 
REMARK   10  A    between atoms: C_10  and  O_33 
REMARK   11  A    between atoms: C_12  and  N_19 
REMARK   12  A    between atoms: C_13  and  O_25 
REMARK   13  A    between atoms: C_14  and  O_35 
REMARK   14  A    between atoms: O_26  and  C_15 
REMARK   15  A    between atoms: C_16  and  O_33 
REMARK   16  A    between atoms: S_36  and  O_27 
REMARK   17  A    between atoms: S_37  and  O_30 
REMARK   18  A    between atoms: S_37  and  O_35 
ROOT
HETATM    1  C   UNK N   1      30.215  15.207   4.887  0.00  0.00     0.181 C 
HETATM    2  C   UNK N   1      28.807  17.458   6.051  0.00  0.00     0.169 C 
HETATM    3  C   UNK N   1      30.226  17.636   5.481  0.00  0.00     0.178 C 
HETATM    4  C   UNK N   1      30.975  16.304   5.650  0.00  0.00     0.206 C 
HETATM    5  C   UNK N   1      28.093  16.227   5.398  0.00  0.00     0.286 C 
HETATM    6  O   UNK N   1      28.924  15.082   5.436  0.00  0.00    -0.349 OA
ENDROOT
BRANCH   5   7
HETATM    7  O   UNK N   1      26.925  15.943   6.165  0.00  0.00    -0.352 OA
BRANCH   7   8
HETATM    8  C   UNK N   1      25.766  15.661   5.378  0.00  0.00     0.151 C 
HETATM    9  C   UNK N   1      25.445  16.866   4.499  0.00  0.00     0.067 C 
HETATM   10  C   UNK N   1      23.910  16.837   4.320  0.00  0.00     0.154 C 
HETATM   11  N   UNK N   1      23.438  15.714   5.114  0.00  0.00    -0.401 N 
HETATM   12  C   UNK N   1      24.439  15.570   6.150  0.00  0.00     0.130 C 
HETATM   13  H   UNK N   1      22.596  15.156   4.975  0.00  0.00     0.154 HD
BRANCH  10  14
HETATM   14  C   UNK N   1      23.085  18.039   4.777  0.00  0.00     0.134 C 
HETATM   15  N   UNK N   1      21.959  18.420   4.257  0.00  0.00    -0.372 N 
ATOM     16  HN  UNK N   1      21.570  19.297   4.603  1.00  0.00     0.161 HD
BRANCH  15  17
HETATM   17  C   UNK N   1      21.203  17.733   3.245  0.00  0.00     0.138 C 
BRANCH  17  18
HETATM   18  C   UNK N   1      20.866  18.687   2.098  0.00  0.00     0.175 C 
BRANCH  18  19
HETATM   19  S   UNK N   1      21.128  20.447   2.523  0.00  0.00     0.095 S 
HETATM   20  O   UNK N   1      20.679  21.429   1.429  0.00  0.00    -0.601 OA
HETATM   21  O   UNK N   1      20.302  20.911   3.731  0.00  0.00    -0.601 OA
BRANCH  19  22
HETATM   22  O   UNK N   1      22.736  20.933   2.874  0.00  0.00    -0.296 OA
HETATM   23  H   UNK N   1      23.340  21.617   3.204  0.00  0.00     0.232 HD
ENDBRANCH  19  22
ENDBRANCH  18  19
ENDBRANCH  17  18
ENDBRANCH  15  17
BRANCH  14  24
HETATM   24  O   UNK N   1      23.578  18.765   5.798  0.00  0.00    -0.348 OA
HETATM   25  H   UNK N   1      24.500  18.908   5.874  0.00  0.00     0.219 HD
ENDBRANCH  14  24
ENDBRANCH  10  14
BRANCH  12  26
HETATM   26  C   UNK N   1      24.129  14.289   6.905  0.00  0.00     0.191 C 
BRANCH  26  27
HETATM   27  O   UNK N   1      25.303  13.723   7.403  0.00  0.00    -0.399 OA
HETATM   28  H   UNK N   1      26.050  14.110   7.886  0.00  0.00     0.209 HD
ENDBRANCH  26  27
ENDBRANCH  12  26
ENDBRANCH   7   8
ENDBRANCH   5   7
BRANCH   2  29
HETATM   29  N   UNK N   1      28.082  18.704   5.848  0.00  0.00    -0.363 N 
HETATM   30  C   UNK N   1      27.567  19.427   6.783  0.00  0.00     0.107 C 
HETATM   31  C   UNK N   1      26.857  20.685   6.424  0.00  0.00     0.097 C 
ATOM     32  HN  UNK N   1      27.972  19.032   4.889  1.00  0.00     0.162 HD
BRANCH  30  33
HETATM   33  O   UNK N   1      27.691  19.084   8.081  0.00  0.00    -0.350 OA
HETATM   34  H   UNK N   1      28.119  18.328   8.431  0.00  0.00     0.219 HD
ENDBRANCH  30  33
ENDBRANCH   2  29
BRANCH   3  35
HETATM   35  O   UNK N   1      30.148  18.007   4.133  0.00  0.00    -0.391 OA
HETATM   36  H   UNK N   1      30.041  17.833   3.185  0.00  0.00     0.210 HD
ENDBRANCH   3  35
BRANCH   1  37
HETATM   37  C   UNK N   1      30.872  13.839   5.092  0.00  0.00     0.199 C 
BRANCH  37  38
HETATM   38  O   UNK N   1      31.601  13.771   6.278  0.00  0.00    -0.398 OA
HETATM   39  H   UNK N   1      32.029  14.565   6.632  0.00  0.00     0.209 HD
ENDBRANCH  37  38
ENDBRANCH   1  37
BRANCH   4  40
HETATM   40  O   UNK N   1      32.377  16.349   5.427  0.00  0.00    -0.253 OA
BRANCH  40  41
HETATM   41  S   UNK N   1      33.342  16.839   6.779  0.00  0.00     0.240 S 
HETATM   42  O   UNK N   1      34.023  15.560   7.290  0.00  0.00    -0.579 OA
HETATM   43  O   UNK N   1      34.536  17.713   6.369  0.00  0.00    -0.579 OA
BRANCH  41  44
HETATM   44  O   UNK N   1      32.509  17.510   8.120  0.00  0.00    -0.274 OA
HETATM   45  H   UNK N   1      31.773  18.125   7.981  0.00  0.00     0.234 HD
ENDBRANCH  41  44
ENDBRANCH  40  41
ENDBRANCH   4  40
TORSDOF 18
ENDMDL
MODEL 6
REMARK VINA RESULT:      -6.4      1.772      2.148
REMARK  18 active torsions:
REMARK  status: ('A' for Active; 'I' for Inactive)
REMARK    1  A    between atoms: C_3  and  C_2 
REMARK    2  A    between atoms: N_17  and  C_2 
REMARK    3  A    between atoms: S_36  and  C_3 
REMARK    4  A    between atoms: C_9  and  C_5 
REMARK    5  A    between atoms: O_22  and  C_5 
REMARK    6  A    between atoms: C_11  and  C_6 
REMARK    7  A    between atoms: O_23  and  C_6 
REMARK    8  A    between atoms: O_24  and  C_7 
REMARK    9  A    between atoms: C_8  and  C_15 
REMARK   10  A    between atoms: C_10  and  O_33 
REMARK   11  A    between atoms: C_12  and  N_19 
REMARK   12  A    between atoms: C_13  and  O_25 
REMARK   13  A    between atoms: C_14  and  O_35 
REMARK   14  A    between atoms: O_26  and  C_15 
REMARK   15  A    between atoms: C_16  and  O_33 
REMARK   16  A    between atoms: S_36  and  O_27 
REMARK   17  A    between atoms: S_37  and  O_30 
REMARK   18  A    between atoms: S_37  and  O_35 
ROOT
HETATM    1  C   UNK N   1      26.639  19.018   4.935  0.00  0.00     0.181 C 
HETATM    2  C   UNK N   1      26.539  16.145   5.307  0.00  0.00     0.169 C 
HETATM    3  C   UNK N   1      25.725  16.814   4.185  0.00  0.00     0.178 C 
HETATM    4  C   UNK N   1      25.349  18.230   4.652  0.00  0.00     0.206 C 
HETATM    5  C   UNK N   1      27.759  17.034   5.720  0.00  0.00     0.286 C 
HETATM    6  O   UNK N   1      27.354  18.369   5.960  0.00  0.00    -0.349 OA
ENDROOT
BRANCH   5   7
HETATM    7  O   UNK N   1      28.287  16.513   6.939  0.00  0.00    -0.352 OA
BRANCH   7   8
HETATM    8  C   UNK N   1      29.507  17.130   7.354  0.00  0.00     0.151 C 
HETATM    9  C   UNK N   1      30.662  16.154   7.158  0.00  0.00     0.067 C 
HETATM   10  C   UNK N   1      31.685  16.512   8.261  0.00  0.00     0.154 C 
HETATM   11  N   UNK N   1      31.075  17.579   9.037  0.00  0.00    -0.401 N 
HETATM   12  C   UNK N   1      29.653  17.369   8.867  0.00  0.00     0.130 C 
HETATM   13  H   UNK N   1      31.541  18.306   9.578  0.00  0.00     0.154 HD
BRANCH  10  14
HETATM   14  C   UNK N   1      32.090  15.444   9.276  0.00  0.00     0.134 C 
HETATM   15  N   UNK N   1      33.106  14.647   9.163  0.00  0.00    -0.372 N 
ATOM     16  HN  UNK N   1      33.197  13.920   9.873  1.00  0.00     0.161 HD
BRANCH  15  17
HETATM   17  C   UNK N   1      34.119  14.683   8.142  0.00  0.00     0.138 C 
BRANCH  17  18
HETATM   18  C   UNK N   1      35.502  14.854   8.774  0.00  0.00     0.175 C 
BRANCH  18  19
HETATM   19  S   UNK N   1      35.473  15.838  10.316  0.00  0.00     0.095 S 
HETATM   20  O   UNK N   1      36.866  16.188  10.862  0.00  0.00    -0.601 OA
HETATM   21  O   UNK N   1      34.838  17.225  10.142  0.00  0.00    -0.601 OA
BRANCH  19  22
HETATM   22  O   UNK N   1      34.667  15.150  11.666  0.00  0.00    -0.296 OA
HETATM   23  H   UNK N   1      34.084  14.458  12.017  0.00  0.00     0.232 HD
ENDBRANCH  19  22
ENDBRANCH  18  19
ENDBRANCH  17  18
ENDBRANCH  15  17
BRANCH  14  24
HETATM   24  O   UNK N   1      31.316  15.319  10.370  0.00  0.00    -0.348 OA
HETATM   25  H   UNK N   1      31.692  15.057  11.187  0.00  0.00     0.219 HD
ENDBRANCH  14  24
ENDBRANCH  10  14
BRANCH  12  26
HETATM   26  C   UNK N   1      28.943  18.563   9.481  0.00  0.00     0.191 C 
BRANCH  26  27
HETATM   27  O   UNK N   1      27.648  18.673   8.972  0.00  0.00    -0.399 OA
HETATM   28  H   UNK N   1      27.318  18.736   8.062  0.00  0.00     0.209 HD
ENDBRANCH  26  27
ENDBRANCH  12  26
ENDBRANCH   7   8
ENDBRANCH   5   7
BRANCH   2  29
HETATM   29  N   UNK N   1      26.935  14.822   4.847  0.00  0.00    -0.363 N 
HETATM   30  C   UNK N   1      26.402  13.711   5.225  0.00  0.00     0.107 C 
HETATM   31  C   UNK N   1      26.909  12.430   4.660  0.00  0.00     0.097 C 
ATOM     32  HN  UNK N   1      27.696  14.769   4.170  1.00  0.00     0.162 HD
BRANCH  30  33
HETATM   33  O   UNK N   1      25.371  13.690   6.094  0.00  0.00    -0.350 OA
HETATM   34  H   UNK N   1      25.415  13.672   7.029  0.00  0.00     0.219 HD
ENDBRANCH  30  33
ENDBRANCH   2  29
BRANCH   3  35
HETATM   35  O   UNK N   1      26.487  16.853   3.011  0.00  0.00    -0.391 OA
HETATM   36  H   UNK N   1      27.052  16.466   2.324  0.00  0.00     0.210 HD
ENDBRANCH   3  35
BRANCH   1  37
HETATM   37  C   UNK N   1      26.323  20.411   5.486  0.00  0.00     0.199 C 
BRANCH  37  38
HETATM   38  O   UNK N   1      26.290  20.438   6.879  0.00  0.00    -0.398 OA
HETATM   39  H   UNK N   1      25.567  20.003   7.357  0.00  0.00     0.209 HD
ENDBRANCH  37  38
ENDBRANCH   1  37
BRANCH   4  40
HETATM   40  O   UNK N   1      24.378  18.904   3.866  0.00  0.00    -0.253 OA
BRANCH  40  41
HETATM   41  S   UNK N   1      22.725  18.608   4.291  0.00  0.00     0.240 S 
HETATM   42  O   UNK N   1      22.318  17.342   3.524  0.00  0.00    -0.579 OA
HETATM   43  O   UNK N   1      22.556  18.182   5.756  0.00  0.00    -0.579 OA
BRANCH  41  44
HETATM   44  O   UNK N   1      21.589  19.819   3.858  0.00  0.00    -0.274 OA
HETATM   45  H   UNK N   1      21.776  20.753   4.038  0.00  0.00     0.234 HD
ENDBRANCH  41  44
ENDBRANCH  40  41
ENDBRANCH   4  40
TORSDOF 18
ENDMDL
MODEL 7
REMARK VINA RESULT:      -6.4      6.313     11.811
REMARK  18 active torsions:
REMARK  status: ('A' for Active; 'I' for Inactive)
REMARK    1  A    between atoms: C_3  and  C_2 
REMARK    2  A    between atoms: N_17  and  C_2 
REMARK    3  A    between atoms: S_36  and  C_3 
REMARK    4  A    between atoms: C_9  and  C_5 
REMARK    5  A    between atoms: O_22  and  C_5 
REMARK    6  A    between atoms: C_11  and  C_6 
REMARK    7  A    between atoms: O_23  and  C_6 
REMARK    8  A    between atoms: O_24  and  C_7 
REMARK    9  A    between atoms: C_8  and  C_15 
REMARK   10  A    between atoms: C_10  and  O_33 
REMARK   11  A    between atoms: C_12  and  N_19 
REMARK   12  A    between atoms: C_13  and  O_25 
REMARK   13  A    between atoms: C_14  and  O_35 
REMARK   14  A    between atoms: O_26  and  C_15 
REMARK   15  A    between atoms: C_16  and  O_33 
REMARK   16  A    between atoms: S_36  and  O_27 
REMARK   17  A    between atoms: S_37  and  O_30 
REMARK   18  A    between atoms: S_37  and  O_35 
ROOT
HETATM    1  C   UNK N   1      35.166  10.573  12.968  0.00  0.00     0.181 C 
HETATM    2  C   UNK N   1      37.049  11.703  11.075  0.00  0.00     0.169 C 
HETATM    3  C   UNK N   1      37.491  11.375  12.512  0.00  0.00     0.178 C 
HETATM    4  C   UNK N   1      36.270  11.538  13.432  0.00  0.00     0.206 C 
HETATM    5  C   UNK N   1      35.809  10.843  10.660  0.00  0.00     0.286 C 
HETATM    6  O   UNK N   1      34.798  10.904  11.649  0.00  0.00    -0.349 OA
ENDROOT
BRANCH   5   7
HETATM    7  O   UNK N   1      35.276  11.394   9.458  0.00  0.00    -0.352 OA
BRANCH   7   8
HETATM    8  C   UNK N   1      34.158  12.260   9.661  0.00  0.00     0.151 C 
HETATM    9  C   UNK N   1      33.316  12.308   8.390  0.00  0.00     0.067 C 
HETATM   10  C   UNK N   1      32.683  13.719   8.378  0.00  0.00     0.154 C 
HETATM   11  N   UNK N   1      33.212  14.401   9.547  0.00  0.00    -0.401 N 
HETATM   12  C   UNK N   1      34.487  13.758   9.784  0.00  0.00     0.130 C 
HETATM   13  H   UNK N   1      32.785  15.159  10.078  0.00  0.00     0.154 HD
BRANCH  10  14
HETATM   14  C   UNK N   1      32.960  14.649   7.198  0.00  0.00     0.134 C 
HETATM   15  N   UNK N   1      32.478  15.843   7.053  0.00  0.00    -0.372 N 
ATOM     16  HN  UNK N   1      32.672  16.311   6.167  1.00  0.00     0.161 HD
BRANCH  15  17
HETATM   17  C   UNK N   1      31.697  16.579   8.012  0.00  0.00     0.138 C 
BRANCH  17  18
HETATM   18  C   UNK N   1      32.354  17.928   8.307  0.00  0.00     0.175 C 
BRANCH  18  19
HETATM   19  S   UNK N   1      34.145  17.954   7.933  0.00  0.00     0.095 S 
HETATM   20  O   UNK N   1      34.929  16.784   8.546  0.00  0.00    -0.601 OA
HETATM   21  O   UNK N   1      34.457  17.803   6.437  0.00  0.00    -0.601 OA
BRANCH  19  22
HETATM   22  O   UNK N   1      35.025  19.341   8.430  0.00  0.00    -0.296 OA
HETATM   23  H   UNK N   1      35.139  20.304   8.400  0.00  0.00     0.232 HD
ENDBRANCH  19  22
ENDBRANCH  18  19
ENDBRANCH  17  18
ENDBRANCH  15  17
BRANCH  14  24
HETATM   24  O   UNK N   1      33.765  14.178   6.227  0.00  0.00    -0.348 OA
HETATM   25  H   UNK N   1      33.495  13.453   5.699  0.00  0.00     0.219 HD
ENDBRANCH  14  24
ENDBRANCH  10  14
BRANCH  12  26
HETATM   26  C   UNK N   1      35.015  14.274  11.111  0.00  0.00     0.191 C 
BRANCH  26  27
HETATM   27  O   UNK N   1      34.175  13.883  12.154  0.00  0.00    -0.399 OA
HETATM   28  H   UNK N   1      34.267  13.195  12.831  0.00  0.00     0.209 HD
ENDBRANCH  26  27
ENDBRANCH  12  26
ENDBRANCH   7   8
ENDBRANCH   5   7
BRANCH   2  29
HETATM   29  N   UNK N   1      38.193  11.504  10.196  0.00  0.00    -0.363 N 
HETATM   30  C   UNK N   1      38.996  12.430   9.798  0.00  0.00     0.107 C 
HETATM   31  C   UNK N   1      40.131  12.074   8.903  0.00  0.00     0.097 C 
ATOM     32  HN  UNK N   1      38.374  10.555   9.870  1.00  0.00     0.162 HD
BRANCH  30  33
HETATM   33  O   UNK N   1      38.849  13.707  10.206  0.00  0.00    -0.350 OA
HETATM   34  H   UNK N   1      39.244  14.116  10.950  0.00  0.00     0.219 HD
ENDBRANCH  30  33
ENDBRANCH   2  29
BRANCH   3  35
HETATM   35  O   UNK N   1      37.994  10.070  12.563  0.00  0.00    -0.391 OA
HETATM   36  H   UNK N   1      38.168   9.217  12.991  0.00  0.00     0.210 HD
ENDBRANCH   3  35
BRANCH   1  37
HETATM   37  C   UNK N   1      33.893  10.753  13.798  0.00  0.00     0.199 C 
BRANCH  37  38
HETATM   38  O   UNK N   1      34.017  10.227  15.083  0.00  0.00    -0.398 OA
HETATM   39  H   UNK N   1      34.716   9.585  15.280  0.00  0.00     0.209 HD
ENDBRANCH  37  38
ENDBRANCH   1  37
BRANCH   4  40
HETATM   40  O   UNK N   1      36.540  11.536  14.826  0.00  0.00    -0.253 OA
BRANCH  40  41
HETATM   41  S   UNK N   1      36.256  13.031  15.653  0.00  0.00     0.240 S 
HETATM   42  O   UNK N   1      35.038  13.664  14.964  0.00  0.00    -0.579 OA
HETATM   43  O   UNK N   1      35.759  12.829  17.091  0.00  0.00    -0.579 OA
BRANCH  41  44
HETATM   44  O   UNK N   1      37.509  14.201  15.585  0.00  0.00    -0.274 OA
HETATM   45  H   UNK N   1      37.698  14.669  14.757  0.00  0.00     0.234 HD
ENDBRANCH  41  44
ENDBRANCH  40  41
ENDBRANCH   4  40
TORSDOF 18
ENDMDL
MODEL 8
REMARK VINA RESULT:      -6.2      2.695      4.125
REMARK  18 active torsions:
REMARK  status: ('A' for Active; 'I' for Inactive)
REMARK    1  A    between atoms: C_3  and  C_2 
REMARK    2  A    between atoms: N_17  and  C_2 
REMARK    3  A    between atoms: S_36  and  C_3 
REMARK    4  A    between atoms: C_9  and  C_5 
REMARK    5  A    between atoms: O_22  and  C_5 
REMARK    6  A    between atoms: C_11  and  C_6 
REMARK    7  A    between atoms: O_23  and  C_6 
REMARK    8  A    between atoms: O_24  and  C_7 
REMARK    9  A    between atoms: C_8  and  C_15 
REMARK   10  A    between atoms: C_10  and  O_33 
REMARK   11  A    between atoms: C_12  and  N_19 
REMARK   12  A    between atoms: C_13  and  O_25 
REMARK   13  A    between atoms: C_14  and  O_35 
REMARK   14  A    between atoms: O_26  and  C_15 
REMARK   15  A    between atoms: C_16  and  O_33 
REMARK   16  A    between atoms: S_36  and  O_27 
REMARK   17  A    between atoms: S_37  and  O_30 
REMARK   18  A    between atoms: S_37  and  O_35 
ROOT
HETATM    1  C   UNK N   1      29.289  18.234   7.697  0.00  0.00     0.181 C 
HETATM    2  C   UNK N   1      30.009  16.043   5.941  0.00  0.00     0.169 C 
HETATM    3  C   UNK N   1      29.059  17.152   5.454  0.00  0.00     0.178 C 
HETATM    4  C   UNK N   1      28.285  17.681   6.673  0.00  0.00     0.206 C 
HETATM    5  C   UNK N   1      30.916  16.555   7.110  0.00  0.00     0.286 C 
HETATM    6  O   UNK N   1      30.141  17.190   8.109  0.00  0.00    -0.349 OA
ENDROOT
BRANCH   5   7
HETATM    7  O   UNK N   1      31.547  15.422   7.702  0.00  0.00    -0.352 OA
BRANCH   7   8
HETATM    8  C   UNK N   1      32.972  15.515   7.760  0.00  0.00     0.151 C 
HETATM    9  C   UNK N   1      33.512  14.448   8.707  0.00  0.00     0.067 C 
HETATM   10  C   UNK N   1      34.801  15.056   9.307  0.00  0.00     0.154 C 
HETATM   11  N   UNK N   1      34.902  16.397   8.755  0.00  0.00    -0.401 N 
HETATM   12  C   UNK N   1      33.532  16.763   8.464  0.00  0.00     0.130 C 
HETATM   13  H   UNK N   1      35.744  16.953   8.606  0.00  0.00     0.154 HD
BRANCH  10  14
HETATM   14  C   UNK N   1      34.908  15.226  10.821  0.00  0.00     0.134 C 
HETATM   15  N   UNK N   1      35.034  14.262  11.679  0.00  0.00    -0.372 N 
ATOM     16  HN  UNK N   1      34.997  14.520  12.665  1.00  0.00     0.161 HD
BRANCH  15  17
HETATM   17  C   UNK N   1      35.220  12.866  11.384  0.00  0.00     0.138 C 
BRANCH  17  18
HETATM   18  C   UNK N   1      36.106  12.214  12.446  0.00  0.00     0.175 C 
BRANCH  18  19
HETATM   19  S   UNK N   1      36.198  13.177  13.999  0.00  0.00     0.095 S 
HETATM   20  O   UNK N   1      34.841  13.381  14.690  0.00  0.00    -0.601 OA
HETATM   21  O   UNK N   1      37.019  12.485  15.097  0.00  0.00    -0.601 OA
BRANCH  19  22
HETATM   22  O   UNK N   1      36.846  14.763  13.896  0.00  0.00    -0.296 OA
HETATM   23  H   UNK N   1      37.602  15.336  13.695  0.00  0.00     0.232 HD
ENDBRANCH  19  22
ENDBRANCH  18  19
ENDBRANCH  17  18
ENDBRANCH  15  17
BRANCH  14  24
HETATM   24  O   UNK N   1      34.858  16.484  11.299  0.00  0.00    -0.348 OA
HETATM   25  H   UNK N   1      34.301  16.693  12.022  0.00  0.00     0.219 HD
ENDBRANCH  14  24
ENDBRANCH  10  14
BRANCH  12  26
HETATM   26  C   UNK N   1      33.566  18.072   7.695  0.00  0.00     0.191 C 
BRANCH  26  27
HETATM   27  O   UNK N   1      34.420  17.968   6.596  0.00  0.00    -0.399 OA
HETATM   28  H   UNK N   1      34.990  18.622   6.161  0.00  0.00     0.209 HD
ENDBRANCH  26  27
ENDBRANCH  12  26
ENDBRANCH   7   8
ENDBRANCH   5   7
BRANCH   2  29
HETATM   29  N   UNK N   1      30.776  15.574   4.796  0.00  0.00    -0.363 N 
HETATM   30  C   UNK N   1      31.164  14.360   4.606  0.00  0.00     0.107 C 
HETATM   31  C   UNK N   1      31.939  14.026   3.378  0.00  0.00     0.097 C 
ATOM     32  HN  UNK N   1      31.027  16.262   4.086  1.00  0.00     0.162 HD
BRANCH  30  33
HETATM   33  O   UNK N   1      30.851  13.380   5.478  0.00  0.00    -0.350 OA
HETATM   34  H   UNK N   1      31.357  13.086   6.209  0.00  0.00     0.219 HD
ENDBRANCH  30  33
ENDBRANCH   2  29
BRANCH   3  35
HETATM   35  O   UNK N   1      29.800  18.171   4.843  0.00  0.00    -0.391 OA
HETATM   36  H   UNK N   1      30.226  18.608   4.089  0.00  0.00     0.210 HD
ENDBRANCH   3  35
BRANCH   1  37
HETATM   37  C   UNK N   1      28.578  18.698   8.971  0.00  0.00     0.199 C 
BRANCH  37  38
HETATM   38  O   UNK N   1      27.459  17.922   9.268  0.00  0.00    -0.398 OA
HETATM   39  H   UNK N   1      26.597  18.141   8.880  0.00  0.00     0.209 HD
ENDBRANCH  37  38
ENDBRANCH   1  37
BRANCH   4  40
HETATM   40  O   UNK N   1      27.176  18.520   6.386  0.00  0.00    -0.253 OA
BRANCH  40  41
HETATM   41  S   UNK N   1      26.297  18.143   4.942  0.00  0.00     0.240 S 
HETATM   42  O   UNK N   1      24.995  18.954   5.024  0.00  0.00    -0.579 OA
HETATM   43  O   UNK N   1      26.963  18.706   3.679  0.00  0.00    -0.579 OA
BRANCH  41  44
HETATM   44  O   UNK N   1      25.832  16.506   4.726  0.00  0.00    -0.274 OA
HETATM   45  H   UNK N   1      25.496  16.201   3.869  0.00  0.00     0.234 HD
ENDBRANCH  41  44
ENDBRANCH  40  41
ENDBRANCH   4  40
TORSDOF 18
ENDMDL
MODEL 9
REMARK VINA RESULT:      -6.2      8.922     11.741
REMARK  18 active torsions:
REMARK  status: ('A' for Active; 'I' for Inactive)
REMARK    1  A    between atoms: C_3  and  C_2 
REMARK    2  A    between atoms: N_17  and  C_2 
REMARK    3  A    between atoms: S_36  and  C_3 
REMARK    4  A    between atoms: C_9  and  C_5 
REMARK    5  A    between atoms: O_22  and  C_5 
REMARK    6  A    between atoms: C_11  and  C_6 
REMARK    7  A    between atoms: O_23  and  C_6 
REMARK    8  A    between atoms: O_24  and  C_7 
REMARK    9  A    between atoms: C_8  and  C_15 
REMARK   10  A    between atoms: C_10  and  O_33 
REMARK   11  A    between atoms: C_12  and  N_19 
REMARK   12  A    between atoms: C_13  and  O_25 
REMARK   13  A    between atoms: C_14  and  O_35 
REMARK   14  A    between atoms: O_26  and  C_15 
REMARK   15  A    between atoms: C_16  and  O_33 
REMARK   16  A    between atoms: S_36  and  O_27 
REMARK   17  A    between atoms: S_37  and  O_30 
REMARK   18  A    between atoms: S_37  and  O_35 
ROOT
HETATM    1  C   UNK N   1      21.976  15.730   6.702  0.00  0.00     0.181 C 
HETATM    2  C   UNK N   1      21.227  17.558   4.581  0.00  0.00     0.169 C 
HETATM    3  C   UNK N   1      21.202  18.017   6.051  0.00  0.00     0.178 C 
HETATM    4  C   UNK N   1      20.886  16.791   6.924  0.00  0.00     0.206 C 
HETATM    5  C   UNK N   1      22.209  16.356   4.386  0.00  0.00     0.286 C 
HETATM    6  O   UNK N   1      21.967  15.345   5.347  0.00  0.00    -0.349 OA
ENDROOT
BRANCH   5   7
HETATM    7  O   UNK N   1      21.967  15.798   3.096  0.00  0.00    -0.352 OA
BRANCH   7   8
HETATM    8  C   UNK N   1      20.588  15.541   2.824  0.00  0.00     0.151 C 
HETATM    9  C   UNK N   1      20.232  14.133   3.289  0.00  0.00     0.067 C 
HETATM   10  C   UNK N   1      19.112  13.663   2.334  0.00  0.00     0.154 C 
HETATM   11  N   UNK N   1      18.928  14.741   1.376  0.00  0.00    -0.401 N 
HETATM   12  C   UNK N   1      20.216  15.401   1.338  0.00  0.00     0.130 C 
HETATM   13  H   UNK N   1      18.087  14.978   0.850  0.00  0.00     0.154 HD
BRANCH  10  14
HETATM   14  C   UNK N   1      19.325  12.402   1.498  0.00  0.00     0.134 C 
HETATM   15  N   UNK N   1      18.925  11.211   1.818  0.00  0.00    -0.372 N 
ATOM     16  HN  UNK N   1      19.223  10.449   1.209  1.00  0.00     0.161 HD
BRANCH  15  17
HETATM   17  C   UNK N   1      18.102  10.853   2.943  0.00  0.00     0.138 C 
BRANCH  17  18
HETATM   18  C   UNK N   1      18.776   9.752   3.763  0.00  0.00     0.175 C 
BRANCH  18  19
HETATM   19  S   UNK N   1      20.239  10.339   4.693  0.00  0.00     0.095 S 
HETATM   20  O   UNK N   1      20.925   9.250   5.532  0.00  0.00    -0.601 OA
HETATM   21  O   UNK N   1      21.384  10.817   3.788  0.00  0.00    -0.601 OA
BRANCH  19  22
HETATM   22  O   UNK N   1      19.992  11.620   5.807  0.00  0.00    -0.296 OA
HETATM   23  H   UNK N   1      20.268  12.486   6.147  0.00  0.00     0.232 HD
ENDBRANCH  19  22
ENDBRANCH  18  19
ENDBRANCH  17  18
ENDBRANCH  15  17
BRANCH  14  24
HETATM   24  O   UNK N   1      19.995  12.545   0.339  0.00  0.00    -0.348 OA
HETATM   25  H   UNK N   1      20.038  13.379  -0.083  0.00  0.00     0.219 HD
ENDBRANCH  14  24
ENDBRANCH  10  14
BRANCH  12  26
HETATM   26  C   UNK N   1      20.053  16.665   0.512  0.00  0.00     0.191 C 
BRANCH  26  27
HETATM   27  O   UNK N   1      18.703  16.906   0.252  0.00  0.00    -0.399 OA
HETATM   28  H   UNK N   1      18.122  16.604  -0.463  0.00  0.00     0.209 HD
ENDBRANCH  26  27
ENDBRANCH  12  26
ENDBRANCH   7   8
ENDBRANCH   5   7
BRANCH   2  29
HETATM   29  N   UNK N   1      21.572  18.708   3.758  0.00  0.00    -0.363 N 
HETATM   30  C   UNK N   1      20.748  19.369   3.018  0.00  0.00     0.107 C 
HETATM   31  C   UNK N   1      21.246  20.532   2.233  0.00  0.00     0.097 C 
ATOM     32  HN  UNK N   1      22.544  19.017   3.767  1.00  0.00     0.162 HD
BRANCH  30  33
HETATM   33  O   UNK N   1      19.439  19.049   2.971  0.00  0.00    -0.350 OA
HETATM   34  H   UNK N   1      19.018  18.316   3.373  0.00  0.00     0.219 HD
ENDBRANCH  30  33
ENDBRANCH   2  29
BRANCH   3  35
HETATM   35  O   UNK N   1      22.440  18.576   6.389  0.00  0.00    -0.391 OA
HETATM   36  H   UNK N   1      23.356  18.842   6.211  0.00  0.00     0.210 HD
ENDBRANCH   3  35
BRANCH   1  37
HETATM   37  C   UNK N   1      21.666  14.451   7.485  0.00  0.00     0.199 C 
BRANCH  37  38
HETATM   38  O   UNK N   1      20.324  14.086   7.397  0.00  0.00    -0.398 OA
HETATM   39  H   UNK N   1      19.738  14.198   8.161  0.00  0.00     0.209 HD
ENDBRANCH  37  38
ENDBRANCH   1  37
BRANCH   4  40
HETATM   40  O   UNK N   1      20.561  17.063   8.279  0.00  0.00    -0.253 OA
BRANCH  40  41
HETATM   41  S   UNK N   1      18.911  16.793   8.729  0.00  0.00     0.240 S 
HETATM   42  O   UNK N   1      18.180  16.422   7.431  0.00  0.00    -0.579 OA
HETATM   43  O   UNK N   1      18.729  15.532   9.587  0.00  0.00    -0.579 OA
BRANCH  41  44
HETATM   44  O   UNK N   1      18.064  18.127   9.396  0.00  0.00    -0.274 OA
HETATM   45  H   UNK N   1      17.914  18.185  10.352  0.00  0.00     0.234 HD
ENDBRANCH  41  44
ENDBRANCH  40  41
ENDBRANCH   4  40
TORSDOF 18
ENDMDL
