REMARK  7 active torsions:
REMARK  status: ('A' for Active; 'I' for Inactive)
REMARK    1  A    between atoms: C_21  and  C_7 
REMARK    2  A    between atoms: C_22  and  C_8 
REMARK    3  A    between atoms: C_12  and  C_10 
REMARK    4  A    between atoms: C_24  and  C_10 
REMARK    5  A    between atoms: C_34  and  C_12 
REMARK    6  A    between atoms: O_40  and  C_33 
REMARK    7  A    between atoms: O_42  and  C_34 
ROOT
HETATM    1  C   UNK N   1      -1.314   1.778  -0.520  0.00  0.00     0.052 C 
HETATM    2  C   UNK N   1       2.192  -5.255   0.357  0.00  0.00     0.052 C 
HETATM    3  C   UNK N   1       2.398   2.180   1.852  0.00  0.00     0.046 C 
HETATM    4  C   UNK N   1       9.415  -1.979  -0.365  0.00  0.00     0.046 C 
HETATM    5  C   UNK N   1       5.324   1.134   1.705  0.00  0.00     0.051 C 
HETATM    6  C   UNK N   1       4.918  -0.287   1.002  0.00  0.00     0.114 A 
HETATM    7  C   UNK N   1       1.888   2.621  -1.064  0.00  0.00     0.031 C 
HETATM    8  C   UNK N   1       1.592  -2.234   0.139  0.00  0.00     0.064 C 
HETATM    9  C   UNK N   1       6.376  -2.432   0.384  0.00  0.00     0.064 A 
HETATM   10  C   UNK N   1       6.636   2.370  -0.864  0.00  0.00     0.053 C 
HETATM   11  C   UNK N   1      -0.094   0.933  -0.501  0.00  0.00    -0.021 A 
HETATM   12  C   UNK N   1       3.125  -4.109   0.524  0.00  0.00    -0.021 A 
HETATM   13  C   UNK N   1       3.403   2.516   0.803  0.00  0.00    -0.053 C 
HETATM   14  C   UNK N   1       8.457  -0.854  -0.185  0.00  0.00    -0.045 C 
HETATM   15  C   UNK N   1      -0.044  -0.428  -0.158  0.00  0.00     0.000 A 
HETATM   16  C   UNK N   1       4.543  -4.153   0.623  0.00  0.00     0.000 A 
HETATM   17  C   UNK N   1       4.792   2.224   0.852  0.00  0.00    -0.031 C 
HETATM   18  C   UNK N   1       8.673   0.536  -0.278  0.00  0.00     0.069 C 
HETATM   19  C   UNK N   1       1.235   1.337  -0.722  0.00  0.00     0.062 A 
HETATM   20  C   UNK N   1       3.115   2.852  -0.513  0.00  0.00     0.135 C 
HETATM   21  C   UNK N   1       2.760  -2.779   0.385  0.00  0.00     0.066 A 
HETATM   22  C   UNK N   1       7.164  -1.019   0.019  0.00  0.00     0.062 A 
HETATM   23  C   UNK N   1       1.258  -0.784  -0.177  0.00  0.00     0.070 A 
HETATM   24  C   UNK N   1       4.974  -2.856   0.530  0.00  0.00     0.070 A 
HETATM   25  C   UNK N   1       5.335   2.596  -0.370  0.00  0.00     0.035 C 
HETATM   26  C   UNK N   1       7.399   1.137  -0.506  0.00  0.00     0.045 C 
HETATM   27  C   UNK N   1       4.917  -0.976  -1.257  0.00  0.00     0.139 A 
HETATM   28 Fe   UNK N   1       4.012   0.411  -0.457  0.00  0.00     0.000 Fe
HETATM   29  N   UNK N   1       2.031   0.308  -0.484  0.00  0.00    -0.248 N 
HETATM   30  N   UNK N   1       3.816  -2.066   0.344  0.00  0.00    -0.248 N 
HETATM   31  N   UNK N   1       4.229   2.458  -1.115  0.00  0.00    -0.197 NA
HETATM   32  N   UNK N   1       6.576   0.216  -0.333  0.00  0.00    -0.253 N 
HETATM   33  O   UNK N   1       3.833  -1.126  -1.825  0.00  0.00    -0.650 OA
ENDROOT
BRANCH  18  34
HETATM   34  C   UNK N   1       9.417   0.945   0.954  0.00  0.00     0.025 C 
BRANCH  34  35
HETATM   35  C   UNK N   1      10.209   2.183   0.929  0.00  0.00     0.111 C 
BRANCH  35  36
HETATM   36  C   UNK N   1      11.173   1.995  -0.159  0.00  0.00     0.139 C 
HETATM   37  O   UNK N   1      11.954   1.054  -0.147  0.00  0.00    -0.650 OA
BRANCH  36  38
HETATM   38  O   UNK N   1      11.079   2.789  -1.231  0.00  0.00    -0.776 OA
HETATM   39  H   UNK N   1      11.528   3.123  -1.983  0.00  0.00     0.167 HD
ENDBRANCH  36  38
ENDBRANCH  35  36
ENDBRANCH  34  35
ENDBRANCH  18  34
BRANCH  27  40
HETATM   40  O   UNK N   1       5.972  -1.210  -2.093  0.00  0.00    -0.776 OA
HETATM   41  H   UNK N   1       6.196  -1.916  -2.666  0.00  0.00     0.167 HD
ENDBRANCH  27  40
BRANCH  16  42
HETATM   42  C   UNK N   1       5.454  -5.303   0.542  0.00  0.00     0.004 C 
HETATM   43  C   UNK N   1       5.089  -6.427  -0.067  0.00  0.00     0.012 C 
ENDBRANCH  16  42
BRANCH  15  44
HETATM   44  C   UNK N   1      -1.037  -1.459   0.245  0.00  0.00     0.004 C 
HETATM   45  C   UNK N   1      -2.341  -1.319   0.366  0.00  0.00     0.012 C 
ENDBRANCH  15  44
TORSDOF 7
