MODEL 1
REMARK VINA RESULT:      -5.4      0.000      0.000
REMARK  11 active torsions:
REMARK  status: ('A' for Active; 'I' for Inactive)
REMARK    1  A    between atoms: C_6  and  C_7 
REMARK    2  A    between atoms: C_7  and  O_8 
REMARK    3  A    between atoms: O_8  and  P_9 
REMARK    4  A    between atoms: P_9  and  O_10 
REMARK    5  A    between atoms: P_9  and  O_11 
REMARK    6  A    between atoms: C_13  and  C_14 
REMARK    7  A    between atoms: C_14  and  N_15 
REMARK    8  A    between atoms: N_15  and  C_16 
REMARK    9  A    between atoms: C_16  and  C_17 
REMARK   10  A    between atoms: C_17  and  O_18 
REMARK   11  A    between atoms: C_20  and  O_21 
ROOT
HETATM    1  C   UNK N   1      26.016  18.155   4.486  0.00  0.00     0.071 C 
HETATM    2  C   UNK N   1      24.646  17.712   4.867  0.00  0.00     0.039 A 
HETATM    3  N   UNK N   1      24.493  16.612   5.653  0.00  0.00    -0.367 N 
ATOM      4  HN  UNK N   1      25.320  16.100   5.960  1.00  0.00     0.165 HD
HETATM    5  C   UNK N   1      23.265  16.177   6.041  0.00  0.00     0.098 A 
HETATM    6  C   UNK N   1      22.113  16.855   5.632  0.00  0.00    -0.008 A 
HETATM    7  C   UNK N   1      22.238  17.988   4.808  0.00  0.00     0.004 A 
HETATM    8  C   UNK N   1      23.518  18.419   4.425  0.00  0.00     0.096 A 
ENDROOT
BRANCH   6   9
HETATM    9  C   UNK N   1      20.774  16.405   6.113  0.00  0.00     0.221 C 
BRANCH   9  10
HETATM   10  O   UNK N   1      20.531  15.068   5.794  0.00  0.00    -0.292 OA
BRANCH  10  11
HETATM   11  P   UNK N   1      19.040  15.114   4.895  0.00  0.00     0.391 P 
HETATM   12  O   UNK N   1      18.040  16.028   5.655  0.00  0.00    -0.632 OA
BRANCH  11  13
HETATM   13  O   UNK N   1      19.259  15.818   3.324  0.00  0.00    -0.307 OA
HETATM   14  H   UNK N   1      19.042  16.620   2.823  0.00  0.00     0.222 HD
ENDBRANCH  11  13
BRANCH  11  15
HETATM   15  O   UNK N   1      18.322  13.539   4.775  0.00  0.00    -0.307 OA
HETATM   16  H   UNK N   1      17.521  13.019   4.602  0.00  0.00     0.222 HD
ENDBRANCH  11  15
ENDBRANCH  10  11
ENDBRANCH   9  10
ENDBRANCH   6   9
BRANCH   7  17
HETATM   17  C   UNK N   1      21.013  18.712   4.328  0.00  0.00     0.156 C 
BRANCH  17  18
HETATM   18  N   UNK N   1      20.740  18.409   2.934  0.00  0.00    -0.408 N 
HETATM   19  H   UNK N   1      20.951  17.539   2.445  0.00  0.00     0.154 HD
BRANCH  18  20
HETATM   20  C   UNK N   1      20.105  19.593   2.373  0.00  0.00     0.224 C 
BRANCH  20  21
HETATM   21  C   UNK N   1      20.985  20.264   1.359  0.00  0.00     0.157 C 
HETATM   22  O   UNK N   1      21.985  20.874   1.703  0.00  0.00    -0.649 OA
BRANCH  21  23
HETATM   23  O   UNK N   1      20.663  20.194   0.054  0.00  0.00    -0.775 OA
HETATM   24  H   UNK N   1      20.134  20.843  -0.365  0.00  0.00     0.167 HD
ENDBRANCH  21  23
ENDBRANCH  20  21
ENDBRANCH  18  20
ENDBRANCH  17  18
ENDBRANCH   7  17
BRANCH   8  25
HETATM   25  O   UNK N   1      23.665  19.505   3.640  0.00  0.00    -0.358 OA
HETATM   26  H   UNK N   1      24.435  20.036   3.677  0.00  0.00     0.217 HD
ENDBRANCH   8  25
TORSDOF 11
ENDMDL
MODEL 2
REMARK VINA RESULT:      -5.3      9.452     11.803
REMARK  11 active torsions:
REMARK  status: ('A' for Active; 'I' for Inactive)
REMARK    1  A    between atoms: C_6  and  C_7 
REMARK    2  A    between atoms: C_7  and  O_8 
REMARK    3  A    between atoms: O_8  and  P_9 
REMARK    4  A    between atoms: P_9  and  O_10 
REMARK    5  A    between atoms: P_9  and  O_11 
REMARK    6  A    between atoms: C_13  and  C_14 
REMARK    7  A    between atoms: C_14  and  N_15 
REMARK    8  A    between atoms: N_15  and  C_16 
REMARK    9  A    between atoms: C_16  and  C_17 
REMARK   10  A    between atoms: C_17  and  O_18 
REMARK   11  A    between atoms: C_20  and  O_21 
ROOT
HETATM    1  C   UNK N   1      28.201  18.760   8.403  0.00  0.00     0.071 C 
HETATM    2  C   UNK N   1      29.208  17.878   7.749  0.00  0.00     0.039 A 
HETATM    3  N   UNK N   1      29.097  17.608   6.419  0.00  0.00    -0.367 N 
ATOM      4  HN  UNK N   1      28.318  18.005   5.894  1.00  0.00     0.165 HD
HETATM    5  C   UNK N   1      29.998  16.822   5.773  0.00  0.00     0.098 A 
HETATM    6  C   UNK N   1      31.073  16.260   6.468  0.00  0.00    -0.008 A 
HETATM    7  C   UNK N   1      31.207  16.510   7.846  0.00  0.00     0.004 A 
HETATM    8  C   UNK N   1      30.265  17.327   8.489  0.00  0.00     0.096 A 
ENDROOT
BRANCH   6   9
HETATM    9  C   UNK N   1      32.089  15.449   5.736  0.00  0.00     0.221 C 
BRANCH   9  10
HETATM   10  O   UNK N   1      32.918  16.246   4.947  0.00  0.00    -0.292 OA
BRANCH  10  11
HETATM   11  P   UNK N   1      32.494  15.809   3.315  0.00  0.00     0.391 P 
HETATM   12  O   UNK N   1      31.789  17.025   2.652  0.00  0.00    -0.632 OA
BRANCH  11  13
HETATM   13  O   UNK N   1      33.899  15.465   2.356  0.00  0.00    -0.307 OA
HETATM   14  H   UNK N   1      34.703  15.893   2.021  0.00  0.00     0.222 HD
ENDBRANCH  11  13
BRANCH  11  15
HETATM   15  O   UNK N   1      31.379  14.479   3.283  0.00  0.00    -0.307 OA
HETATM   16  H   UNK N   1      30.559  14.111   2.919  0.00  0.00     0.222 HD
ENDBRANCH  11  15
ENDBRANCH  10  11
ENDBRANCH   9  10
ENDBRANCH   6   9
BRANCH   7  17
HETATM   17  C   UNK N   1      32.334  15.889   8.620  0.00  0.00     0.156 C 
BRANCH  17  18
HETATM   18  N   UNK N   1      33.068  16.894   9.370  0.00  0.00    -0.408 N 
HETATM   19  H   UNK N   1      32.717  17.455  10.145  0.00  0.00     0.154 HD
BRANCH  18  20
HETATM   20  C   UNK N   1      34.404  16.940   8.793  0.00  0.00     0.224 C 
BRANCH  20  21
HETATM   21  C   UNK N   1      34.601  18.167   7.952  0.00  0.00     0.157 C 
HETATM   22  O   UNK N   1      35.043  19.196   8.438  0.00  0.00    -0.649 OA
BRANCH  21  23
HETATM   23  O   UNK N   1      34.284  18.130   6.644  0.00  0.00    -0.775 OA
HETATM   24  H   UNK N   1      33.414  17.951   6.347  0.00  0.00     0.167 HD
ENDBRANCH  21  23
ENDBRANCH  20  21
ENDBRANCH  18  20
ENDBRANCH  17  18
ENDBRANCH   7  17
BRANCH   8  25
HETATM   25  O   UNK N   1      30.374  17.587   9.807  0.00  0.00    -0.358 OA
HETATM   26  H   UNK N   1      30.929  18.269  10.129  0.00  0.00     0.217 HD
ENDBRANCH   8  25
TORSDOF 11
ENDMDL
MODEL 3
REMARK VINA RESULT:      -5.2      9.850     12.595
REMARK  11 active torsions:
REMARK  status: ('A' for Active; 'I' for Inactive)
REMARK    1  A    between atoms: C_6  and  C_7 
REMARK    2  A    between atoms: C_7  and  O_8 
REMARK    3  A    between atoms: O_8  and  P_9 
REMARK    4  A    between atoms: P_9  and  O_10 
REMARK    5  A    between atoms: P_9  and  O_11 
REMARK    6  A    between atoms: C_13  and  C_14 
REMARK    7  A    between atoms: C_14  and  N_15 
REMARK    8  A    between atoms: N_15  and  C_16 
REMARK    9  A    between atoms: C_16  and  C_17 
REMARK   10  A    between atoms: C_17  and  O_18 
REMARK   11  A    between atoms: C_20  and  O_21 
ROOT
HETATM    1  C   UNK N   1      32.487  17.096   3.436  0.00  0.00     0.071 C 
HETATM    2  C   UNK N   1      32.778  16.766   4.859  0.00  0.00     0.039 A 
HETATM    3  N   UNK N   1      33.991  16.246   5.191  0.00  0.00    -0.367 N 
ATOM      4  HN  UNK N   1      34.679  16.080   4.456  1.00  0.00     0.165 HD
HETATM    5  C   UNK N   1      34.311  15.943   6.477  0.00  0.00     0.098 A 
HETATM    6  C   UNK N   1      33.386  16.156   7.503  0.00  0.00    -0.008 A 
HETATM    7  C   UNK N   1      32.119  16.679   7.191  0.00  0.00     0.004 A 
HETATM    8  C   UNK N   1      31.816  16.987   5.855  0.00  0.00     0.096 A 
ENDROOT
BRANCH   6   9
HETATM    9  C   UNK N   1      33.769  15.876   8.918  0.00  0.00     0.221 C 
BRANCH   9  10
HETATM   10  O   UNK N   1      35.015  15.255   9.006  0.00  0.00    -0.292 OA
BRANCH  10  11
HETATM   11  P   UNK N   1      35.624  15.749  10.561  0.00  0.00     0.391 P 
HETATM   12  O   UNK N   1      35.083  14.762  11.633  0.00  0.00    -0.632 OA
BRANCH  11  13
HETATM   13  O   UNK N   1      37.356  15.658  10.632  0.00  0.00    -0.307 OA
HETATM   14  H   UNK N   1      38.145  16.190  10.443  0.00  0.00     0.222 HD
ENDBRANCH  11  13
BRANCH  11  15
HETATM   15  O   UNK N   1      35.068  17.337  10.986  0.00  0.00    -0.307 OA
HETATM   16  H   UNK N   1      34.360  17.877  11.371  0.00  0.00     0.222 HD
ENDBRANCH  11  15
ENDBRANCH  10  11
ENDBRANCH   9  10
ENDBRANCH   6   9
BRANCH   7  17
HETATM   17  C   UNK N   1      31.098  16.884   8.273  0.00  0.00     0.156 C 
BRANCH  17  18
HETATM   18  N   UNK N   1      30.937  18.295   8.578  0.00  0.00    -0.408 N 
HETATM   19  H   UNK N   1      31.489  19.068   8.207  0.00  0.00     0.154 HD
BRANCH  18  20
HETATM   20  C   UNK N   1      29.832  18.387   9.521  0.00  0.00     0.224 C 
BRANCH  20  21
HETATM   21  C   UNK N   1      28.519  18.570   8.818  0.00  0.00     0.157 C 
HETATM   22  O   UNK N   1      28.458  19.147   7.744  0.00  0.00    -0.649 OA
BRANCH  21  23
HETATM   23  O   UNK N   1      27.394  18.093   9.382  0.00  0.00    -0.775 OA
HETATM   24  H   UNK N   1      27.335  17.220   9.716  0.00  0.00     0.167 HD
ENDBRANCH  21  23
ENDBRANCH  20  21
ENDBRANCH  18  20
ENDBRANCH  17  18
ENDBRANCH   7  17
BRANCH   8  25
HETATM   25  O   UNK N   1      30.610  17.495   5.530  0.00  0.00    -0.358 OA
HETATM   26  H   UNK N   1      30.429  18.411   5.597  0.00  0.00     0.217 HD
ENDBRANCH   8  25
TORSDOF 11
ENDMDL
MODEL 4
REMARK VINA RESULT:      -5.2      2.237      2.808
REMARK  11 active torsions:
REMARK  status: ('A' for Active; 'I' for Inactive)
REMARK    1  A    between atoms: C_6  and  C_7 
REMARK    2  A    between atoms: C_7  and  O_8 
REMARK    3  A    between atoms: O_8  and  P_9 
REMARK    4  A    between atoms: P_9  and  O_10 
REMARK    5  A    between atoms: P_9  and  O_11 
REMARK    6  A    between atoms: C_13  and  C_14 
REMARK    7  A    between atoms: C_14  and  N_15 
REMARK    8  A    between atoms: N_15  and  C_16 
REMARK    9  A    between atoms: C_16  and  C_17 
REMARK   10  A    between atoms: C_17  and  O_18 
REMARK   11  A    between atoms: C_20  and  O_21 
ROOT
HETATM    1  C   UNK N   1      25.837  20.550   3.200  0.00  0.00     0.071 C 
HETATM    2  C   UNK N   1      24.812  19.575   3.668  0.00  0.00     0.039 A 
HETATM    3  N   UNK N   1      25.210  18.436   4.296  0.00  0.00    -0.367 N 
ATOM      4  HN  UNK N   1      26.206  18.261   4.426  1.00  0.00     0.165 HD
HETATM    5  C   UNK N   1      24.313  17.523   4.755  0.00  0.00     0.098 A 
HETATM    6  C   UNK N   1      22.942  17.734   4.587  0.00  0.00    -0.008 A 
HETATM    7  C   UNK N   1      22.499  18.896   3.929  0.00  0.00     0.004 A 
HETATM    8  C   UNK N   1      23.446  19.824   3.468  0.00  0.00     0.096 A 
ENDROOT
BRANCH   6   9
HETATM    9  C   UNK N   1      21.965  16.755   5.148  0.00  0.00     0.221 C 
BRANCH   9  10
HETATM   10  O   UNK N   1      22.214  16.487   6.494  0.00  0.00    -0.292 OA
BRANCH  10  11
HETATM   11  P   UNK N   1      20.774  17.034   7.306  0.00  0.00     0.391 P 
HETATM   12  O   UNK N   1      20.804  16.500   8.766  0.00  0.00    -0.632 OA
BRANCH  11  13
HETATM   13  O   UNK N   1      20.714  18.765   7.412  0.00  0.00    -0.307 OA
HETATM   14  H   UNK N   1      21.242  19.517   7.720  0.00  0.00     0.222 HD
ENDBRANCH  11  13
BRANCH  11  15
HETATM   15  O   UNK N   1      19.342  16.407   6.552  0.00  0.00    -0.307 OA
HETATM   16  H   UNK N   1      18.383  16.273   6.607  0.00  0.00     0.222 HD
ENDBRANCH  11  15
ENDBRANCH  10  11
ENDBRANCH   9  10
ENDBRANCH   6   9
BRANCH   7  17
HETATM   17  C   UNK N   1      21.032  19.126   3.707  0.00  0.00     0.156 C 
BRANCH  17  18
HETATM   18  N   UNK N   1      20.698  19.037   2.295  0.00  0.00    -0.408 N 
HETATM   19  H   UNK N   1      20.869  19.745   1.581  0.00  0.00     0.154 HD
BRANCH  18  20
HETATM   20  C   UNK N   1      20.072  17.737   2.103  0.00  0.00     0.224 C 
BRANCH  20  21
HETATM   21  C   UNK N   1      20.341  17.191   0.732  0.00  0.00     0.157 C 
HETATM   22  O   UNK N   1      20.588  16.006   0.567  0.00  0.00    -0.649 OA
BRANCH  21  23
HETATM   23  O   UNK N   1      20.312  18.019  -0.328  0.00  0.00    -0.775 OA
HETATM   24  H   UNK N   1      19.521  18.205  -0.794  0.00  0.00     0.167 HD
ENDBRANCH  21  23
ENDBRANCH  20  21
ENDBRANCH  18  20
ENDBRANCH  17  18
ENDBRANCH   7  17
BRANCH   8  25
HETATM   25  O   UNK N   1      23.048  20.949   2.840  0.00  0.00    -0.358 OA
HETATM   26  H   UNK N   1      22.469  21.560   3.248  0.00  0.00     0.217 HD
ENDBRANCH   8  25
TORSDOF 11
ENDMDL
MODEL 5
REMARK VINA RESULT:      -5.1     11.419     13.273
REMARK  11 active torsions:
REMARK  status: ('A' for Active; 'I' for Inactive)
REMARK    1  A    between atoms: C_6  and  C_7 
REMARK    2  A    between atoms: C_7  and  O_8 
REMARK    3  A    between atoms: O_8  and  P_9 
REMARK    4  A    between atoms: P_9  and  O_10 
REMARK    5  A    between atoms: P_9  and  O_11 
REMARK    6  A    between atoms: C_13  and  C_14 
REMARK    7  A    between atoms: C_14  and  N_15 
REMARK    8  A    between atoms: N_15  and  C_16 
REMARK    9  A    between atoms: C_16  and  C_17 
REMARK   10  A    between atoms: C_17  and  O_18 
REMARK   11  A    between atoms: C_20  and  O_21 
ROOT
HETATM    1  C   UNK N   1      35.338  13.036  11.128  0.00  0.00     0.071 C 
HETATM    2  C   UNK N   1      34.710  13.492   9.856  0.00  0.00     0.039 A 
HETATM    3  N   UNK N   1      35.114  12.946   8.677  0.00  0.00    -0.367 N 
ATOM      4  HN  UNK N   1      35.851  12.240   8.682  1.00  0.00     0.165 HD
HETATM    5  C   UNK N   1      34.562  13.317   7.492  0.00  0.00     0.098 A 
HETATM    6  C   UNK N   1      33.555  14.286   7.454  0.00  0.00    -0.008 A 
HETATM    7  C   UNK N   1      33.125  14.878   8.655  0.00  0.00     0.004 A 
HETATM    8  C   UNK N   1      33.709  14.475   9.866  0.00  0.00     0.096 A 
ENDROOT
BRANCH   6   9
HETATM    9  C   UNK N   1      32.914  14.642   6.154  0.00  0.00     0.221 C 
BRANCH   9  10
HETATM   10  O   UNK N   1      33.842  15.130   5.235  0.00  0.00    -0.292 OA
BRANCH  10  11
HETATM   11  P   UNK N   1      32.870  15.988   4.071  0.00  0.00     0.391 P 
HETATM   12  O   UNK N   1      33.444  15.707   2.654  0.00  0.00    -0.632 OA
BRANCH  11  13
HETATM   13  O   UNK N   1      31.230  15.423   4.062  0.00  0.00    -0.307 OA
HETATM   14  H   UNK N   1      30.685  14.702   3.708  0.00  0.00     0.222 HD
ENDBRANCH  11  13
BRANCH  11  15
HETATM   15  O   UNK N   1      32.935  17.703   4.330  0.00  0.00    -0.307 OA
HETATM   16  H   UNK N   1      33.486  18.479   4.521  0.00  0.00     0.222 HD
ENDBRANCH  11  15
ENDBRANCH  10  11
ENDBRANCH   9  10
ENDBRANCH   6   9
BRANCH   7  17
HETATM   17  C   UNK N   1      32.068  15.946   8.635  0.00  0.00     0.156 C 
BRANCH  17  18
HETATM   18  N   UNK N   1      32.569  17.186   9.201  0.00  0.00    -0.408 N 
HETATM   19  H   UNK N   1      32.759  17.376  10.185  0.00  0.00     0.154 HD
BRANCH  18  20
HETATM   20  C   UNK N   1      32.746  18.105   8.086  0.00  0.00     0.224 C 
BRANCH  20  21
HETATM   21  C   UNK N   1      34.195  18.285   7.742  0.00  0.00     0.157 C 
HETATM   22  O   UNK N   1      34.903  19.041   8.388  0.00  0.00    -0.649 OA
BRANCH  21  23
HETATM   23  O   UNK N   1      34.719  17.606   6.705  0.00  0.00    -0.775 OA
HETATM   24  H   UNK N   1      35.156  18.036   5.997  0.00  0.00     0.167 HD
ENDBRANCH  21  23
ENDBRANCH  20  21
ENDBRANCH  18  20
ENDBRANCH  17  18
ENDBRANCH   7  17
BRANCH   8  25
HETATM   25  O   UNK N   1      33.311  15.023  11.031  0.00  0.00    -0.358 OA
HETATM   26  H   UNK N   1      32.745  15.769  11.055  0.00  0.00     0.217 HD
ENDBRANCH   8  25
TORSDOF 11
ENDMDL
MODEL 6
REMARK VINA RESULT:      -5.1      5.744      7.890
REMARK  11 active torsions:
REMARK  status: ('A' for Active; 'I' for Inactive)
REMARK    1  A    between atoms: C_6  and  C_7 
REMARK    2  A    between atoms: C_7  and  O_8 
REMARK    3  A    between atoms: O_8  and  P_9 
REMARK    4  A    between atoms: P_9  and  O_10 
REMARK    5  A    between atoms: P_9  and  O_11 
REMARK    6  A    between atoms: C_13  and  C_14 
REMARK    7  A    between atoms: C_14  and  N_15 
REMARK    8  A    between atoms: N_15  and  C_16 
REMARK    9  A    between atoms: C_16  and  C_17 
REMARK   10  A    between atoms: C_17  and  O_18 
REMARK   11  A    between atoms: C_20  and  O_21 
ROOT
HETATM    1  C   UNK N   1      23.291  11.650  13.168  0.00  0.00     0.071 C 
HETATM    2  C   UNK N   1      23.474  12.141  11.773  0.00  0.00     0.039 A 
HETATM    3  N   UNK N   1      24.728  12.412  11.318  0.00  0.00    -0.367 N 
ATOM      4  HN  UNK N   1      25.523  12.285  11.945  1.00  0.00     0.165 HD
HETATM    5  C   UNK N   1      24.949  12.847  10.050  0.00  0.00     0.098 A 
HETATM    6  C   UNK N   1      23.879  13.034   9.171  0.00  0.00    -0.008 A 
HETATM    7  C   UNK N   1      22.570  12.776   9.615  0.00  0.00     0.004 A 
HETATM    8  C   UNK N   1      22.369  12.325  10.929  0.00  0.00     0.096 A 
ENDROOT
BRANCH   6   9
HETATM    9  C   UNK N   1      24.138  13.454   7.762  0.00  0.00     0.221 C 
BRANCH   9  10
HETATM   10  O   UNK N   1      25.485  13.745   7.547  0.00  0.00    -0.292 OA
BRANCH  10  11
HETATM   11  P   UNK N   1      25.454  15.174   6.551  0.00  0.00     0.391 P 
HETATM   12  O   UNK N   1      25.791  14.759   5.092  0.00  0.00    -0.632 OA
BRANCH  11  13
HETATM   13  O   UNK N   1      23.876  15.894   6.510  0.00  0.00    -0.307 OA
HETATM   14  H   UNK N   1      23.415  16.709   6.764  0.00  0.00     0.222 HD
ENDBRANCH  11  13
BRANCH  11  15
HETATM   15  O   UNK N   1      26.650  16.326   7.056  0.00  0.00    -0.307 OA
HETATM   16  H   UNK N   1      26.837  17.159   7.517  0.00  0.00     0.222 HD
ENDBRANCH  11  15
ENDBRANCH  10  11
ENDBRANCH   9  10
ENDBRANCH   6   9
BRANCH   7  17
HETATM   17  C   UNK N   1      21.402  13.004   8.699  0.00  0.00     0.156 C 
BRANCH  17  18
HETATM   18  N   UNK N   1      20.526  14.040   9.218  0.00  0.00    -0.408 N 
HETATM   19  H   UNK N   1      19.862  13.952   9.987  0.00  0.00     0.154 HD
BRANCH  18  20
HETATM   20  C   UNK N   1      20.784  15.232   8.421  0.00  0.00     0.224 C 
BRANCH  20  21
HETATM   21  C   UNK N   1      19.835  16.342   8.764  0.00  0.00     0.157 C 
HETATM   22  O   UNK N   1      20.219  17.500   8.818  0.00  0.00    -0.649 OA
BRANCH  21  23
HETATM   23  O   UNK N   1      18.544  16.056   9.016  0.00  0.00    -0.775 OA
HETATM   24  H   UNK N   1      18.113  16.344   9.796  0.00  0.00     0.167 HD
ENDBRANCH  21  23
ENDBRANCH  20  21
ENDBRANCH  18  20
ENDBRANCH  17  18
ENDBRANCH   7  17
BRANCH   8  25
HETATM   25  O   UNK N   1      21.125  12.064  11.378  0.00  0.00    -0.358 OA
HETATM   26  H   UNK N   1      20.433  11.823  10.795  0.00  0.00     0.217 HD
ENDBRANCH   8  25
TORSDOF 11
ENDMDL
MODEL 7
REMARK VINA RESULT:      -5.0     12.572     15.418
REMARK  11 active torsions:
REMARK  status: ('A' for Active; 'I' for Inactive)
REMARK    1  A    between atoms: C_6  and  C_7 
REMARK    2  A    between atoms: C_7  and  O_8 
REMARK    3  A    between atoms: O_8  and  P_9 
REMARK    4  A    between atoms: P_9  and  O_10 
REMARK    5  A    between atoms: P_9  and  O_11 
REMARK    6  A    between atoms: C_13  and  C_14 
REMARK    7  A    between atoms: C_14  and  N_15 
REMARK    8  A    between atoms: N_15  and  C_16 
REMARK    9  A    between atoms: C_16  and  C_17 
REMARK   10  A    between atoms: C_17  and  O_18 
REMARK   11  A    between atoms: C_20  and  O_21 
ROOT
HETATM    1  C   UNK N   1      36.636  12.985  14.504  0.00  0.00     0.071 C 
HETATM    2  C   UNK N   1      36.272  13.732  13.267  0.00  0.00     0.039 A 
HETATM    3  N   UNK N   1      36.378  15.088  13.249  0.00  0.00    -0.367 N 
ATOM      4  HN  UNK N   1      36.694  15.574  14.088  1.00  0.00     0.165 HD
HETATM    5  C   UNK N   1      36.073  15.813  12.140  0.00  0.00     0.098 A 
HETATM    6  C   UNK N   1      35.632  15.174  10.977  0.00  0.00    -0.008 A 
HETATM    7  C   UNK N   1      35.500  13.774  10.969  0.00  0.00     0.004 A 
HETATM    8  C   UNK N   1      35.825  13.049  12.127  0.00  0.00     0.096 A 
ENDROOT
BRANCH   6   9
HETATM    9  C   UNK N   1      35.358  15.974   9.748  0.00  0.00     0.221 C 
BRANCH   9  10
HETATM   10  O   UNK N   1      34.553  17.081  10.018  0.00  0.00    -0.292 OA
BRANCH  10  11
HETATM   11  P   UNK N   1      34.378  17.862   8.471  0.00  0.00     0.391 P 
HETATM   12  O   UNK N   1      34.880  16.885   7.371  0.00  0.00    -0.632 OA
BRANCH  11  13
HETATM   13  O   UNK N   1      32.715  18.203   8.109  0.00  0.00    -0.307 OA
HETATM   14  H   UNK N   1      31.825  17.849   8.261  0.00  0.00     0.222 HD
ENDBRANCH  11  13
BRANCH  11  15
HETATM   15  O   UNK N   1      35.343  19.300   8.372  0.00  0.00    -0.307 OA
HETATM   16  H   UNK N   1      35.471  20.170   7.961  0.00  0.00     0.222 HD
ENDBRANCH  11  15
ENDBRANCH  10  11
ENDBRANCH   9  10
ENDBRANCH   6   9
BRANCH   7  17
HETATM   17  C   UNK N   1      34.996  13.070   9.743  0.00  0.00     0.156 C 
BRANCH  17  18
HETATM   18  N   UNK N   1      33.584  12.751   9.867  0.00  0.00    -0.408 N 
HETATM   19  H   UNK N   1      33.136  12.248  10.632  0.00  0.00     0.154 HD
BRANCH  18  20
HETATM   20  C   UNK N   1      32.935  13.294   8.682  0.00  0.00     0.224 C 
BRANCH  20  21
HETATM   21  C   UNK N   1      32.263  14.605   8.971  0.00  0.00     0.157 C 
HETATM   22  O   UNK N   1      31.833  15.301   8.064  0.00  0.00    -0.649 OA
BRANCH  21  23
HETATM   23  O   UNK N   1      32.136  15.017  10.245  0.00  0.00    -0.775 OA
HETATM   24  H   UNK N   1      32.277  14.442  10.971  0.00  0.00     0.167 HD
ENDBRANCH  21  23
ENDBRANCH  20  21
ENDBRANCH  18  20
ENDBRANCH  17  18
ENDBRANCH   7  17
BRANCH   8  25
HETATM   25  O   UNK N   1      35.712  11.705  12.143  0.00  0.00    -0.358 OA
HETATM   26  H   UNK N   1      35.753  11.219  12.942  0.00  0.00     0.217 HD
ENDBRANCH   8  25
TORSDOF 11
ENDMDL
MODEL 8
REMARK VINA RESULT:      -5.0      7.663     10.471
REMARK  11 active torsions:
REMARK  status: ('A' for Active; 'I' for Inactive)
REMARK    1  A    between atoms: C_6  and  C_7 
REMARK    2  A    between atoms: C_7  and  O_8 
REMARK    3  A    between atoms: O_8  and  P_9 
REMARK    4  A    between atoms: P_9  and  O_10 
REMARK    5  A    between atoms: P_9  and  O_11 
REMARK    6  A    between atoms: C_13  and  C_14 
REMARK    7  A    between atoms: C_14  and  N_15 
REMARK    8  A    between atoms: N_15  and  C_16 
REMARK    9  A    between atoms: C_16  and  C_17 
REMARK   10  A    between atoms: C_17  and  O_18 
REMARK   11  A    between atoms: C_20  and  O_21 
ROOT
HETATM    1  C   UNK N   1      26.627  20.680   5.767  0.00  0.00     0.071 C 
HETATM    2  C   UNK N   1      27.591  19.625   6.189  0.00  0.00     0.039 A 
HETATM    3  N   UNK N   1      27.711  19.318   7.510  0.00  0.00    -0.367 N 
ATOM      4  HN  UNK N   1      27.147  19.825   8.192  1.00  0.00     0.165 HD
HETATM    5  C   UNK N   1      28.564  18.353   7.943  0.00  0.00     0.098 A 
HETATM    6  C   UNK N   1      29.353  17.646   7.031  0.00  0.00    -0.008 A 
HETATM    7  C   UNK N   1      29.261  17.949   5.661  0.00  0.00     0.004 A 
HETATM    8  C   UNK N   1      28.369  18.948   5.239  0.00  0.00     0.096 A 
ENDROOT
BRANCH   6   9
HETATM    9  C   UNK N   1      30.241  16.547   7.512  0.00  0.00     0.221 C 
BRANCH   9  10
HETATM   10  O   UNK N   1      31.508  17.017   7.855  0.00  0.00    -0.292 OA
BRANCH  10  11
HETATM   11  P   UNK N   1      32.306  15.624   8.532  0.00  0.00     0.391 P 
HETATM   12  O   UNK N   1      33.822  15.943   8.657  0.00  0.00    -0.632 OA
BRANCH  11  13
HETATM   13  O   UNK N   1      31.739  15.275  10.134  0.00  0.00    -0.307 OA
HETATM   14  H   UNK N   1      31.233  15.678  10.857  0.00  0.00     0.222 HD
ENDBRANCH  11  13
BRANCH  11  15
HETATM   15  O   UNK N   1      32.147  14.238   7.500  0.00  0.00    -0.307 OA
HETATM   16  H   UNK N   1      32.444  13.780   6.698  0.00  0.00     0.222 HD
ENDBRANCH  11  15
ENDBRANCH  10  11
ENDBRANCH   9  10
ENDBRANCH   6   9
BRANCH   7  17
HETATM   17  C   UNK N   1      30.124  17.226   4.667  0.00  0.00     0.156 C 
BRANCH  17  18
HETATM   18  N   UNK N   1      31.139  18.108   4.119  0.00  0.00    -0.408 N 
HETATM   19  H   UNK N   1      31.090  19.124   4.042  0.00  0.00     0.154 HD
BRANCH  18  20
HETATM   20  C   UNK N   1      32.241  17.255   3.699  0.00  0.00     0.224 C 
BRANCH  20  21
HETATM   21  C   UNK N   1      33.119  16.876   4.855  0.00  0.00     0.157 C 
HETATM   22  O   UNK N   1      33.427  15.711   5.053  0.00  0.00    -0.649 OA
BRANCH  21  23
HETATM   23  O   UNK N   1      33.570  17.834   5.685  0.00  0.00    -0.775 OA
HETATM   24  H   UNK N   1      34.484  17.976   5.834  0.00  0.00     0.167 HD
ENDBRANCH  21  23
ENDBRANCH  20  21
ENDBRANCH  18  20
ENDBRANCH  17  18
ENDBRANCH   7  17
BRANCH   8  25
HETATM   25  O   UNK N   1      28.258  19.255   3.931  0.00  0.00    -0.358 OA
HETATM   26  H   UNK N   1      28.693  19.997   3.562  0.00  0.00     0.217 HD
ENDBRANCH   8  25
TORSDOF 11
ENDMDL
MODEL 9
REMARK VINA RESULT:      -5.0      5.069      7.413
REMARK  11 active torsions:
REMARK  status: ('A' for Active; 'I' for Inactive)
REMARK    1  A    between atoms: C_6  and  C_7 
REMARK    2  A    between atoms: C_7  and  O_8 
REMARK    3  A    between atoms: O_8  and  P_9 
REMARK    4  A    between atoms: P_9  and  O_10 
REMARK    5  A    between atoms: P_9  and  O_11 
REMARK    6  A    between atoms: C_13  and  C_14 
REMARK    7  A    between atoms: C_14  and  N_15 
REMARK    8  A    between atoms: N_15  and  C_16 
REMARK    9  A    between atoms: C_16  and  C_17 
REMARK   10  A    between atoms: C_17  and  O_18 
REMARK   11  A    between atoms: C_20  and  O_21 
ROOT
HETATM    1  C   UNK N   1      23.329  11.930  13.423  0.00  0.00     0.071 C 
HETATM    2  C   UNK N   1      22.918  12.095  12.000  0.00  0.00     0.039 A 
HETATM    3  N   UNK N   1      21.594  12.112  11.685  0.00  0.00    -0.367 N 
ATOM      4  HN  UNK N   1      20.904  12.001  12.428  1.00  0.00     0.165 HD
HETATM    5  C   UNK N   1      21.168  12.275  10.405  0.00  0.00     0.098 A 
HETATM    6  C   UNK N   1      22.091  12.426   9.366  0.00  0.00    -0.008 A 
HETATM    7  C   UNK N   1      23.466  12.398   9.659  0.00  0.00     0.004 A 
HETATM    8  C   UNK N   1      23.880  12.232  10.990  0.00  0.00     0.096 A 
ENDROOT
BRANCH   6   9
HETATM    9  C   UNK N   1      21.611  12.664   7.973  0.00  0.00     0.221 C 
BRANCH   9  10
HETATM   10  O   UNK N   1      20.368  13.297   7.954  0.00  0.00    -0.292 OA
BRANCH  10  11
HETATM   11  P   UNK N   1      20.627  14.703   6.959  0.00  0.00     0.391 P 
HETATM   12  O   UNK N   1      21.701  15.594   7.643  0.00  0.00    -0.632 OA
BRANCH  11  13
HETATM   13  O   UNK N   1      21.255  14.279   5.398  0.00  0.00    -0.307 OA
HETATM   14  H   UNK N   1      22.088  14.035   4.965  0.00  0.00     0.222 HD
ENDBRANCH  11  13
BRANCH  11  15
HETATM   15  O   UNK N   1      19.180  15.651   6.810  0.00  0.00    -0.307 OA
HETATM   16  H   UNK N   1      18.236  15.668   6.589  0.00  0.00     0.222 HD
ENDBRANCH  11  15
ENDBRANCH  10  11
ENDBRANCH   9  10
ENDBRANCH   6   9
BRANCH   7  17
HETATM   17  C   UNK N   1      24.476  12.523   8.554  0.00  0.00     0.156 C 
BRANCH  17  18
HETATM   18  N   UNK N   1      25.053  13.856   8.523  0.00  0.00    -0.408 N 
HETATM   19  H   UNK N   1      25.060  14.537   9.282  0.00  0.00     0.154 HD
BRANCH  18  20
HETATM   20  C   UNK N   1      25.619  14.027   7.193  0.00  0.00     0.224 C 
BRANCH  20  21
HETATM   21  C   UNK N   1      24.651  14.695   6.261  0.00  0.00     0.157 C 
HETATM   22  O   UNK N   1      24.088  14.060   5.383  0.00  0.00    -0.649 OA
BRANCH  21  23
HETATM   23  O   UNK N   1      24.404  16.011   6.395  0.00  0.00    -0.775 OA
HETATM   24  H   UNK N   1      24.293  16.575   5.656  0.00  0.00     0.167 HD
ENDBRANCH  21  23
ENDBRANCH  20  21
ENDBRANCH  18  20
ENDBRANCH  17  18
ENDBRANCH   7  17
BRANCH   8  25
HETATM   25  O   UNK N   1      25.193  12.208  11.298  0.00  0.00    -0.358 OA
HETATM   26  H   UNK N   1      25.821  12.699  10.807  0.00  0.00     0.217 HD
ENDBRANCH   8  25
TORSDOF 11
ENDMDL
