MODEL 1
REMARK VINA RESULT:      -6.0      0.000      0.000
REMARK  5 active torsions:
REMARK  status: ('A' for Active; 'I' for Inactive)
REMARK    1  A    between atoms: C_5  and  C_2 
REMARK    2  A    between atoms: O_20  and  C_2 
REMARK    3  A    between atoms: C_4  and  O_21 
REMARK    4  A    between atoms: C_6  and  N_19 
REMARK    5  A    between atoms: N_12  and  C_8 
ROOT
HETATM    1  C   UNK N   1      35.161  10.192  16.356  0.00  0.00     0.188 A 
HETATM    2  C   UNK N   1      35.199  11.517  18.040  0.00  0.00     0.122 A 
HETATM    3  C   UNK N   1      35.184  12.148  19.277  0.00  0.00     0.133 A 
HETATM    4  C   UNK N   1      35.358  12.248  16.923  0.00  0.00     0.144 A 
HETATM    5  C   UNK N   1      35.473  14.230  18.145  0.00  0.00     0.269 A 
HETATM    6  F   UNK N   1      35.591  15.578  18.194  0.00  0.00    -0.165 F 
HETATM    7  N   UNK N   1      35.074  10.214  17.721  0.00  0.00    -0.346 N 
ATOM      8  HN  UNK N   1      34.945   9.425  18.352  1.00  0.00     0.167 HD
HETATM    9  N   UNK N   1      35.320  13.509  19.305  0.00  0.00    -0.303 N 
ATOM     10  HN  UNK N   1      35.306  13.997  20.201  1.00  0.00     0.171 HD
HETATM   11  N   UNK N   1      35.499  13.592  16.936  0.00  0.00    -0.302 N 
ATOM     12  HN  UNK N   1      35.620  14.115  16.069  1.00  0.00     0.171 HD
HETATM   13  N   UNK N   1      35.338  11.442  15.855  0.00  0.00    -0.300 N 
ENDROOT
BRANCH  13  14
HETATM   14  C   UNK N   1      35.507  11.871  14.467  0.00  0.00     0.233 C 
HETATM   15  C   UNK N   1      36.979  11.886  14.084  0.00  0.00     0.088 C 
HETATM   16  C   UNK N   1      36.912  12.764  12.886  0.00  0.00     0.153 C 
HETATM   17  C   UNK N   1      35.954  13.820  13.418  0.00  0.00     0.176 C 
HETATM   18  O   UNK N   1      34.987  13.164  14.222  0.00  0.00    -0.356 OA
BRANCH  16  19
HETATM   19  O   UNK N   1      36.346  12.042  11.827  0.00  0.00    -0.393 OA
HETATM   20  H   UNK N   1      35.830  11.904  11.016  0.00  0.00     0.210 HD
ENDBRANCH  16  19
BRANCH  17  21
HETATM   21  C   UNK N   1      35.310  14.602  12.279  0.00  0.00     0.198 C 
BRANCH  21  22
HETATM   22  O   UNK N   1      34.131  13.983  11.867  0.00  0.00    -0.398 OA
HETATM   23  H   UNK N   1      33.413  13.836  12.502  0.00  0.00     0.209 HD
ENDBRANCH  21  22
ENDBRANCH  17  21
ENDBRANCH  13  14
BRANCH   3  24
HETATM   24  N   UNK N   1      35.028  11.417  20.472  0.00  0.00    -0.383 N 
HETATM   25  H   UNK N   1      34.374  11.670  21.163  0.00  0.00     0.157 HD
HETATM   26  H   UNK N   1      35.594  10.626  20.621  0.00  0.00     0.157 HD
ENDBRANCH   3  24
TORSDOF 5
ENDMDL
MODEL 2
REMARK VINA RESULT:      -5.9     12.264     13.927
REMARK  5 active torsions:
REMARK  status: ('A' for Active; 'I' for Inactive)
REMARK    1  A    between atoms: C_5  and  C_2 
REMARK    2  A    between atoms: O_20  and  C_2 
REMARK    3  A    between atoms: C_4  and  O_21 
REMARK    4  A    between atoms: C_6  and  N_19 
REMARK    5  A    between atoms: N_12  and  C_8 
ROOT
HETATM    1  C   UNK N   1      28.730  18.021   7.964  0.00  0.00     0.188 A 
HETATM    2  C   UNK N   1      27.470  19.580   7.208  0.00  0.00     0.122 A 
HETATM    3  C   UNK N   1      26.586  20.627   6.979  0.00  0.00     0.133 A 
HETATM    4  C   UNK N   1      28.093  18.998   6.169  0.00  0.00     0.144 A 
HETATM    5  C   UNK N   1      27.022  20.398   4.643  0.00  0.00     0.269 A 
HETATM    6  F   UNK N   1      26.787  20.791   3.369  0.00  0.00    -0.165 F 
HETATM    7  N   UNK N   1      27.849  18.990   8.357  0.00  0.00    -0.346 N 
ATOM      8  HN  UNK N   1      27.549  19.215   9.305  1.00  0.00     0.167 HD
HETATM    9  N   UNK N   1      26.374  21.018   5.685  0.00  0.00    -0.303 N 
ATOM     10  HN  UNK N   1      25.726  21.780   5.491  1.00  0.00     0.171 HD
HETATM   11  N   UNK N   1      27.899  19.378   4.886  0.00  0.00    -0.302 N 
ATOM     12  HN  UNK N   1      28.391  18.916   4.121  1.00  0.00     0.171 HD
HETATM   13  N   UNK N   1      28.889  18.019   6.615  0.00  0.00    -0.300 N 
ENDROOT
BRANCH  13  14
HETATM   14  C   UNK N   1      29.747  17.178   5.782  0.00  0.00     0.233 C 
HETATM   15  C   UNK N   1      30.767  16.438   6.634  0.00  0.00     0.088 C 
HETATM   16  C   UNK N   1      31.751  16.076   5.582  0.00  0.00     0.153 C 
HETATM   17  C   UNK N   1      31.778  17.392   4.817  0.00  0.00     0.176 C 
HETATM   18  O   UNK N   1      30.459  17.914   4.804  0.00  0.00    -0.356 OA
BRANCH  16  19
HETATM   19  O   UNK N   1      31.220  15.039   4.802  0.00  0.00    -0.393 OA
HETATM   20  H   UNK N   1      31.222  14.207   4.303  0.00  0.00     0.210 HD
ENDBRANCH  16  19
BRANCH  17  21
HETATM   21  C   UNK N   1      32.327  17.198   3.408  0.00  0.00     0.198 C 
BRANCH  21  22
HETATM   22  O   UNK N   1      31.283  17.063   2.493  0.00  0.00    -0.398 OA
HETATM   23  H   UNK N   1      31.296  17.566   1.664  0.00  0.00     0.209 HD
ENDBRANCH  21  22
ENDBRANCH  17  21
ENDBRANCH  13  14
BRANCH   3  24
HETATM   24  N   UNK N   1      25.918  21.268   8.042  0.00  0.00    -0.383 N 
HETATM   25  H   UNK N   1      24.994  21.045   8.294  0.00  0.00     0.157 HD
HETATM   26  H   UNK N   1      26.394  21.965   8.549  0.00  0.00     0.157 HD
ENDBRANCH   3  24
TORSDOF 5
ENDMDL
MODEL 3
REMARK VINA RESULT:      -5.9      6.834      9.274
REMARK  5 active torsions:
REMARK  status: ('A' for Active; 'I' for Inactive)
REMARK    1  A    between atoms: C_5  and  C_2 
REMARK    2  A    between atoms: O_20  and  C_2 
REMARK    3  A    between atoms: C_4  and  O_21 
REMARK    4  A    between atoms: C_6  and  N_19 
REMARK    5  A    between atoms: N_12  and  C_8 
ROOT
HETATM    1  C   UNK N   1      33.161  14.235   7.794  0.00  0.00     0.188 A 
HETATM    2  C   UNK N   1      31.552  15.606   7.442  0.00  0.00     0.122 A 
HETATM    3  C   UNK N   1      30.432  16.314   7.026  0.00  0.00     0.133 A 
HETATM    4  C   UNK N   1      32.337  16.114   8.408  0.00  0.00     0.144 A 
HETATM    5  C   UNK N   1      31.007  18.019   8.596  0.00  0.00     0.269 A 
HETATM    6  F   UNK N   1      30.747  19.224   9.156  0.00  0.00    -0.165 F 
HETATM    7  N   UNK N   1      32.040  14.420   7.033  0.00  0.00    -0.346 N 
ATOM      8  HN  UNK N   1      31.660  13.801   6.318  1.00  0.00     0.167 HD
HETATM    9  N   UNK N   1      30.180  17.523   7.615  0.00  0.00    -0.303 N 
ATOM     10  HN  UNK N   1      29.367  18.064   7.323  1.00  0.00     0.171 HD
HETATM   11  N   UNK N   1      32.097  17.304   9.004  0.00  0.00    -0.302 N 
ATOM     12  HN  UNK N   1      32.713  17.657   9.736  1.00  0.00     0.171 HD
HETATM   13  N   UNK N   1      33.351  15.274   8.647  0.00  0.00    -0.300 N 
ENDROOT
BRANCH  13  14
HETATM   14  C   UNK N   1      34.398  15.474   9.650  0.00  0.00     0.233 C 
HETATM   15  C   UNK N   1      35.737  14.965   9.138  0.00  0.00     0.088 C 
HETATM   16  C   UNK N   1      36.462  14.839  10.428  0.00  0.00     0.153 C 
HETATM   17  C   UNK N   1      35.352  14.218  11.265  0.00  0.00     0.176 C 
HETATM   18  O   UNK N   1      34.126  14.812  10.870  0.00  0.00    -0.356 OA
BRANCH  16  19
HETATM   19  O   UNK N   1      36.796  16.120  10.888  0.00  0.00    -0.393 OA
HETATM   20  H   UNK N   1      36.834  16.862  11.512  0.00  0.00     0.210 HD
ENDBRANCH  16  19
BRANCH  17  21
HETATM   21  C   UNK N   1      35.619  14.400  12.755  0.00  0.00     0.198 C 
BRANCH  21  22
HETATM   22  O   UNK N   1      36.945  14.089  13.055  0.00  0.00    -0.398 OA
HETATM   23  H   UNK N   1      37.166  13.672  13.902  0.00  0.00     0.209 HD
ENDBRANCH  21  22
ENDBRANCH  17  21
ENDBRANCH  13  14
BRANCH   3  24
HETATM   24  N   UNK N   1      29.579  15.813   6.022  0.00  0.00    -0.383 N 
HETATM   25  H   UNK N   1      28.608  15.722   6.154  0.00  0.00     0.157 HD
HETATM   26  H   UNK N   1      29.968  15.546   5.158  0.00  0.00     0.157 HD
ENDBRANCH   3  24
TORSDOF 5
ENDMDL
MODEL 4
REMARK VINA RESULT:      -5.8      8.724     11.270
REMARK  5 active torsions:
REMARK  status: ('A' for Active; 'I' for Inactive)
REMARK    1  A    between atoms: C_5  and  C_2 
REMARK    2  A    between atoms: O_20  and  C_2 
REMARK    3  A    between atoms: C_4  and  O_21 
REMARK    4  A    between atoms: C_6  and  N_19 
REMARK    5  A    between atoms: N_12  and  C_8 
ROOT
HETATM    1  C   UNK N   1      31.855  17.196   5.829  0.00  0.00     0.188 A 
HETATM    2  C   UNK N   1      29.742  17.441   6.081  0.00  0.00     0.122 A 
HETATM    3  C   UNK N   1      28.368  17.618   5.973  0.00  0.00     0.133 A 
HETATM    4  C   UNK N   1      30.301  17.308   7.297  0.00  0.00     0.144 A 
HETATM    5  C   UNK N   1      28.236  17.534   8.355  0.00  0.00     0.269 A 
HETATM    6  F   UNK N   1      27.492  17.597   9.485  0.00  0.00    -0.165 F 
HETATM    7  N   UNK N   1      30.693  17.372   5.131  0.00  0.00    -0.346 N 
ATOM      8  HN  UNK N   1      30.573  17.437   4.120  1.00  0.00     0.167 HD
HETATM    9  N   UNK N   1      27.634  17.665   7.126  0.00  0.00    -0.303 N 
ATOM     10  HN  UNK N   1      26.624  17.799   7.074  1.00  0.00     0.171 HD
HETATM   11  N   UNK N   1      29.587  17.346   8.445  0.00  0.00    -0.302 N 
ATOM     12  HN  UNK N   1      30.044  17.239   9.350  1.00  0.00     0.171 HD
HETATM   13  N   UNK N   1      31.623  17.153   7.166  0.00  0.00    -0.300 N 
ENDROOT
BRANCH  13  14
HETATM   14  C   UNK N   1      32.565  16.953   8.267  0.00  0.00     0.233 C 
HETATM   15  C   UNK N   1      33.983  17.286   7.828  0.00  0.00     0.088 C 
HETATM   16  C   UNK N   1      34.743  16.579   8.892  0.00  0.00     0.153 C 
HETATM   17  C   UNK N   1      33.934  15.291   8.945  0.00  0.00     0.176 C 
HETATM   18  O   UNK N   1      32.568  15.626   8.757  0.00  0.00    -0.356 OA
BRANCH  16  19
HETATM   19  O   UNK N   1      34.632  17.305  10.086  0.00  0.00    -0.393 OA
HETATM   20  H   UNK N   1      34.770  18.049  10.694  0.00  0.00     0.210 HD
ENDBRANCH  16  19
BRANCH  17  21
HETATM   21  C   UNK N   1      34.162  14.552  10.259  0.00  0.00     0.198 C 
BRANCH  21  22
HETATM   22  O   UNK N   1      33.243  14.971  11.220  0.00  0.00    -0.398 OA
HETATM   23  H   UNK N   1      32.494  14.402  11.457  0.00  0.00     0.209 HD
ENDBRANCH  21  22
ENDBRANCH  17  21
ENDBRANCH  13  14
BRANCH   3  24
HETATM   24  N   UNK N   1      27.742  17.753   4.717  0.00  0.00    -0.383 N 
HETATM   25  H   UNK N   1      26.787  17.968   4.626  0.00  0.00     0.157 HD
HETATM   26  H   UNK N   1      28.281  17.626   3.903  0.00  0.00     0.157 HD
ENDBRANCH   3  24
TORSDOF 5
ENDMDL
MODEL 5
REMARK VINA RESULT:      -5.7     10.615     13.051
REMARK  5 active torsions:
REMARK  status: ('A' for Active; 'I' for Inactive)
REMARK    1  A    between atoms: C_5  and  C_2 
REMARK    2  A    between atoms: O_20  and  C_2 
REMARK    3  A    between atoms: C_4  and  O_21 
REMARK    4  A    between atoms: C_6  and  N_19 
REMARK    5  A    between atoms: N_12  and  C_8 
ROOT
HETATM    1  C   UNK N   1      29.941  17.571   5.007  0.00  0.00     0.188 A 
HETATM    2  C   UNK N   1      30.781  16.880   6.854  0.00  0.00     0.122 A 
HETATM    3  C   UNK N   1      31.517  16.322   7.891  0.00  0.00     0.133 A 
HETATM    4  C   UNK N   1      29.654  17.559   7.129  0.00  0.00     0.144 A 
HETATM    5  C   UNK N   1      29.889  17.172   9.416  0.00  0.00     0.269 A 
HETATM    6  F   UNK N   1      29.435  17.302  10.686  0.00  0.00    -0.165 F 
HETATM    7  N   UNK N   1      30.995  16.869   5.524  0.00  0.00    -0.346 N 
ATOM      8  HN  UNK N   1      31.767  16.436   5.018  1.00  0.00     0.167 HD
HETATM    9  N   UNK N   1      31.049  16.478   9.167  0.00  0.00    -0.303 N 
ATOM     10  HN  UNK N   1      31.569  16.073   9.945  1.00  0.00     0.171 HD
HETATM   11  N   UNK N   1      29.183  17.727   8.385  0.00  0.00    -0.302 N 
ATOM     12  HN  UNK N   1      28.325  18.251   8.558  1.00  0.00     0.171 HD
HETATM   13  N   UNK N   1      29.110  18.003   5.991  0.00  0.00    -0.300 N 
ENDROOT
BRANCH  13  14
HETATM   14  C   UNK N   1      27.890  18.804   5.890  0.00  0.00     0.233 C 
HETATM   15  C   UNK N   1      27.794  19.469   4.526  0.00  0.00     0.088 C 
HETATM   16  C   UNK N   1      26.804  20.532   4.839  0.00  0.00     0.153 C 
HETATM   17  C   UNK N   1      27.351  20.976   6.188  0.00  0.00     0.176 C 
HETATM   18  O   UNK N   1      27.817  19.823   6.870  0.00  0.00    -0.356 OA
BRANCH  16  19
HETATM   19  O   UNK N   1      25.537  19.948   4.966  0.00  0.00    -0.393 OA
HETATM   20  H   UNK N   1      24.850  19.272   4.848  0.00  0.00     0.210 HD
ENDBRANCH  16  19
BRANCH  17  21
HETATM   21  C   UNK N   1      26.293  21.724   6.992  0.00  0.00     0.198 C 
BRANCH  21  22
HETATM   22  O   UNK N   1      25.837  20.936   8.048  0.00  0.00    -0.398 OA
HETATM   23  H   UNK N   1      24.915  20.636   8.067  0.00  0.00     0.209 HD
ENDBRANCH  21  22
ENDBRANCH  17  21
ENDBRANCH  13  14
BRANCH   3  24
HETATM   24  N   UNK N   1      32.708  15.610   7.645  0.00  0.00    -0.383 N 
HETATM   25  H   UNK N   1      33.544  15.799   8.129  0.00  0.00     0.157 HD
HETATM   26  H   UNK N   1      32.703  14.898   6.966  0.00  0.00     0.157 HD
ENDBRANCH   3  24
TORSDOF 5
ENDMDL
MODEL 6
REMARK VINA RESULT:      -5.7     10.281     12.477
REMARK  5 active torsions:
REMARK  status: ('A' for Active; 'I' for Inactive)
REMARK    1  A    between atoms: C_5  and  C_2 
REMARK    2  A    between atoms: O_20  and  C_2 
REMARK    3  A    between atoms: C_4  and  O_21 
REMARK    4  A    between atoms: C_6  and  N_19 
REMARK    5  A    between atoms: N_12  and  C_8 
ROOT
HETATM    1  C   UNK N   1      28.718  18.461   9.045  0.00  0.00     0.188 A 
HETATM    2  C   UNK N   1      27.941  18.716   7.064  0.00  0.00     0.122 A 
HETATM    3  C   UNK N   1      27.243  19.025   5.904  0.00  0.00     0.133 A 
HETATM    4  C   UNK N   1      29.047  17.955   6.990  0.00  0.00     0.144 A 
HETATM    5  C   UNK N   1      28.839  17.741   4.678  0.00  0.00     0.269 A 
HETATM    6  F   UNK N   1      29.276  17.243   3.497  0.00  0.00    -0.165 F 
HETATM    7  N   UNK N   1      27.705  19.056   8.345  0.00  0.00    -0.346 N 
ATOM      8  HN  UNK N   1      26.943  19.627   8.710  1.00  0.00     0.167 HD
HETATM    9  N   UNK N   1      27.709  18.523   4.720  0.00  0.00    -0.303 N 
ATOM     10  HN  UNK N   1      27.211  18.732   3.855  1.00  0.00     0.171 HD
HETATM   11  N   UNK N   1      29.523  17.457   5.827  0.00  0.00    -0.302 N 
ATOM     12  HN  UNK N   1      30.368  16.885   5.808  1.00  0.00     0.171 HD
HETATM   13  N   UNK N   1      29.553  17.782   8.217  0.00  0.00    -0.300 N 
ENDROOT
BRANCH  13  14
HETATM   14  C   UNK N   1      30.768  17.032   8.534  0.00  0.00     0.233 C 
HETATM   15  C   UNK N   1      31.993  17.929   8.440  0.00  0.00     0.088 C 
HETATM   16  C   UNK N   1      33.051  16.891   8.328  0.00  0.00     0.153 C 
HETATM   17  C   UNK N   1      32.359  15.952   7.350  0.00  0.00     0.176 C 
HETATM   18  O   UNK N   1      30.977  15.930   7.672  0.00  0.00    -0.356 OA
BRANCH  16  19
HETATM   19  O   UNK N   1      33.229  16.288   9.581  0.00  0.00    -0.393 OA
HETATM   20  H   UNK N   1      33.352  15.561  10.212  0.00  0.00     0.210 HD
ENDBRANCH  16  19
BRANCH  17  21
HETATM   21  C   UNK N   1      32.976  14.558   7.396  0.00  0.00     0.198 C 
BRANCH  21  22
HETATM   22  O   UNK N   1      32.335  13.772   8.354  0.00  0.00    -0.398 OA
HETATM   23  H   UNK N   1      31.519  13.299   8.127  0.00  0.00     0.209 HD
ENDBRANCH  21  22
ENDBRANCH  17  21
ENDBRANCH  13  14
BRANCH   3  24
HETATM   24  N   UNK N   1      26.083  19.826   5.937  0.00  0.00    -0.383 N 
HETATM   25  H   UNK N   1      25.330  19.687   5.320  0.00  0.00     0.157 HD
HETATM   26  H   UNK N   1      26.027  20.551   6.601  0.00  0.00     0.157 HD
ENDBRANCH   3  24
TORSDOF 5
ENDMDL
MODEL 7
REMARK VINA RESULT:      -5.5      9.497     12.037
REMARK  5 active torsions:
REMARK  status: ('A' for Active; 'I' for Inactive)
REMARK    1  A    between atoms: C_5  and  C_2 
REMARK    2  A    between atoms: O_20  and  C_2 
REMARK    3  A    between atoms: C_4  and  O_21 
REMARK    4  A    between atoms: C_6  and  N_19 
REMARK    5  A    between atoms: N_12  and  C_8 
ROOT
HETATM    1  C   UNK N   1      29.963  17.316   7.698  0.00  0.00     0.188 A 
HETATM    2  C   UNK N   1      30.046  17.331   5.557  0.00  0.00     0.122 A 
HETATM    3  C   UNK N   1      29.833  17.394   4.186  0.00  0.00     0.133 A 
HETATM    4  C   UNK N   1      31.276  17.058   6.027  0.00  0.00     0.144 A 
HETATM    5  C   UNK N   1      32.142  16.873   3.870  0.00  0.00     0.269 A 
HETATM    6  F   UNK N   1      33.179  16.629   3.034  0.00  0.00    -0.165 F 
HETATM    7  N   UNK N   1      29.192  17.502   6.584  0.00  0.00    -0.346 N 
ATOM      8  HN  UNK N   1      28.197  17.721   6.540  1.00  0.00     0.167 HD
HETATM    9  N   UNK N   1      30.898  17.158   3.359  0.00  0.00    -0.303 N 
ATOM     10  HN  UNK N   1      30.766  17.193   2.349  1.00  0.00     0.171 HD
HETATM   11  N   UNK N   1      32.338  16.828   5.222  0.00  0.00    -0.302 N 
ATOM     12  HN  UNK N   1      33.258  16.627   5.613  1.00  0.00     0.171 HD
HETATM   13  N   UNK N   1      31.250  17.043   7.364  0.00  0.00    -0.300 N 
ENDROOT
BRANCH  13  14
HETATM   14  C   UNK N   1      32.405  16.807   8.231  0.00  0.00     0.233 C 
HETATM   15  C   UNK N   1      33.312  18.028   8.263  0.00  0.00     0.088 C 
HETATM   16  C   UNK N   1      34.557  17.396   8.772  0.00  0.00     0.153 C 
HETATM   17  C   UNK N   1      34.537  16.123   7.937  0.00  0.00     0.176 C 
HETATM   18  O   UNK N   1      33.187  15.702   7.819  0.00  0.00    -0.356 OA
BRANCH  16  19
HETATM   19  O   UNK N   1      34.398  17.118  10.137  0.00  0.00    -0.393 OA
HETATM   20  H   UNK N   1      33.920  16.990  10.972  0.00  0.00     0.210 HD
ENDBRANCH  16  19
BRANCH  17  21
HETATM   21  C   UNK N   1      35.417  15.044   8.558  0.00  0.00     0.198 C 
BRANCH  21  22
HETATM   22  O   UNK N   1      34.690  14.293   9.480  0.00  0.00    -0.398 OA
HETATM   23  H   UNK N   1      33.737  14.441   9.584  0.00  0.00     0.209 HD
ENDBRANCH  21  22
ENDBRANCH  17  21
ENDBRANCH  13  14
BRANCH   3  24
HETATM   24  N   UNK N   1      28.561  17.685   3.653  0.00  0.00    -0.383 N 
HETATM   25  H   UNK N   1      28.418  17.852   2.694  0.00  0.00     0.157 HD
HETATM   26  H   UNK N   1      27.789  17.722   4.263  0.00  0.00     0.157 HD
ENDBRANCH   3  24
TORSDOF 5
ENDMDL
MODEL 8
REMARK VINA RESULT:      -5.4      6.086      8.529
REMARK  5 active torsions:
REMARK  status: ('A' for Active; 'I' for Inactive)
REMARK    1  A    between atoms: C_5  and  C_2 
REMARK    2  A    between atoms: O_20  and  C_2 
REMARK    3  A    between atoms: C_4  and  O_21 
REMARK    4  A    between atoms: C_6  and  N_19 
REMARK    5  A    between atoms: N_12  and  C_8 
ROOT
HETATM    1  C   UNK N   1      33.100  13.824   9.134  0.00  0.00     0.188 A 
HETATM    2  C   UNK N   1      32.768  15.691   8.135  0.00  0.00     0.122 A 
HETATM    3  C   UNK N   1      32.345  16.771   7.371  0.00  0.00     0.133 A 
HETATM    4  C   UNK N   1      33.846  15.820   8.927  0.00  0.00     0.144 A 
HETATM    5  C   UNK N   1      34.165  18.032   8.262  0.00  0.00     0.269 A 
HETATM    6  F   UNK N   1      34.869  19.187   8.312  0.00  0.00    -0.165 F 
HETATM    7  N   UNK N   1      32.269  14.445   8.241  0.00  0.00    -0.346 N 
ATOM      8  HN  UNK N   1      31.458  14.053   7.765  1.00  0.00     0.167 HD
HETATM    9  N   UNK N   1      33.062  17.933   7.448  0.00  0.00    -0.303 N 
ATOM     10  HN  UNK N   1      32.774  18.738   6.892  1.00  0.00     0.171 HD
HETATM   11  N   UNK N   1      34.561  16.964   9.018  0.00  0.00    -0.302 N 
ATOM     12  HN  UNK N   1      35.373  17.028   9.633  1.00  0.00     0.171 HD
HETATM   13  N   UNK N   1      34.074  14.666   9.564  0.00  0.00    -0.300 N 
ENDROOT
BRANCH  13  14
HETATM   14  C   UNK N   1      35.146  14.429  10.531  0.00  0.00     0.233 C 
HETATM   15  C   UNK N   1      35.763  13.054  10.325  0.00  0.00     0.088 C 
HETATM   16  C   UNK N   1      36.428  12.882  11.642  0.00  0.00     0.153 C 
HETATM   17  C   UNK N   1      35.319  13.412  12.539  0.00  0.00     0.176 C 
HETATM   18  O   UNK N   1      34.704  14.504  11.873  0.00  0.00    -0.356 OA
BRANCH  16  19
HETATM   19  O   UNK N   1      37.562  13.704  11.688  0.00  0.00    -0.393 OA
HETATM   20  H   UNK N   1      38.169  14.369  12.052  0.00  0.00     0.210 HD
ENDBRANCH  16  19
BRANCH  17  21
HETATM   21  C   UNK N   1      35.861  13.813  13.907  0.00  0.00     0.198 C 
BRANCH  21  22
HETATM   22  O   UNK N   1      36.966  13.031  14.241  0.00  0.00    -0.398 OA
HETATM   23  H   UNK N   1      37.756  13.444  14.624  0.00  0.00     0.209 HD
ENDBRANCH  21  22
ENDBRANCH  17  21
ENDBRANCH  13  14
BRANCH   3  24
HETATM   24  N   UNK N   1      31.215  16.679   6.533  0.00  0.00    -0.383 N 
HETATM   25  H   UNK N   1      30.716  17.472   6.233  0.00  0.00     0.157 HD
HETATM   26  H   UNK N   1      30.914  15.789   6.239  0.00  0.00     0.157 HD
ENDBRANCH   3  24
TORSDOF 5
ENDMDL
MODEL 9
REMARK VINA RESULT:      -5.3     10.103     11.449
REMARK  5 active torsions:
REMARK  status: ('A' for Active; 'I' for Inactive)
REMARK    1  A    between atoms: C_5  and  C_2 
REMARK    2  A    between atoms: O_20  and  C_2 
REMARK    3  A    between atoms: C_4  and  O_21 
REMARK    4  A    between atoms: C_6  and  N_19 
REMARK    5  A    between atoms: N_12  and  C_8 
ROOT
HETATM    1  C   UNK N   1      30.161  15.527   5.149  0.00  0.00     0.188 A 
HETATM    2  C   UNK N   1      28.609  16.331   6.387  0.00  0.00     0.122 A 
HETATM    3  C   UNK N   1      27.435  16.721   7.020  0.00  0.00     0.133 A 
HETATM    4  C   UNK N   1      29.792  16.760   6.860  0.00  0.00     0.144 A 
HETATM    5  C   UNK N   1      28.760  17.976   8.560  0.00  0.00     0.269 A 
HETATM    6  F   UNK N   1      28.835  18.807   9.627  0.00  0.00    -0.165 F 
HETATM    7  N   UNK N   1      28.803  15.549   5.309  0.00  0.00    -0.346 N 
ATOM      8  HN  UNK N   1      28.098  15.079   4.742  1.00  0.00     0.167 HD
HETATM    9  N   UNK N   1      27.535  17.549   8.105  0.00  0.00    -0.303 N 
ATOM     10  HN  UNK N   1      26.687  17.853   8.583  1.00  0.00     0.171 HD
HETATM   11  N   UNK N   1      29.906  17.573   7.934  0.00  0.00    -0.302 N 
ATOM     12  HN  UNK N   1      30.821  17.877   8.267  1.00  0.00     0.171 HD
HETATM   13  N   UNK N   1      30.780  16.270   6.102  0.00  0.00    -0.300 N 
ENDROOT
BRANCH  13  14
HETATM   14  C   UNK N   1      32.208  16.496   6.322  0.00  0.00     0.233 C 
HETATM   15  C   UNK N   1      32.950  15.174   6.446  0.00  0.00     0.088 C 
HETATM   16  C   UNK N   1      34.192  15.650   7.107  0.00  0.00     0.153 C 
HETATM   17  C   UNK N   1      33.573  16.606   8.117  0.00  0.00     0.176 C 
HETATM   18  O   UNK N   1      32.474  17.249   7.490  0.00  0.00    -0.356 OA
BRANCH  16  19
HETATM   19  O   UNK N   1      34.974  16.333   6.166  0.00  0.00    -0.393 OA
HETATM   20  H   UNK N   1      35.189  17.019   5.513  0.00  0.00     0.210 HD
ENDBRANCH  16  19
BRANCH  17  21
HETATM   21  C   UNK N   1      34.602  17.608   8.629  0.00  0.00     0.198 C 
BRANCH  21  22
HETATM   22  O   UNK N   1      34.805  18.620   7.691  0.00  0.00    -0.398 OA
HETATM   23  H   UNK N   1      34.054  18.978   7.192  0.00  0.00     0.209 HD
ENDBRANCH  21  22
ENDBRANCH  17  21
ENDBRANCH  13  14
BRANCH   3  24
HETATM   24  N   UNK N   1      26.175  16.288   6.561  0.00  0.00    -0.383 N 
HETATM   25  H   UNK N   1      25.726  15.493   6.929  0.00  0.00     0.157 HD
HETATM   26  H   UNK N   1      25.729  16.798   5.847  0.00  0.00     0.157 HD
ENDBRANCH   3  24
TORSDOF 5
ENDMDL
