REMARK  13 active torsions:
REMARK  status: ('A' for Active; 'I' for Inactive)
REMARK    1  A    between atoms: C_24  and  C_17 
REMARK    2  A    between atoms: C_28  and  C_17 
REMARK    3  A    between atoms: C_25  and  C_20 
REMARK    4  A    between atoms: N_35  and  C_20 
REMARK    5  A    between atoms: C_26  and  C_21 
REMARK    6  A    between atoms: N_36  and  C_21 
REMARK    7  A    between atoms: C_27  and  C_22 
REMARK    8  A    between atoms: N_37  and  C_22 
REMARK    9  A    between atoms: O_38  and  C_29 
REMARK   10  A    between atoms: O_39  and  C_30 
REMARK   11  A    between atoms: C_31  and  O_40 
REMARK   12  A    between atoms: O_42  and  C_32 
REMARK   13  A    between atoms: O_43  and  C_33 
ROOT
HETATM    1  C   UNK N   1      -1.869  -1.368  -0.655  0.00  0.00     0.176 C 
HETATM    2  C   UNK N   1       0.495  -1.267   0.525  0.00  0.00     0.123 C 
HETATM    3  C   UNK N   1      -0.715  -2.126  -0.031  0.00  0.00     0.161 C 
HETATM    4  C   UNK N   1       0.057   0.878  -0.828  0.00  0.00     0.340 C 
HETATM    5  N   UNK N   1      -1.975  -0.102   0.001  0.00  0.00    -0.315 N 
HETATM    6  N   UNK N   1       0.866   0.004  -0.154  0.00  0.00    -0.321 N 
HETATM    7  N   UNK N   1      -1.305   0.911  -0.692  0.00  0.00    -0.240 N 
HETATM    8  O   UNK N   1       0.599   1.809  -1.433  0.00  0.00    -0.245 OA
ENDROOT
BRANCH   6   9
HETATM    9  C   UNK N   1       2.002   0.707   0.430  0.00  0.00     0.166 C 
BRANCH   9  10
HETATM   10  C   UNK N   1       3.324   0.354  -0.092  0.00  0.00    -0.037 A 
HETATM   11  C   UNK N   1       3.481  -0.447  -1.220  0.00  0.00     0.012 A 
HETATM   12  C   UNK N   1       4.750  -0.887  -1.572  0.00  0.00     0.040 A 
HETATM   13  C   UNK N   1       5.861  -0.528  -0.801  0.00  0.00     0.099 A 
HETATM   14  C   UNK N   1       5.700   0.324   0.324  0.00  0.00     0.101 A 
HETATM   15  C   UNK N   1       4.422   0.749   0.660  0.00  0.00     0.048 A 
BRANCH  13  16
HETATM   16  O   UNK N   1       7.062  -1.013  -1.144  0.00  0.00    -0.358 OA
HETATM   17  H   UNK N   1       7.189  -1.909  -1.385  0.00  0.00     0.217 HD
ENDBRANCH  13  16
BRANCH  14  18
HETATM   18  O   UNK N   1       6.722   0.737   1.115  0.00  0.00    -0.353 OA
HETATM   19  C   UNK N   1       8.044   0.412   0.933  0.00  0.00     0.210 C 
ENDBRANCH  14  18
ENDBRANCH   9  10
ENDBRANCH   6   9
BRANCH   2  20
HETATM   20  C   UNK N   1       1.818  -2.092   0.651  0.00  0.00     0.066 C 
BRANCH  20  21
HETATM   21  C   UNK N   1       1.894  -3.573   0.486  0.00  0.00    -0.056 A 
HETATM   22  C   UNK N   1       2.480  -4.113  -0.670  0.00  0.00     0.007 A 
HETATM   23  C   UNK N   1       2.592  -5.499  -0.818  0.00  0.00     0.001 A 
HETATM   24  C   UNK N   1       2.138  -6.344   0.198  0.00  0.00     0.000 A 
HETATM   25  C   UNK N   1       1.572  -5.804   1.358  0.00  0.00     0.001 A 
HETATM   26  C   UNK N   1       1.450  -4.419   1.502  0.00  0.00     0.007 A 
ENDBRANCH  20  21
ENDBRANCH   2  20
BRANCH   3  27
HETATM   27  O   UNK N   1      -0.328  -3.088  -0.961  0.00  0.00    -0.392 OA
HETATM   28  H   UNK N   1      -0.774  -3.656  -1.608  0.00  0.00     0.210 HD
ENDBRANCH   3  27
BRANCH   7  29
HETATM   29  C   UNK N   1      -1.979   2.148  -1.063  0.00  0.00     0.192 C 
BRANCH  29  30
HETATM   30  C   UNK N   1      -1.435   3.334  -0.276  0.00  0.00    -0.035 A 
HETATM   31  C   UNK N   1      -0.502   3.153   0.763  0.00  0.00     0.012 A 
HETATM   32  C   UNK N   1       0.123   4.237   1.366  0.00  0.00     0.040 A 
HETATM   33  C   UNK N   1      -0.191   5.530   0.959  0.00  0.00     0.099 A 
HETATM   34  C   UNK N   1      -1.160   5.740  -0.037  0.00  0.00     0.101 A 
HETATM   35  C   UNK N   1      -1.770   4.632  -0.661  0.00  0.00     0.048 A 
BRANCH  33  36
HETATM   36  O   UNK N   1       0.432   6.572   1.534  0.00  0.00    -0.358 OA
HETATM   37  H   UNK N   1       1.279   6.558   1.935  0.00  0.00     0.217 HD
ENDBRANCH  33  36
BRANCH  34  38
HETATM   38  O   UNK N   1      -1.484   7.008  -0.383  0.00  0.00    -0.353 OA
HETATM   39  C   UNK N   1      -2.489   7.309  -1.273  0.00  0.00     0.210 C 
ENDBRANCH  34  38
ENDBRANCH  29  30
ENDBRANCH   7  29
BRANCH   5  40
HETATM   40  C   UNK N   1      -3.147   0.147   0.856  0.00  0.00     0.181 C 
BRANCH  40  41
HETATM   41  C   UNK N   1      -4.313   0.942   0.328  0.00  0.00    -0.039 A 
HETATM   42  C   UNK N   1      -5.148   1.529   1.282  0.00  0.00     0.009 A 
HETATM   43  C   UNK N   1      -6.191   2.372   0.896  0.00  0.00     0.001 A 
HETATM   44  C   UNK N   1      -6.397   2.648  -0.456  0.00  0.00     0.000 A 
HETATM   45  C   UNK N   1      -5.589   2.043  -1.424  0.00  0.00     0.001 A 
HETATM   46  C   UNK N   1      -4.559   1.178  -1.035  0.00  0.00     0.009 A 
ENDBRANCH  40  41
ENDBRANCH   5  40
TORSDOF 13
