MODEL 1
REMARK VINA RESULT:      -6.3      0.000      0.000
REMARK  16 active torsions:
REMARK  status: ('A' for Active; 'I' for Inactive)
REMARK    1  A    between atoms: C_3  and  C_2 
REMARK    2  A    between atoms: C_8  and  C_2 
REMARK    3  A    between atoms: C_15  and  C_3 
REMARK    4  A    between atoms: N_18  and  C_8 
REMARK    5  A    between atoms: C_16  and  C_9 
REMARK    6  A    between atoms: N_19  and  C_9 
REMARK    7  A    between atoms: C_12  and  C_10 
REMARK    8  A    between atoms: S_28  and  C_10 
REMARK    9  A    between atoms: C_14  and  C_11 
REMARK   10  A    between atoms: S_28  and  C_11 
REMARK   11  A    between atoms: O_27  and  C_13 
REMARK   12  A    between atoms: C_17  and  C_14 
REMARK   13  A    between atoms: C_14  and  N_21 
REMARK   14  A    between atoms: C_15  and  O_23 
REMARK   15  A    between atoms: O_25  and  C_16 
REMARK   16  A    between atoms: O_26  and  C_17 
ROOT
HETATM    1  C   UNK N   1      20.213  16.513   7.840  0.00  0.00     0.167 C 
ENDROOT
BRANCH   1   2
HETATM    2  C   UNK N   1      20.460  15.031   8.140  0.00  0.00     0.107 C 
BRANCH   2   3
HETATM    3  S   UNK N   1      21.820  14.267   7.181  0.00  0.00    -0.162 SA
BRANCH   3   4
HETATM    4  C   UNK N   1      21.731  12.546   7.826  0.00  0.00     0.112 C 
BRANCH   4   5
HETATM    5  C   UNK N   1      22.374  12.299   9.158  0.00  0.00    -0.049 A 
HETATM    6  C   UNK N   1      23.767  12.236   9.269  0.00  0.00     0.011 A 
HETATM    7  C   UNK N   1      24.368  12.106  10.529  0.00  0.00     0.037 A 
HETATM    8  C   UNK N   1      23.581  12.058  11.688  0.00  0.00     0.068 A 
HETATM    9  C   UNK N   1      22.185  12.131  11.571  0.00  0.00     0.037 A 
HETATM   10  C   UNK N   1      21.593  12.258  10.316  0.00  0.00     0.011 A 
BRANCH   8  11
HETATM   11  O   UNK N   1      24.184  11.948  12.896  0.00  0.00    -0.356 OA
HETATM   12  C   UNK N   1      23.587  12.342  14.074  0.00  0.00     0.210 C 
ENDBRANCH   8  11
ENDBRANCH   4   5
ENDBRANCH   3   4
ENDBRANCH   2   3
ENDBRANCH   1   2
BRANCH   1  13
HETATM   13  C   UNK N   1      18.882  16.931   8.433  0.00  0.00     0.136 C 
HETATM   14  N   UNK N   1      18.839  17.733   9.440  0.00  0.00    -0.363 N 
ATOM     15  HN  UNK N   1      19.714  18.095   9.818  1.00  0.00     0.161 HD
BRANCH  14  16
HETATM   16  C   UNK N   1      17.597  18.134  10.050  0.00  0.00     0.231 C 
BRANCH  16  17
HETATM   17  C   UNK N   1      17.874  19.007  11.227  0.00  0.00     0.158 C 
HETATM   18  O   UNK N   1      17.062  19.085  12.134  0.00  0.00    -0.649 OA
BRANCH  17  19
HETATM   19  O   UNK N   1      19.012  19.722  11.280  0.00  0.00    -0.775 OA
HETATM   20  H   UNK N   1      19.750  19.951  11.810  0.00  0.00     0.167 HD
ENDBRANCH  17  19
ENDBRANCH  16  17
ENDBRANCH  14  16
BRANCH  13  21
HETATM   21  O   UNK N   1      17.739  16.432   7.915  0.00  0.00    -0.348 OA
HETATM   22  H   UNK N   1      17.185  16.914   7.334  0.00  0.00     0.219 HD
ENDBRANCH  13  21
ENDBRANCH   1  13
BRANCH   1  23
HETATM   23  N   UNK N   1      20.314  16.835   6.422  0.00  0.00    -0.362 N 
HETATM   24  C   UNK N   1      21.102  17.733   5.926  0.00  0.00     0.111 C 
ATOM     25  HN  UNK N   1      19.721  16.317   5.773  1.00  0.00     0.162 HD
BRANCH  24  26
HETATM   26  C   UNK N   1      21.217  17.878   4.444  0.00  0.00     0.085 C 
BRANCH  26  27
HETATM   27  C   UNK N   1      19.946  17.462   3.736  0.00  0.00     0.027 C 
BRANCH  27  28
HETATM   28  C   UNK N   1      20.288  16.371   2.742  0.00  0.00     0.111 C 
BRANCH  28  29
HETATM   29  N   UNK N   1      19.390  15.247   2.924  0.00  0.00    -0.430 N 
HETATM   30  H   UNK N   1      18.633  15.303   3.607  0.00  0.00     0.149 HD
HETATM   31  H   UNK N   1      19.514  14.400   2.370  0.00  0.00     0.149 HD
ENDBRANCH  28  29
ENDBRANCH  27  28
ENDBRANCH  26  27
ENDBRANCH  24  26
BRANCH  24  32
HETATM   32  O   UNK N   1      21.892  18.482   6.723  0.00  0.00    -0.350 OA
HETATM   33  H   UNK N   1      22.122  19.287   7.145  0.00  0.00     0.219 HD
ENDBRANCH  24  32
ENDBRANCH   1  23
TORSDOF 16
ENDMDL
MODEL 2
REMARK VINA RESULT:      -6.2      3.981      5.827
REMARK  16 active torsions:
REMARK  status: ('A' for Active; 'I' for Inactive)
REMARK    1  A    between atoms: C_3  and  C_2 
REMARK    2  A    between atoms: C_8  and  C_2 
REMARK    3  A    between atoms: C_15  and  C_3 
REMARK    4  A    between atoms: N_18  and  C_8 
REMARK    5  A    between atoms: C_16  and  C_9 
REMARK    6  A    between atoms: N_19  and  C_9 
REMARK    7  A    between atoms: C_12  and  C_10 
REMARK    8  A    between atoms: S_28  and  C_10 
REMARK    9  A    between atoms: C_14  and  C_11 
REMARK   10  A    between atoms: S_28  and  C_11 
REMARK   11  A    between atoms: O_27  and  C_13 
REMARK   12  A    between atoms: C_17  and  C_14 
REMARK   13  A    between atoms: C_14  and  N_21 
REMARK   14  A    between atoms: C_15  and  O_23 
REMARK   15  A    between atoms: O_25  and  C_16 
REMARK   16  A    between atoms: O_26  and  C_17 
ROOT
HETATM    1  C   UNK N   1      20.253  16.574   3.194  0.00  0.00     0.167 C 
ENDROOT
BRANCH   1   2
HETATM    2  C   UNK N   1      20.059  16.702   4.708  0.00  0.00     0.107 C 
BRANCH   2   3
HETATM    3  S   UNK N   1      21.261  15.762   5.721  0.00  0.00    -0.162 SA
BRANCH   3   4
HETATM    4  C   UNK N   1      20.164  15.237   7.102  0.00  0.00     0.112 C 
BRANCH   4   5
HETATM    5  C   UNK N   1      20.718  14.202   8.036  0.00  0.00    -0.049 A 
HETATM    6  C   UNK N   1      21.672  13.282   7.587  0.00  0.00     0.011 A 
HETATM    7  C   UNK N   1      22.261  12.383   8.487  0.00  0.00     0.037 A 
HETATM    8  C   UNK N   1      21.915  12.410   9.845  0.00  0.00     0.068 A 
HETATM    9  C   UNK N   1      20.965  13.341  10.291  0.00  0.00     0.037 A 
HETATM   10  C   UNK N   1      20.381  14.231   9.392  0.00  0.00     0.011 A 
BRANCH   8  11
HETATM   11  O   UNK N   1      22.509  11.542  10.698  0.00  0.00    -0.356 OA
HETATM   12  C   UNK N   1      23.575  11.886  11.501  0.00  0.00     0.210 C 
ENDBRANCH   8  11
ENDBRANCH   4   5
ENDBRANCH   3   4
ENDBRANCH   2   3
ENDBRANCH   1   2
BRANCH   1  13
HETATM   13  C   UNK N   1      19.964  17.908   2.535  0.00  0.00     0.136 C 
HETATM   14  N   UNK N   1      20.541  18.982   2.952  0.00  0.00    -0.363 N 
ATOM     15  HN  UNK N   1      21.208  18.914   3.720  1.00  0.00     0.161 HD
BRANCH  14  16
HETATM   16  C   UNK N   1      20.274  20.273   2.372  0.00  0.00     0.231 C 
BRANCH  16  17
HETATM   17  C   UNK N   1      21.072  20.440   1.125  0.00  0.00     0.158 C 
HETATM   18  O   UNK N   1      22.282  20.589   1.189  0.00  0.00    -0.649 OA
BRANCH  17  19
HETATM   19  O   UNK N   1      20.457  20.442  -0.071  0.00  0.00    -0.775 OA
HETATM   20  H   UNK N   1      20.139  19.906  -0.771  0.00  0.00     0.167 HD
ENDBRANCH  17  19
ENDBRANCH  16  17
ENDBRANCH  14  16
BRANCH  13  21
HETATM   21  O   UNK N   1      19.071  17.969   1.523  0.00  0.00    -0.348 OA
HETATM   22  H   UNK N   1      19.258  18.366   0.696  0.00  0.00     0.219 HD
ENDBRANCH  13  21
ENDBRANCH   1  13
BRANCH   1  23
HETATM   23  N   UNK N   1      19.481  15.486   2.606  0.00  0.00    -0.362 N 
HETATM   24  C   UNK N   1      19.966  14.333   2.280  0.00  0.00     0.111 C 
ATOM     25  HN  UNK N   1      18.487  15.645   2.440  1.00  0.00     0.162 HD
BRANCH  24  26
HETATM   26  C   UNK N   1      19.049  13.251   1.813  0.00  0.00     0.085 C 
BRANCH  26  27
HETATM   27  C   UNK N   1      18.888  13.258   0.307  0.00  0.00     0.027 C 
BRANCH  27  28
HETATM   28  C   UNK N   1      17.519  13.817  -0.024  0.00  0.00     0.111 C 
BRANCH  28  29
HETATM   29  N   UNK N   1      17.639  15.217  -0.381  0.00  0.00    -0.430 N 
HETATM   30  H   UNK N   1      16.801  15.789  -0.493  0.00  0.00     0.149 HD
HETATM   31  H   UNK N   1      18.561  15.631  -0.521  0.00  0.00     0.149 HD
ENDBRANCH  28  29
ENDBRANCH  27  28
ENDBRANCH  26  27
ENDBRANCH  24  26
BRANCH  24  32
HETATM   32  O   UNK N   1      21.277  14.058   2.439  0.00  0.00    -0.350 OA
HETATM   33  H   UNK N   1      22.186  14.232   2.290  0.00  0.00     0.219 HD
ENDBRANCH  24  32
ENDBRANCH   1  23
TORSDOF 16
ENDMDL
MODEL 3
REMARK VINA RESULT:      -6.1      9.891     13.032
REMARK  16 active torsions:
REMARK  status: ('A' for Active; 'I' for Inactive)
REMARK    1  A    between atoms: C_3  and  C_2 
REMARK    2  A    between atoms: C_8  and  C_2 
REMARK    3  A    between atoms: C_15  and  C_3 
REMARK    4  A    between atoms: N_18  and  C_8 
REMARK    5  A    between atoms: C_16  and  C_9 
REMARK    6  A    between atoms: N_19  and  C_9 
REMARK    7  A    between atoms: C_12  and  C_10 
REMARK    8  A    between atoms: S_28  and  C_10 
REMARK    9  A    between atoms: C_14  and  C_11 
REMARK   10  A    between atoms: S_28  and  C_11 
REMARK   11  A    between atoms: O_27  and  C_13 
REMARK   12  A    between atoms: C_17  and  C_14 
REMARK   13  A    between atoms: C_14  and  N_21 
REMARK   14  A    between atoms: C_15  and  O_23 
REMARK   15  A    between atoms: O_25  and  C_16 
REMARK   16  A    between atoms: O_26  and  C_17 
ROOT
HETATM    1  C   UNK N   1      34.175  17.717   7.779  0.00  0.00     0.167 C 
ENDROOT
BRANCH   1   2
HETATM    2  C   UNK N   1      34.093  16.686   6.650  0.00  0.00     0.107 C 
BRANCH   2   3
HETATM    3  S   UNK N   1      33.292  17.285   5.116  0.00  0.00    -0.162 SA
BRANCH   3   4
HETATM    4  C   UNK N   1      31.998  15.992   4.912  0.00  0.00     0.112 C 
BRANCH   4   5
HETATM    5  C   UNK N   1      30.601  16.480   4.666  0.00  0.00    -0.049 A 
HETATM    6  C   UNK N   1      30.126  17.622   5.319  0.00  0.00     0.011 A 
HETATM    7  C   UNK N   1      28.858  18.134   5.011  0.00  0.00     0.037 A 
HETATM    8  C   UNK N   1      28.064  17.518   4.034  0.00  0.00     0.068 A 
HETATM    9  C   UNK N   1      28.549  16.379   3.375  0.00  0.00     0.037 A 
HETATM   10  C   UNK N   1      29.810  15.874   3.686  0.00  0.00     0.011 A 
BRANCH   8  11
HETATM   11  O   UNK N   1      26.848  18.039   3.741  0.00  0.00    -0.356 OA
HETATM   12  C   UNK N   1      25.800  17.282   3.264  0.00  0.00     0.210 C 
ENDBRANCH   8  11
ENDBRANCH   4   5
ENDBRANCH   3   4
ENDBRANCH   2   3
ENDBRANCH   1   2
BRANCH   1  13
HETATM   13  C   UNK N   1      34.839  17.088   8.988  0.00  0.00     0.136 C 
HETATM   14  N   UNK N   1      34.806  15.813   9.161  0.00  0.00    -0.363 N 
ATOM     15  HN  UNK N   1      34.342  15.233   8.462  1.00  0.00     0.161 HD
BRANCH  14  16
HETATM   16  C   UNK N   1      35.401  15.177  10.309  0.00  0.00     0.231 C 
BRANCH  16  17
HETATM   17  C   UNK N   1      34.332  14.703  11.232  0.00  0.00     0.158 C 
HETATM   18  O   UNK N   1      34.622  14.049  12.221  0.00  0.00    -0.649 OA
BRANCH  17  19
HETATM   19  O   UNK N   1      33.043  14.983  10.968  0.00  0.00    -0.775 OA
HETATM   20  H   UNK N   1      32.250  15.346  11.311  0.00  0.00     0.167 HD
ENDBRANCH  17  19
ENDBRANCH  16  17
ENDBRANCH  14  16
BRANCH  13  21
HETATM   21  O   UNK N   1      35.442  17.881   9.901  0.00  0.00    -0.348 OA
HETATM   22  H   UNK N   1      35.476  17.678  10.815  0.00  0.00     0.219 HD
ENDBRANCH  13  21
ENDBRANCH   1  13
BRANCH   1  23
HETATM   23  N   UNK N   1      32.885  18.315   8.103  0.00  0.00    -0.362 N 
HETATM   24  C   UNK N   1      31.853  17.657   8.520  0.00  0.00     0.111 C 
ATOM     25  HN  UNK N   1      32.788  19.325   7.993  1.00  0.00     0.162 HD
BRANCH  24  26
HETATM   26  C   UNK N   1      30.629  18.396   8.950  0.00  0.00     0.085 C 
BRANCH  26  27
HETATM   27  C   UNK N   1      29.598  17.472   9.562  0.00  0.00     0.027 C 
BRANCH  27  28
HETATM   28  C   UNK N   1      28.370  17.472   8.675  0.00  0.00     0.111 C 
BRANCH  28  29
HETATM   29  N   UNK N   1      27.520  18.595   9.019  0.00  0.00    -0.430 N 
HETATM   30  H   UNK N   1      26.510  18.529   8.891  0.00  0.00     0.149 HD
HETATM   31  H   UNK N   1      27.932  19.451   9.389  0.00  0.00     0.149 HD
ENDBRANCH  28  29
ENDBRANCH  27  28
ENDBRANCH  26  27
ENDBRANCH  24  26
BRANCH  24  32
HETATM   32  O   UNK N   1      31.893  16.315   8.660  0.00  0.00    -0.350 OA
HETATM   33  H   UNK N   1      31.490  15.485   8.829  0.00  0.00     0.219 HD
ENDBRANCH  24  32
ENDBRANCH   1  23
TORSDOF 16
ENDMDL
MODEL 4
REMARK VINA RESULT:      -6.1     10.315     13.406
REMARK  16 active torsions:
REMARK  status: ('A' for Active; 'I' for Inactive)
REMARK    1  A    between atoms: C_3  and  C_2 
REMARK    2  A    between atoms: C_8  and  C_2 
REMARK    3  A    between atoms: C_15  and  C_3 
REMARK    4  A    between atoms: N_18  and  C_8 
REMARK    5  A    between atoms: C_16  and  C_9 
REMARK    6  A    between atoms: N_19  and  C_9 
REMARK    7  A    between atoms: C_12  and  C_10 
REMARK    8  A    between atoms: S_28  and  C_10 
REMARK    9  A    between atoms: C_14  and  C_11 
REMARK   10  A    between atoms: S_28  and  C_11 
REMARK   11  A    between atoms: O_27  and  C_13 
REMARK   12  A    between atoms: C_17  and  C_14 
REMARK   13  A    between atoms: C_14  and  N_21 
REMARK   14  A    between atoms: C_15  and  O_23 
REMARK   15  A    between atoms: O_25  and  C_16 
REMARK   16  A    between atoms: O_26  and  C_17 
ROOT
HETATM    1  C   UNK N   1      34.170  16.130   8.761  0.00  0.00     0.167 C 
ENDROOT
BRANCH   1   2
HETATM    2  C   UNK N   1      34.630  14.851   8.054  0.00  0.00     0.107 C 
BRANCH   2   3
HETATM    3  S   UNK N   1      33.293  13.887   7.257  0.00  0.00    -0.162 SA
BRANCH   3   4
HETATM    4  C   UNK N   1      33.142  14.810   5.672  0.00  0.00     0.112 C 
BRANCH   4   5
HETATM    5  C   UNK N   1      31.840  15.515   5.432  0.00  0.00    -0.049 A 
HETATM    6  C   UNK N   1      30.631  14.905   5.783  0.00  0.00     0.011 A 
HETATM    7  C   UNK N   1      29.424  15.606   5.651  0.00  0.00     0.037 A 
HETATM    8  C   UNK N   1      29.420  16.928   5.185  0.00  0.00     0.068 A 
HETATM    9  C   UNK N   1      30.636  17.538   4.844  0.00  0.00     0.037 A 
HETATM   10  C   UNK N   1      31.833  16.835   4.975  0.00  0.00     0.011 A 
BRANCH   8  11
HETATM   11  O   UNK N   1      28.243  17.591   5.081  0.00  0.00    -0.356 OA
HETATM   12  C   UNK N   1      28.160  18.962   4.963  0.00  0.00     0.210 C 
ENDBRANCH   8  11
ENDBRANCH   4   5
ENDBRANCH   3   4
ENDBRANCH   2   3
ENDBRANCH   1   2
BRANCH   1  13
HETATM   13  C   UNK N   1      34.975  16.321  10.031  0.00  0.00     0.136 C 
HETATM   14  N   UNK N   1      35.040  15.382  10.910  0.00  0.00    -0.363 N 
ATOM     15  HN  UNK N   1      34.556  14.503  10.728  1.00  0.00     0.161 HD
BRANCH  14  16
HETATM   16  C   UNK N   1      35.771  15.532  12.142  0.00  0.00     0.231 C 
BRANCH  16  17
HETATM   17  C   UNK N   1      35.930  14.203  12.798  0.00  0.00     0.158 C 
HETATM   18  O   UNK N   1      34.971  13.661  13.322  0.00  0.00    -0.649 OA
BRANCH  17  19
HETATM   19  O   UNK N   1      37.136  13.608  12.825  0.00  0.00    -0.775 OA
HETATM   20  H   UNK N   1      38.006  13.620  12.477  0.00  0.00     0.167 HD
ENDBRANCH  17  19
ENDBRANCH  16  17
ENDBRANCH  14  16
BRANCH  13  21
HETATM   21  O   UNK N   1      35.601  17.498  10.248  0.00  0.00    -0.348 OA
HETATM   22  H   UNK N   1      35.650  17.905  11.091  0.00  0.00     0.219 HD
ENDBRANCH  13  21
ENDBRANCH   1  13
BRANCH   1  23
HETATM   23  N   UNK N   1      32.732  16.165   9.004  0.00  0.00    -0.362 N 
HETATM   24  C   UNK N   1      31.960  17.158   8.707  0.00  0.00     0.111 C 
ATOM     25  HN  UNK N   1      32.305  15.348   9.441  1.00  0.00     0.162 HD
BRANCH  24  26
HETATM   26  C   UNK N   1      30.483  17.023   8.879  0.00  0.00     0.085 C 
BRANCH  26  27
HETATM   27  C   UNK N   1      29.753  18.298   8.514  0.00  0.00     0.027 C 
BRANCH  27  28
HETATM   28  C   UNK N   1      28.346  18.219   9.071  0.00  0.00     0.111 C 
BRANCH  28  29
HETATM   29  N   UNK N   1      27.539  17.352   8.235  0.00  0.00    -0.430 N 
HETATM   30  H   UNK N   1      27.241  17.666   7.311  0.00  0.00     0.149 HD
HETATM   31  H   UNK N   1      27.269  16.427   8.571  0.00  0.00     0.149 HD
ENDBRANCH  28  29
ENDBRANCH  27  28
ENDBRANCH  26  27
ENDBRANCH  24  26
BRANCH  24  32
HETATM   32  O   UNK N   1      32.456  18.286   8.157  0.00  0.00    -0.350 OA
HETATM   33  H   UNK N   1      33.166  18.839   7.892  0.00  0.00     0.219 HD
ENDBRANCH  24  32
ENDBRANCH   1  23
TORSDOF 16
ENDMDL
MODEL 5
REMARK VINA RESULT:      -6.0     14.135     16.173
REMARK  16 active torsions:
REMARK  status: ('A' for Active; 'I' for Inactive)
REMARK    1  A    between atoms: C_3  and  C_2 
REMARK    2  A    between atoms: C_8  and  C_2 
REMARK    3  A    between atoms: C_15  and  C_3 
REMARK    4  A    between atoms: N_18  and  C_8 
REMARK    5  A    between atoms: C_16  and  C_9 
REMARK    6  A    between atoms: N_19  and  C_9 
REMARK    7  A    between atoms: C_12  and  C_10 
REMARK    8  A    between atoms: S_28  and  C_10 
REMARK    9  A    between atoms: C_14  and  C_11 
REMARK   10  A    between atoms: S_28  and  C_11 
REMARK   11  A    between atoms: O_27  and  C_13 
REMARK   12  A    between atoms: C_17  and  C_14 
REMARK   13  A    between atoms: C_14  and  N_21 
REMARK   14  A    between atoms: C_15  and  O_23 
REMARK   15  A    between atoms: O_25  and  C_16 
REMARK   16  A    between atoms: O_26  and  C_17 
ROOT
HETATM    1  C   UNK N   1      35.794  14.667  11.167  0.00  0.00     0.167 C 
ENDROOT
BRANCH   1   2
HETATM    2  C   UNK N   1      35.255  13.970  12.420  0.00  0.00     0.107 C 
BRANCH   2   3
HETATM    3  S   UNK N   1      36.496  13.006  13.360  0.00  0.00    -0.162 SA
BRANCH   3   4
HETATM    4  C   UNK N   1      36.382  13.852  14.990  0.00  0.00     0.112 C 
BRANCH   4   5
HETATM    5  C   UNK N   1      35.918  13.015  16.145  0.00  0.00    -0.049 A 
HETATM    6  C   UNK N   1      36.035  11.621  16.100  0.00  0.00     0.011 A 
HETATM    7  C   UNK N   1      35.695  10.850  17.220  0.00  0.00     0.037 A 
HETATM    8  C   UNK N   1      35.252  11.467  18.398  0.00  0.00     0.068 A 
HETATM    9  C   UNK N   1      35.146  12.865  18.440  0.00  0.00     0.037 A 
HETATM   10  C   UNK N   1      35.484  13.627  17.323  0.00  0.00     0.011 A 
BRANCH   8  11
HETATM   11  O   UNK N   1      34.944  10.702  19.472  0.00  0.00    -0.356 OA
HETATM   12  C   UNK N   1      35.793  10.532  20.544  0.00  0.00     0.210 C 
ENDBRANCH   8  11
ENDBRANCH   4   5
ENDBRANCH   3   4
ENDBRANCH   2   3
ENDBRANCH   1   2
BRANCH   1  13
HETATM   13  C   UNK N   1      34.683  15.471  10.521  0.00  0.00     0.136 C 
HETATM   14  N   UNK N   1      34.951  16.341   9.610  0.00  0.00    -0.363 N 
ATOM     15  HN  UNK N   1      35.921  16.466   9.319  1.00  0.00     0.161 HD
BRANCH  14  16
HETATM   16  C   UNK N   1      33.929  17.144   8.990  0.00  0.00     0.231 C 
BRANCH  16  17
HETATM   17  C   UNK N   1      34.558  18.152   8.090  0.00  0.00     0.158 C 
HETATM   18  O   UNK N   1      34.412  18.070   6.882  0.00  0.00    -0.649 OA
BRANCH  17  19
HETATM   19  O   UNK N   1      35.303  19.145   8.610  0.00  0.00    -0.775 OA
HETATM   20  H   UNK N   1      35.288  20.021   8.943  0.00  0.00     0.167 HD
ENDBRANCH  17  19
ENDBRANCH  16  17
ENDBRANCH  14  16
BRANCH  13  21
HETATM   21  O   UNK N   1      33.409  15.289  10.930  0.00  0.00    -0.348 OA
HETATM   22  H   UNK N   1      32.665  15.527  10.413  0.00  0.00     0.219 HD
ENDBRANCH  13  21
ENDBRANCH   1  13
BRANCH   1  23
HETATM   23  N   UNK N   1      36.433  13.750  10.231  0.00  0.00    -0.362 N 
HETATM   24  C   UNK N   1      37.628  13.896   9.758  0.00  0.00     0.111 C 
ATOM     25  HN  UNK N   1      35.900  12.936   9.925  1.00  0.00     0.162 HD
BRANCH  24  26
HETATM   26  C   UNK N   1      38.224  12.819   8.912  0.00  0.00     0.085 C 
BRANCH  26  27
HETATM   27  C   UNK N   1      37.625  12.796   7.523  0.00  0.00     0.027 C 
BRANCH  27  28
HETATM   28  C   UNK N   1      38.353  13.817   6.672  0.00  0.00     0.111 C 
BRANCH  28  29
HETATM   29  N   UNK N   1      37.420  14.439   5.752  0.00  0.00    -0.430 N 
HETATM   30  H   UNK N   1      37.728  15.204   5.152  0.00  0.00     0.149 HD
HETATM   31  H   UNK N   1      36.455  14.111   5.706  0.00  0.00     0.149 HD
ENDBRANCH  28  29
ENDBRANCH  27  28
ENDBRANCH  26  27
ENDBRANCH  24  26
BRANCH  24  32
HETATM   32  O   UNK N   1      38.383  14.964  10.090  0.00  0.00    -0.350 OA
HETATM   33  H   UNK N   1      38.707  15.594  10.704  0.00  0.00     0.219 HD
ENDBRANCH  24  32
ENDBRANCH   1  23
TORSDOF 16
ENDMDL
MODEL 6
REMARK VINA RESULT:      -6.0      1.848      2.096
REMARK  16 active torsions:
REMARK  status: ('A' for Active; 'I' for Inactive)
REMARK    1  A    between atoms: C_3  and  C_2 
REMARK    2  A    between atoms: C_8  and  C_2 
REMARK    3  A    between atoms: C_15  and  C_3 
REMARK    4  A    between atoms: N_18  and  C_8 
REMARK    5  A    between atoms: C_16  and  C_9 
REMARK    6  A    between atoms: N_19  and  C_9 
REMARK    7  A    between atoms: C_12  and  C_10 
REMARK    8  A    between atoms: S_28  and  C_10 
REMARK    9  A    between atoms: C_14  and  C_11 
REMARK   10  A    between atoms: S_28  and  C_11 
REMARK   11  A    between atoms: O_27  and  C_13 
REMARK   12  A    between atoms: C_17  and  C_14 
REMARK   13  A    between atoms: C_14  and  N_21 
REMARK   14  A    between atoms: C_15  and  O_23 
REMARK   15  A    between atoms: O_25  and  C_16 
REMARK   16  A    between atoms: O_26  and  C_17 
ROOT
HETATM    1  C   UNK N   1      21.139  16.234   6.429  0.00  0.00     0.167 C 
ENDROOT
BRANCH   1   2
HETATM    2  C   UNK N   1      20.903  14.891   5.731  0.00  0.00     0.107 C 
BRANCH   2   3
HETATM    3  S   UNK N   1      22.313  13.724   5.809  0.00  0.00    -0.162 SA
BRANCH   3   4
HETATM    4  C   UNK N   1      23.182  14.379   7.293  0.00  0.00     0.112 C 
BRANCH   4   5
HETATM    5  C   UNK N   1      22.999  13.610   8.567  0.00  0.00    -0.049 A 
HETATM    6  C   UNK N   1      24.108  13.108   9.255  0.00  0.00     0.011 A 
HETATM    7  C   UNK N   1      23.941  12.478  10.496  0.00  0.00     0.037 A 
HETATM    8  C   UNK N   1      22.666  12.361  11.066  0.00  0.00     0.068 A 
HETATM    9  C   UNK N   1      21.558  12.874  10.375  0.00  0.00     0.037 A 
HETATM   10  C   UNK N   1      21.730  13.499   9.141  0.00  0.00     0.011 A 
BRANCH   8  11
HETATM   11  O   UNK N   1      22.531  11.762  12.273  0.00  0.00    -0.356 OA
HETATM   12  C   UNK N   1      23.396  11.981  13.323  0.00  0.00     0.210 C 
ENDBRANCH   8  11
ENDBRANCH   4   5
ENDBRANCH   3   4
ENDBRANCH   2   3
ENDBRANCH   1   2
BRANCH   1  13
HETATM   13  C   UNK N   1      20.092  16.431   7.508  0.00  0.00     0.136 C 
HETATM   14  N   UNK N   1      19.977  17.564   8.107  0.00  0.00    -0.363 N 
ATOM     15  HN  UNK N   1      20.591  18.331   7.831  1.00  0.00     0.161 HD
BRANCH  14  16
HETATM   16  C   UNK N   1      19.015  17.786   9.156  0.00  0.00     0.231 C 
BRANCH  16  17
HETATM   17  C   UNK N   1      19.336  19.050   9.876  0.00  0.00     0.158 C 
HETATM   18  O   UNK N   1      20.412  19.599   9.698  0.00  0.00    -0.649 OA
BRANCH  17  19
HETATM   19  O   UNK N   1      18.447  19.579  10.735  0.00  0.00    -0.775 OA
HETATM   20  H   UNK N   1      18.015  19.465  11.559  0.00  0.00     0.167 HD
ENDBRANCH  17  19
ENDBRANCH  16  17
ENDBRANCH  14  16
BRANCH  13  21
HETATM   21  O   UNK N   1      19.297  15.396   7.857  0.00  0.00    -0.348 OA
HETATM   22  H   UNK N   1      18.909  14.813   7.234  0.00  0.00     0.219 HD
ENDBRANCH  13  21
ENDBRANCH   1  13
BRANCH   1  23
HETATM   23  N   UNK N   1      21.201  17.358   5.503  0.00  0.00    -0.362 N 
HETATM   24  C   UNK N   1      22.287  17.972   5.163  0.00  0.00     0.111 C 
ATOM     25  HN  UNK N   1      20.325  17.686   5.095  1.00  0.00     0.162 HD
BRANCH  24  26
HETATM   26  C   UNK N   1      22.241  19.022   4.102  0.00  0.00     0.085 C 
BRANCH  26  27
HETATM   27  C   UNK N   1      20.820  19.370   3.714  0.00  0.00     0.027 C 
BRANCH  27  28
HETATM   28  C   UNK N   1      20.594  18.928   2.282  0.00  0.00     0.111 C 
BRANCH  28  29
HETATM   29  N   UNK N   1      20.415  20.092   1.436  0.00  0.00    -0.430 N 
HETATM   30  H   UNK N   1      20.065  19.982   0.483  0.00  0.00     0.149 HD
HETATM   31  H   UNK N   1      20.639  21.021   1.792  0.00  0.00     0.149 HD
ENDBRANCH  28  29
ENDBRANCH  27  28
ENDBRANCH  26  27
ENDBRANCH  24  26
BRANCH  24  32
HETATM   32  O   UNK N   1      23.480  17.618   5.685  0.00  0.00    -0.350 OA
HETATM   33  H   UNK N   1      24.221  17.766   6.240  0.00  0.00     0.219 HD
ENDBRANCH  24  32
ENDBRANCH   1  23
TORSDOF 16
ENDMDL
MODEL 7
REMARK VINA RESULT:      -6.0      3.811      5.828
REMARK  16 active torsions:
REMARK  status: ('A' for Active; 'I' for Inactive)
REMARK    1  A    between atoms: C_3  and  C_2 
REMARK    2  A    between atoms: C_8  and  C_2 
REMARK    3  A    between atoms: C_15  and  C_3 
REMARK    4  A    between atoms: N_18  and  C_8 
REMARK    5  A    between atoms: C_16  and  C_9 
REMARK    6  A    between atoms: N_19  and  C_9 
REMARK    7  A    between atoms: C_12  and  C_10 
REMARK    8  A    between atoms: S_28  and  C_10 
REMARK    9  A    between atoms: C_14  and  C_11 
REMARK   10  A    between atoms: S_28  and  C_11 
REMARK   11  A    between atoms: O_27  and  C_13 
REMARK   12  A    between atoms: C_17  and  C_14 
REMARK   13  A    between atoms: C_14  and  N_21 
REMARK   14  A    between atoms: C_15  and  O_23 
REMARK   15  A    between atoms: O_25  and  C_16 
REMARK   16  A    between atoms: O_26  and  C_17 
ROOT
HETATM    1  C   UNK N   1      22.658  17.680   4.942  0.00  0.00     0.167 C 
ENDROOT
BRANCH   1   2
HETATM    2  C   UNK N   1      22.020  16.302   5.141  0.00  0.00     0.107 C 
BRANCH   2   3
HETATM    3  S   UNK N   1      23.076  15.082   6.008  0.00  0.00    -0.162 SA
BRANCH   3   4
HETATM    4  C   UNK N   1      21.836  14.353   7.156  0.00  0.00     0.112 C 
BRANCH   4   5
HETATM    5  C   UNK N   1      22.371  13.751   8.420  0.00  0.00    -0.049 A 
HETATM    6  C   UNK N   1      21.505  13.420   9.468  0.00  0.00     0.011 A 
HETATM    7  C   UNK N   1      21.995  12.765  10.607  0.00  0.00     0.037 A 
HETATM    8  C   UNK N   1      23.349  12.419  10.698  0.00  0.00     0.068 A 
HETATM    9  C   UNK N   1      24.212  12.744   9.640  0.00  0.00     0.037 A 
HETATM   10  C   UNK N   1      23.720  13.397   8.511  0.00  0.00     0.011 A 
BRANCH   8  11
HETATM   11  O   UNK N   1      23.797  11.772  11.801  0.00  0.00    -0.356 OA
HETATM   12  C   UNK N   1      23.188  11.876  13.033  0.00  0.00     0.210 C 
ENDBRANCH   8  11
ENDBRANCH   4   5
ENDBRANCH   3   4
ENDBRANCH   2   3
ENDBRANCH   1   2
BRANCH   1  13
HETATM   13  C   UNK N   1      21.642  18.620   4.323  0.00  0.00     0.136 C 
HETATM   14  N   UNK N   1      21.345  18.529   3.073  0.00  0.00    -0.363 N 
ATOM     15  HN  UNK N   1      21.792  17.803   2.513  1.00  0.00     0.161 HD
BRANCH  14  16
HETATM   16  C   UNK N   1      20.406  19.419   2.439  0.00  0.00     0.231 C 
BRANCH  16  17
HETATM   17  C   UNK N   1      21.131  20.585   1.859  0.00  0.00     0.158 C 
HETATM   18  O   UNK N   1      21.365  20.626   0.662  0.00  0.00    -0.649 OA
BRANCH  17  19
HETATM   19  O   UNK N   1      21.542  21.586   2.658  0.00  0.00    -0.775 OA
HETATM   20  H   UNK N   1      21.325  22.111   3.404  0.00  0.00     0.167 HD
ENDBRANCH  17  19
ENDBRANCH  16  17
ENDBRANCH  14  16
BRANCH  13  21
HETATM   21  O   UNK N   1      21.071  19.576   5.087  0.00  0.00    -0.348 OA
HETATM   22  H   UNK N   1      21.161  19.610   6.019  0.00  0.00     0.219 HD
ENDBRANCH  13  21
ENDBRANCH   1  13
BRANCH   1  23
HETATM   23  N   UNK N   1      23.903  17.632   4.185  0.00  0.00    -0.362 N 
HETATM   24  C   UNK N   1      24.960  18.322   4.464  0.00  0.00     0.111 C 
ATOM     25  HN  UNK N   1      23.944  17.011   3.377  1.00  0.00     0.162 HD
BRANCH  24  26
HETATM   26  C   UNK N   1      26.221  18.086   3.698  0.00  0.00     0.085 C 
BRANCH  26  27
HETATM   27  C   UNK N   1      27.329  19.020   4.134  0.00  0.00     0.027 C 
BRANCH  27  28
HETATM   28  C   UNK N   1      28.501  18.182   4.606  0.00  0.00     0.111 C 
BRANCH  28  29
HETATM   29  N   UNK N   1      28.995  17.374   3.509  0.00  0.00    -0.430 N 
HETATM   30  H   UNK N   1      29.999  17.237   3.387  0.00  0.00     0.149 HD
HETATM   31  H   UNK N   1      28.339  16.943   2.857  0.00  0.00     0.149 HD
ENDBRANCH  28  29
ENDBRANCH  27  28
ENDBRANCH  26  27
ENDBRANCH  24  26
BRANCH  24  32
HETATM   32  O   UNK N   1      24.974  19.189   5.498  0.00  0.00    -0.350 OA
HETATM   33  H   UNK N   1      25.398  19.815   6.052  0.00  0.00     0.219 HD
ENDBRANCH  24  32
ENDBRANCH   1  23
TORSDOF 16
ENDMDL
MODEL 8
REMARK VINA RESULT:      -6.0      4.531      7.922
REMARK  16 active torsions:
REMARK  status: ('A' for Active; 'I' for Inactive)
REMARK    1  A    between atoms: C_3  and  C_2 
REMARK    2  A    between atoms: C_8  and  C_2 
REMARK    3  A    between atoms: C_15  and  C_3 
REMARK    4  A    between atoms: N_18  and  C_8 
REMARK    5  A    between atoms: C_16  and  C_9 
REMARK    6  A    between atoms: N_19  and  C_9 
REMARK    7  A    between atoms: C_12  and  C_10 
REMARK    8  A    between atoms: S_28  and  C_10 
REMARK    9  A    between atoms: C_14  and  C_11 
REMARK   10  A    between atoms: S_28  and  C_11 
REMARK   11  A    between atoms: O_27  and  C_13 
REMARK   12  A    between atoms: C_17  and  C_14 
REMARK   13  A    between atoms: C_14  and  N_21 
REMARK   14  A    between atoms: C_15  and  O_23 
REMARK   15  A    between atoms: O_25  and  C_16 
REMARK   16  A    between atoms: O_26  and  C_17 
ROOT
HETATM    1  C   UNK N   1      20.803  16.377   4.004  0.00  0.00     0.167 C 
ENDROOT
BRANCH   1   2
HETATM    2  C   UNK N   1      22.160  16.181   3.321  0.00  0.00     0.107 C 
BRANCH   2   3
HETATM    3  S   UNK N   1      23.533  15.733   4.448  0.00  0.00    -0.162 SA
BRANCH   3   4
HETATM    4  C   UNK N   1      24.968  16.212   3.400  0.00  0.00     0.112 C 
BRANCH   4   5
HETATM    5  C   UNK N   1      25.685  17.471   3.786  0.00  0.00    -0.049 A 
HETATM    6  C   UNK N   1      24.967  18.650   4.021  0.00  0.00     0.011 A 
HETATM    7  C   UNK N   1      25.629  19.797   4.480  0.00  0.00     0.037 A 
HETATM    8  C   UNK N   1      27.008  19.770   4.725  0.00  0.00     0.068 A 
HETATM    9  C   UNK N   1      27.721  18.583   4.497  0.00  0.00     0.037 A 
HETATM   10  C   UNK N   1      27.059  17.445   4.039  0.00  0.00     0.011 A 
BRANCH   8  11
HETATM   11  O   UNK N   1      27.624  20.886   5.183  0.00  0.00    -0.356 OA
HETATM   12  C   UNK N   1      27.152  21.622   6.248  0.00  0.00     0.210 C 
ENDBRANCH   8  11
ENDBRANCH   4   5
ENDBRANCH   3   4
ENDBRANCH   2   3
ENDBRANCH   1   2
BRANCH   1  13
HETATM   13  C   UNK N   1      20.158  17.647   3.487  0.00  0.00     0.136 C 
HETATM   14  N   UNK N   1      20.860  18.712   3.313  0.00  0.00    -0.363 N 
ATOM     15  HN  UNK N   1      21.860  18.680   3.513  1.00  0.00     0.161 HD
BRANCH  14  16
HETATM   16  C   UNK N   1      20.282  19.947   2.849  0.00  0.00     0.231 C 
BRANCH  16  17
HETATM   17  C   UNK N   1      21.310  20.741   2.118  0.00  0.00     0.158 C 
HETATM   18  O   UNK N   1      21.490  20.557   0.925  0.00  0.00    -0.649 OA
BRANCH  17  19
HETATM   19  O   UNK N   1      22.051  21.650   2.776  0.00  0.00    -0.775 OA
HETATM   20  H   UNK N   1      22.078  22.231   3.511  0.00  0.00     0.167 HD
ENDBRANCH  17  19
ENDBRANCH  16  17
ENDBRANCH  14  16
BRANCH  13  21
HETATM   21  O   UNK N   1      18.831  17.662   3.237  0.00  0.00    -0.348 OA
HETATM   22  H   UNK N   1      18.457  17.376   2.426  0.00  0.00     0.219 HD
ENDBRANCH  13  21
ENDBRANCH   1  13
BRANCH   1  23
HETATM   23  N   UNK N   1      20.885  16.349   5.460  0.00  0.00    -0.362 N 
HETATM   24  C   UNK N   1      19.916  16.006   6.244  0.00  0.00     0.111 C 
ATOM     25  HN  UNK N   1      21.768  16.620   5.891  1.00  0.00     0.162 HD
BRANCH  24  26
HETATM   26  C   UNK N   1      20.161  15.885   7.713  0.00  0.00     0.085 C 
BRANCH  26  27
HETATM   27  C   UNK N   1      19.883  17.184   8.439  0.00  0.00     0.027 C 
BRANCH  27  28
HETATM   28  C   UNK N   1      18.446  17.165   8.918  0.00  0.00     0.111 C 
BRANCH  28  29
HETATM   29  N   UNK N   1      18.213  18.288   9.806  0.00  0.00    -0.430 N 
HETATM   30  H   UNK N   1      18.965  18.951   9.998  0.00  0.00     0.149 HD
HETATM   31  H   UNK N   1      17.298  18.415  10.238  0.00  0.00     0.149 HD
ENDBRANCH  28  29
ENDBRANCH  27  28
ENDBRANCH  26  27
ENDBRANCH  24  26
BRANCH  24  32
HETATM   32  O   UNK N   1      18.707  15.665   5.751  0.00  0.00    -0.350 OA
HETATM   33  H   UNK N   1      18.155  15.215   5.141  0.00  0.00     0.219 HD
ENDBRANCH  24  32
ENDBRANCH   1  23
TORSDOF 16
ENDMDL
MODEL 9
REMARK VINA RESULT:      -5.8     14.533     16.696
REMARK  16 active torsions:
REMARK  status: ('A' for Active; 'I' for Inactive)
REMARK    1  A    between atoms: C_3  and  C_2 
REMARK    2  A    between atoms: C_8  and  C_2 
REMARK    3  A    between atoms: C_15  and  C_3 
REMARK    4  A    between atoms: N_18  and  C_8 
REMARK    5  A    between atoms: C_16  and  C_9 
REMARK    6  A    between atoms: N_19  and  C_9 
REMARK    7  A    between atoms: C_12  and  C_10 
REMARK    8  A    between atoms: S_28  and  C_10 
REMARK    9  A    between atoms: C_14  and  C_11 
REMARK   10  A    between atoms: S_28  and  C_11 
REMARK   11  A    between atoms: O_27  and  C_13 
REMARK   12  A    between atoms: C_17  and  C_14 
REMARK   13  A    between atoms: C_14  and  N_21 
REMARK   14  A    between atoms: C_15  and  O_23 
REMARK   15  A    between atoms: O_25  and  C_16 
REMARK   16  A    between atoms: O_26  and  C_17 
ROOT
HETATM    1  C   UNK N   1      36.688  13.324  11.434  0.00  0.00     0.167 C 
ENDROOT
BRANCH   1   2
HETATM    2  C   UNK N   1      37.659  12.303  10.835  0.00  0.00     0.107 C 
BRANCH   2   3
HETATM    3  S   UNK N   1      37.724  10.695  11.709  0.00  0.00    -0.162 SA
BRANCH   3   4
HETATM    4  C   UNK N   1      35.935  10.464  12.074  0.00  0.00     0.112 C 
BRANCH   4   5
HETATM    5  C   UNK N   1      35.562  10.329  13.520  0.00  0.00    -0.049 A 
HETATM    6  C   UNK N   1      34.277  10.674  13.954  0.00  0.00     0.011 A 
HETATM    7  C   UNK N   1      33.901  10.451  15.286  0.00  0.00     0.037 A 
HETATM    8  C   UNK N   1      34.798   9.865  16.188  0.00  0.00     0.068 A 
HETATM    9  C   UNK N   1      36.082   9.512  15.745  0.00  0.00     0.037 A 
HETATM   10  C   UNK N   1      36.452   9.737  14.420  0.00  0.00     0.011 A 
BRANCH   8  11
HETATM   11  O   UNK N   1      34.407   9.645  17.466  0.00  0.00    -0.356 OA
HETATM   12  C   UNK N   1      34.987  10.269  18.549  0.00  0.00     0.210 C 
ENDBRANCH   8  11
ENDBRANCH   4   5
ENDBRANCH   3   4
ENDBRANCH   2   3
ENDBRANCH   1   2
BRANCH   1  13
HETATM   13  C   UNK N   1      36.555  14.506  10.494  0.00  0.00     0.136 C 
HETATM   14  N   UNK N   1      35.579  14.568   9.657  0.00  0.00    -0.363 N 
ATOM     15  HN  UNK N   1      34.887  13.818   9.651  1.00  0.00     0.161 HD
BRANCH  14  16
HETATM   16  C   UNK N   1      35.431  15.658   8.727  0.00  0.00     0.231 C 
BRANCH  16  17
HETATM   17  C   UNK N   1      34.725  16.792   9.390  0.00  0.00     0.158 C 
HETATM   18  O   UNK N   1      33.532  16.965   9.199  0.00  0.00    -0.649 OA
BRANCH  17  19
HETATM   19  O   UNK N   1      35.407  17.635  10.186  0.00  0.00    -0.775 OA
HETATM   20  H   UNK N   1      35.709  17.789  11.060  0.00  0.00     0.167 HD
ENDBRANCH  17  19
ENDBRANCH  16  17
ENDBRANCH  14  16
BRANCH  13  21
HETATM   21  O   UNK N   1      37.489  15.482  10.519  0.00  0.00    -0.348 OA
HETATM   22  H   UNK N   1      37.996  15.727   9.770  0.00  0.00     0.219 HD
ENDBRANCH  13  21
ENDBRANCH   1  13
BRANCH   1  23
HETATM   23  N   UNK N   1      37.047  13.731  12.788  0.00  0.00    -0.362 N 
HETATM   24  C   UNK N   1      36.198  13.963  13.735  0.00  0.00     0.111 C 
ATOM     25  HN  UNK N   1      38.037  13.840  13.004  1.00  0.00     0.162 HD
BRANCH  24  26
HETATM   26  C   UNK N   1      36.690  14.240  15.118  0.00  0.00     0.085 C 
BRANCH  26  27
HETATM   27  C   UNK N   1      36.304  13.141  16.084  0.00  0.00     0.027 C 
BRANCH  27  28
HETATM   28  C   UNK N   1      35.158  13.640  16.941  0.00  0.00     0.111 C 
BRANCH  28  29
HETATM   29  N   UNK N   1      35.682  14.383  18.070  0.00  0.00    -0.430 N 
HETATM   30  H   UNK N   1      36.674  14.331  18.301  0.00  0.00     0.149 HD
HETATM   31  H   UNK N   1      35.057  14.959  18.635  0.00  0.00     0.149 HD
ENDBRANCH  28  29
ENDBRANCH  27  28
ENDBRANCH  26  27
ENDBRANCH  24  26
BRANCH  24  32
HETATM   32  O   UNK N   1      34.869  13.871  13.518  0.00  0.00    -0.350 OA
HETATM   33  H   UNK N   1      34.088  14.083  13.044  0.00  0.00     0.219 HD
ENDBRANCH  24  32
ENDBRANCH   1  23
TORSDOF 16
ENDMDL
