MODEL 1
REMARK VINA RESULT:      -4.2      0.000      0.000
REMARK  6 active torsions:
REMARK  status: ('A' for Active; 'I' for Inactive)
REMARK    1  A    between atoms: C_2  and  C_3 
REMARK    2  A    between atoms: C_3  and  C_4 
REMARK    3  A    between atoms: C_4  and  C_5 
REMARK    4  A    between atoms: C_5  and  C_6 
REMARK    5  A    between atoms: C_6  and  C_7 
REMARK    6  A    between atoms: C_7  and  O_8 
ROOT
HETATM    1  C   UNK N   1      31.996  17.289   7.454  0.00  0.00     0.010 C 
ENDROOT
BRANCH   1   2
HETATM    2  C   UNK N   1      30.586  17.337   7.994  0.00  0.00     0.001 C 
BRANCH   2   3
HETATM    3  C   UNK N   1      30.533  18.478   8.987  0.00  0.00    -0.000 C 
BRANCH   3   4
HETATM    4  C   UNK N   1      29.218  18.491   9.733  0.00  0.00    -0.005 C 
HETATM    5  C   UNK N   1      28.317  17.430   9.138  0.00  0.00     0.005 C 
ENDBRANCH   3   4
ENDBRANCH   2   3
ENDBRANCH   1   2
BRANCH   1   6
HETATM    6  C   UNK N   1      33.013  17.755   8.481  0.00  0.00     0.110 C 
BRANCH   6   7
HETATM    7  C   UNK N   1      34.262  18.270   7.822  0.00  0.00     0.139 C 
HETATM    8  O   UNK N   1      35.001  19.055   8.399  0.00  0.00    -0.650 OA
BRANCH   7   9
HETATM    9  O   UNK N   1      34.573  17.861   6.578  0.00  0.00    -0.776 OA
HETATM   10  H   UNK N   1      35.446  17.585   6.380  0.00  0.00     0.167 HD
ENDBRANCH   7   9
ENDBRANCH   6   7
ENDBRANCH   1   6
TORSDOF 6
ENDMDL
MODEL 2
REMARK VINA RESULT:      -4.2     10.838     11.328
REMARK  6 active torsions:
REMARK  status: ('A' for Active; 'I' for Inactive)
REMARK    1  A    between atoms: C_2  and  C_3 
REMARK    2  A    between atoms: C_3  and  C_4 
REMARK    3  A    between atoms: C_4  and  C_5 
REMARK    4  A    between atoms: C_5  and  C_6 
REMARK    5  A    between atoms: C_6  and  C_7 
REMARK    6  A    between atoms: C_7  and  O_8 
ROOT
HETATM    1  C   UNK N   1      22.800  11.680  10.033  0.00  0.00     0.010 C 
ENDROOT
BRANCH   1   2
HETATM    2  C   UNK N   1      22.063  12.604   9.090  0.00  0.00     0.001 C 
BRANCH   2   3
HETATM    3  C   UNK N   1      21.620  13.801   9.903  0.00  0.00    -0.000 C 
BRANCH   3   4
HETATM    4  C   UNK N   1      20.325  14.372   9.370  0.00  0.00    -0.005 C 
HETATM    5  C   UNK N   1      20.618  15.717   8.738  0.00  0.00     0.005 C 
ENDBRANCH   3   4
ENDBRANCH   2   3
ENDBRANCH   1   2
BRANCH   1   6
HETATM    6  C   UNK N   1      22.496  11.996  11.488  0.00  0.00     0.110 C 
BRANCH   6   7
HETATM    7  C   UNK N   1      23.755  12.079  12.305  0.00  0.00     0.139 C 
HETATM    8  O   UNK N   1      23.715  12.058  13.527  0.00  0.00    -0.650 OA
BRANCH   7   9
HETATM    9  O   UNK N   1      24.944  12.177  11.683  0.00  0.00    -0.776 OA
HETATM   10  H   UNK N   1      24.984  12.192  10.747  0.00  0.00     0.167 HD
ENDBRANCH   7   9
ENDBRANCH   6   7
ENDBRANCH   1   6
TORSDOF 6
ENDMDL
MODEL 3
REMARK VINA RESULT:      -3.9     16.736     17.173
REMARK  6 active torsions:
REMARK  status: ('A' for Active; 'I' for Inactive)
REMARK    1  A    between atoms: C_2  and  C_3 
REMARK    2  A    between atoms: C_3  and  C_4 
REMARK    3  A    between atoms: C_4  and  C_5 
REMARK    4  A    between atoms: C_5  and  C_6 
REMARK    5  A    between atoms: C_6  and  C_7 
REMARK    6  A    between atoms: C_7  and  O_8 
ROOT
HETATM    1  C   UNK N   1      24.951  27.114  -5.687  0.00  0.00     0.010 C 
ENDROOT
BRANCH   1   2
HETATM    2  C   UNK N   1      25.423  25.990  -6.579  0.00  0.00     0.001 C 
BRANCH   2   3
HETATM    3  C   UNK N   1      26.567  25.308  -5.860  0.00  0.00    -0.000 C 
BRANCH   3   4
HETATM    4  C   UNK N   1      26.061  24.225  -4.934  0.00  0.00    -0.005 C 
HETATM    5  C   UNK N   1      26.722  24.400  -3.583  0.00  0.00     0.005 C 
ENDBRANCH   3   4
ENDBRANCH   2   3
ENDBRANCH   1   2
BRANCH   1   6
HETATM    6  C   UNK N   1      26.103  27.978  -5.205  0.00  0.00     0.110 C 
BRANCH   6   7
HETATM    7  C   UNK N   1      25.838  28.529  -3.832  0.00  0.00     0.139 C 
HETATM    8  O   UNK N   1      25.492  27.796  -2.916  0.00  0.00    -0.650 OA
BRANCH   7   9
HETATM    9  O   UNK N   1      25.984  29.847  -3.605  0.00  0.00    -0.776 OA
HETATM   10  H   UNK N   1      26.284  30.148  -2.771  0.00  0.00     0.167 HD
ENDBRANCH   7   9
ENDBRANCH   6   7
ENDBRANCH   1   6
TORSDOF 6
ENDMDL
MODEL 4
REMARK VINA RESULT:      -3.8     10.781     11.579
REMARK  6 active torsions:
REMARK  status: ('A' for Active; 'I' for Inactive)
REMARK    1  A    between atoms: C_2  and  C_3 
REMARK    2  A    between atoms: C_3  and  C_4 
REMARK    3  A    between atoms: C_4  and  C_5 
REMARK    4  A    between atoms: C_5  and  C_6 
REMARK    5  A    between atoms: C_6  and  C_7 
REMARK    6  A    between atoms: C_7  and  O_8 
ROOT
HETATM    1  C   UNK N   1      21.624  12.381  10.523  0.00  0.00     0.010 C 
ENDROOT
BRANCH   1   2
HETATM    2  C   UNK N   1      21.871  13.714   9.855  0.00  0.00     0.001 C 
BRANCH   2   3
HETATM    3  C   UNK N   1      20.935  13.792   8.668  0.00  0.00    -0.000 C 
BRANCH   3   4
HETATM    4  C   UNK N   1      21.347  12.819   7.585  0.00  0.00    -0.005 C 
HETATM    5  C   UNK N   1      20.615  13.181   6.310  0.00  0.00     0.005 C 
ENDBRANCH   3   4
ENDBRANCH   2   3
ENDBRANCH   1   2
BRANCH   1   6
HETATM    6  C   UNK N   1      22.898  11.564  10.646  0.00  0.00     0.110 C 
BRANCH   6   7
HETATM    7  C   UNK N   1      23.682  11.953  11.868  0.00  0.00     0.139 C 
HETATM    8  O   UNK N   1      23.171  11.928  12.978  0.00  0.00    -0.650 OA
BRANCH   7   9
HETATM    9  O   UNK N   1      24.966  12.333  11.738  0.00  0.00    -0.776 OA
HETATM   10  H   UNK N   1      25.522  11.902  11.120  0.00  0.00     0.167 HD
ENDBRANCH   7   9
ENDBRANCH   6   7
ENDBRANCH   1   6
TORSDOF 6
ENDMDL
MODEL 5
REMARK VINA RESULT:      -3.8      3.495      5.014
REMARK  6 active torsions:
REMARK  status: ('A' for Active; 'I' for Inactive)
REMARK    1  A    between atoms: C_2  and  C_3 
REMARK    2  A    between atoms: C_3  and  C_4 
REMARK    3  A    between atoms: C_4  and  C_5 
REMARK    4  A    between atoms: C_5  and  C_6 
REMARK    5  A    between atoms: C_6  and  C_7 
REMARK    6  A    between atoms: C_7  and  O_8 
ROOT
HETATM    1  C   UNK N   1      30.509  17.283   8.841  0.00  0.00     0.010 C 
ENDROOT
BRANCH   1   2
HETATM    2  C   UNK N   1      31.568  17.392   7.769  0.00  0.00     0.001 C 
BRANCH   2   3
HETATM    3  C   UNK N   1      32.834  17.870   8.448  0.00  0.00    -0.000 C 
BRANCH   3   4
HETATM    4  C   UNK N   1      33.971  17.992   7.458  0.00  0.00    -0.005 C 
HETATM    5  C   UNK N   1      33.503  17.460   6.120  0.00  0.00     0.005 C 
ENDBRANCH   3   4
ENDBRANCH   2   3
ENDBRANCH   1   2
BRANCH   1   6
HETATM    6  C   UNK N   1      29.877  18.629   9.152  0.00  0.00     0.110 C 
BRANCH   6   7
HETATM    7  C   UNK N   1      28.456  18.692   8.667  0.00  0.00     0.139 C 
HETATM    8  O   UNK N   1      28.170  19.276   7.631  0.00  0.00    -0.650 OA
BRANCH   7   9
HETATM    9  O   UNK N   1      27.483  18.098   9.382  0.00  0.00    -0.776 OA
HETATM   10  H   UNK N   1      26.651  17.924   8.987  0.00  0.00     0.167 HD
ENDBRANCH   7   9
ENDBRANCH   6   7
ENDBRANCH   1   6
TORSDOF 6
ENDMDL
MODEL 6
REMARK VINA RESULT:      -3.8      7.695      8.795
REMARK  6 active torsions:
REMARK  status: ('A' for Active; 'I' for Inactive)
REMARK    1  A    between atoms: C_2  and  C_3 
REMARK    2  A    between atoms: C_3  and  C_4 
REMARK    3  A    between atoms: C_4  and  C_5 
REMARK    4  A    between atoms: C_5  and  C_6 
REMARK    5  A    between atoms: C_6  and  C_7 
REMARK    6  A    between atoms: C_7  and  O_8 
ROOT
HETATM    1  C   UNK N   1      25.660  18.612   3.431  0.00  0.00     0.010 C 
ENDROOT
BRANCH   1   2
HETATM    2  C   UNK N   1      27.026  18.953   3.981  0.00  0.00     0.001 C 
BRANCH   2   3
HETATM    3  C   UNK N   1      26.819  19.459   5.392  0.00  0.00    -0.000 C 
BRANCH   3   4
HETATM    4  C   UNK N   1      27.611  20.723   5.640  0.00  0.00    -0.005 C 
HETATM    5  C   UNK N   1      26.768  21.662   6.475  0.00  0.00     0.005 C 
ENDBRANCH   3   4
ENDBRANCH   2   3
ENDBRANCH   1   2
BRANCH   1   6
HETATM    6  C   UNK N   1      24.594  19.575   3.924  0.00  0.00     0.110 C 
BRANCH   6   7
HETATM    7  C   UNK N   1      24.236  20.583   2.868  0.00  0.00     0.139 C 
HETATM    8  O   UNK N   1      25.000  20.827   1.946  0.00  0.00    -0.650 OA
BRANCH   7   9
HETATM    9  O   UNK N   1      23.057  21.227   2.939  0.00  0.00    -0.776 OA
HETATM   10  H   UNK N   1      22.828  21.858   2.286  0.00  0.00     0.167 HD
ENDBRANCH   7   9
ENDBRANCH   6   7
ENDBRANCH   1   6
TORSDOF 6
ENDMDL
MODEL 7
REMARK VINA RESULT:      -3.7      8.940     10.915
REMARK  6 active torsions:
REMARK  status: ('A' for Active; 'I' for Inactive)
REMARK    1  A    between atoms: C_2  and  C_3 
REMARK    2  A    between atoms: C_3  and  C_4 
REMARK    3  A    between atoms: C_4  and  C_5 
REMARK    4  A    between atoms: C_5  and  C_6 
REMARK    5  A    between atoms: C_6  and  C_7 
REMARK    6  A    between atoms: C_7  and  O_8 
ROOT
HETATM    1  C   UNK N   1      21.994  12.856  10.508  0.00  0.00     0.010 C 
ENDROOT
BRANCH   1   2
HETATM    2  C   UNK N   1      21.635  12.690   9.050  0.00  0.00     0.001 C 
BRANCH   2   3
HETATM    3  C   UNK N   1      22.922  12.395   8.310  0.00  0.00    -0.000 C 
BRANCH   3   4
HETATM    4  C   UNK N   1      23.615  13.672   7.892  0.00  0.00    -0.005 C 
HETATM    5  C   UNK N   1      25.108  13.485   8.058  0.00  0.00     0.005 C 
ENDBRANCH   3   4
ENDBRANCH   2   3
ENDBRANCH   1   2
BRANCH   1   6
HETATM    6  C   UNK N   1      22.732  11.645  11.052  0.00  0.00     0.110 C 
BRANCH   6   7
HETATM    7  C   UNK N   1      23.835  12.051  11.989  0.00  0.00     0.139 C 
HETATM    8  O   UNK N   1      23.672  12.027  13.201  0.00  0.00    -0.650 OA
BRANCH   7   9
HETATM    9  O   UNK N   1      25.020  12.446  11.488  0.00  0.00    -0.776 OA
HETATM   10  H   UNK N   1      25.104  12.629  10.574  0.00  0.00     0.167 HD
ENDBRANCH   7   9
ENDBRANCH   6   7
ENDBRANCH   1   6
TORSDOF 6
ENDMDL
MODEL 8
REMARK VINA RESULT:      -3.7      8.813      9.509
REMARK  6 active torsions:
REMARK  status: ('A' for Active; 'I' for Inactive)
REMARK    1  A    between atoms: C_2  and  C_3 
REMARK    2  A    between atoms: C_3  and  C_4 
REMARK    3  A    between atoms: C_4  and  C_5 
REMARK    4  A    between atoms: C_5  and  C_6 
REMARK    5  A    between atoms: C_6  and  C_7 
REMARK    6  A    between atoms: C_7  and  O_8 
ROOT
HETATM    1  C   UNK N   1      36.881  12.466  14.977  0.00  0.00     0.010 C 
ENDROOT
BRANCH   1   2
HETATM    2  C   UNK N   1      35.764  11.705  15.654  0.00  0.00     0.001 C 
BRANCH   2   3
HETATM    3  C   UNK N   1      34.876  12.731  16.325  0.00  0.00    -0.000 C 
BRANCH   3   4
HETATM    4  C   UNK N   1      35.133  12.783  17.814  0.00  0.00    -0.005 C 
HETATM    5  C   UNK N   1      35.337  14.228  18.217  0.00  0.00     0.005 C 
ENDBRANCH   3   4
ENDBRANCH   2   3
ENDBRANCH   1   2
BRANCH   1   6
HETATM    6  C   UNK N   1      36.452  13.867  14.578  0.00  0.00     0.110 C 
BRANCH   6   7
HETATM    7  C   UNK N   1      36.097  13.938  13.120  0.00  0.00     0.139 C 
HETATM    8  O   UNK N   1      34.932  13.875  12.752  0.00  0.00    -0.650 OA
BRANCH   7   9
HETATM    9  O   UNK N   1      37.074  14.072  12.204  0.00  0.00    -0.776 OA
HETATM   10  H   UNK N   1      37.024  14.753  11.563  0.00  0.00     0.167 HD
ENDBRANCH   7   9
ENDBRANCH   6   7
ENDBRANCH   1   6
TORSDOF 6
ENDMDL
MODEL 9
REMARK VINA RESULT:      -3.6     10.393     11.162
REMARK  6 active torsions:
REMARK  status: ('A' for Active; 'I' for Inactive)
REMARK    1  A    between atoms: C_2  and  C_3 
REMARK    2  A    between atoms: C_3  and  C_4 
REMARK    3  A    between atoms: C_4  and  C_5 
REMARK    4  A    between atoms: C_5  and  C_6 
REMARK    5  A    between atoms: C_6  and  C_7 
REMARK    6  A    between atoms: C_7  and  O_8 
ROOT
HETATM    1  C   UNK N   1      35.449  11.764  17.213  0.00  0.00     0.010 C 
ENDROOT
BRANCH   1   2
HETATM    2  C   UNK N   1      35.576  11.175  15.827  0.00  0.00     0.001 C 
BRANCH   2   3
HETATM    3  C   UNK N   1      34.320  10.369  15.574  0.00  0.00    -0.000 C 
BRANCH   3   4
HETATM    4  C   UNK N   1      33.784  10.618  14.182  0.00  0.00    -0.005 C 
HETATM    5  C   UNK N   1      34.576  11.747  13.556  0.00  0.00     0.005 C 
ENDBRANCH   3   4
ENDBRANCH   2   3
ENDBRANCH   1   2
BRANCH   1   6
HETATM    6  C   UNK N   1      34.992  13.212  17.175  0.00  0.00     0.110 C 
BRANCH   6   7
HETATM    7  C   UNK N   1      35.226  13.895  18.493  0.00  0.00     0.139 C 
HETATM    8  O   UNK N   1      35.154  13.275  19.544  0.00  0.00    -0.650 OA
BRANCH   7   9
HETATM    9  O   UNK N   1      35.519  15.208  18.517  0.00  0.00    -0.776 OA
HETATM   10  H   UNK N   1      35.876  15.594  19.292  0.00  0.00     0.167 HD
ENDBRANCH   7   9
ENDBRANCH   6   7
ENDBRANCH   1   6
TORSDOF 6
ENDMDL
