MODEL 1
REMARK VINA RESULT:      -3.2      0.000      0.000
REMARK  2 active torsions:
REMARK  status: ('A' for Active; 'I' for Inactive)
REMARK    1  A    between atoms: C_2  and  N_3 
REMARK    2  A    between atoms: N_3  and  O_5 
ROOT
HETATM    1  N   UNK N   1      18.186  19.569  10.711  0.00  0.00    -0.305 N 
ATOM      2  HN  UNK N   1      18.114  19.770   9.712  1.00  0.00     0.187 HD
ENDROOT
BRANCH   1   3
HETATM    3  C   UNK N   1      17.083  18.960  11.400  0.00  0.00     0.141 C 
HETATM    4  C   UNK N   1      17.416  18.873  12.873  0.00  0.00     0.028 C 
ENDBRANCH   1   3
BRANCH   1   5
HETATM    5  O   UNK N   1      19.184  19.839  11.300  0.00  0.00    -0.295 OA
ATOM      6  HO  UNK N   1      19.489  19.278  12.003  1.00  0.00     0.244 HD
ENDBRANCH   1   5
TORSDOF 2
ENDMDL
MODEL 2
REMARK VINA RESULT:      -3.0     10.410     10.657
REMARK  2 active torsions:
REMARK  status: ('A' for Active; 'I' for Inactive)
REMARK    1  A    between atoms: C_2  and  N_3 
REMARK    2  A    between atoms: N_3  and  O_5 
ROOT
HETATM    1  N   UNK N   1      20.299  21.062   0.806  0.00  0.00    -0.305 N 
ATOM      2  HN  UNK N   1      19.587  21.793   0.771  1.00  0.00     0.187 HD
ENDROOT
BRANCH   1   3
HETATM    3  C   UNK N   1      20.905  20.714   2.060  0.00  0.00     0.141 C 
HETATM    4  C   UNK N   1      20.042  19.680   2.749  0.00  0.00     0.028 C 
ENDBRANCH   1   3
BRANCH   1   5
HETATM    5  O   UNK N   1      20.624  20.501  -0.191  0.00  0.00    -0.295 OA
ATOM      6  HO  UNK N   1      20.165  20.670  -1.005  1.00  0.00     0.244 HD
ENDBRANCH   1   5
TORSDOF 2
ENDMDL
MODEL 3
REMARK VINA RESULT:      -2.9     31.195     31.333
REMARK  2 active torsions:
REMARK  status: ('A' for Active; 'I' for Inactive)
REMARK    1  A    between atoms: C_2  and  N_3 
REMARK    2  A    between atoms: N_3  and  O_5 
ROOT
HETATM    1  N   UNK N   1      47.024  28.836  16.381  0.00  0.00    -0.305 N 
ATOM      2  HN  UNK N   1      46.010  28.764  16.288  1.00  0.00     0.187 HD
ENDROOT
BRANCH   1   3
HETATM    3  C   UNK N   1      47.598  29.343  17.596  0.00  0.00     0.141 C 
HETATM    4  C   UNK N   1      46.489  29.583  18.597  0.00  0.00     0.028 C 
ENDBRANCH   1   3
BRANCH   1   5
HETATM    5  O   UNK N   1      47.728  28.498  15.483  0.00  0.00    -0.295 OA
ATOM      6  HO  UNK N   1      48.389  27.830  15.621  1.00  0.00     0.244 HD
ENDBRANCH   1   5
TORSDOF 2
ENDMDL
MODEL 4
REMARK VINA RESULT:      -2.8      9.476      9.614
REMARK  2 active torsions:
REMARK  status: ('A' for Active; 'I' for Inactive)
REMARK    1  A    between atoms: C_2  and  N_3 
REMARK    2  A    between atoms: N_3  and  O_5 
ROOT
HETATM    1  N   UNK N   1      25.913  20.945   8.161  0.00  0.00    -0.305 N 
ATOM      2  HN  UNK N   1      26.449  20.127   8.452  1.00  0.00     0.187 HD
ENDROOT
BRANCH   1   3
HETATM    3  C   UNK N   1      26.245  21.619   6.937  0.00  0.00     0.141 C 
HETATM    4  C   UNK N   1      27.485  20.984   6.350  0.00  0.00     0.028 C 
ENDBRANCH   1   3
BRANCH   1   5
HETATM    5  O   UNK N   1      25.016  21.338   8.836  0.00  0.00    -0.295 OA
ATOM      6  HO  UNK N   1      25.073  21.288   9.783  1.00  0.00     0.244 HD
ENDBRANCH   1   5
TORSDOF 2
ENDMDL
MODEL 5
REMARK VINA RESULT:      -2.7      9.083      9.101
REMARK  2 active torsions:
REMARK  status: ('A' for Active; 'I' for Inactive)
REMARK    1  A    between atoms: C_2  and  N_3 
REMARK    2  A    between atoms: N_3  and  O_5 
ROOT
HETATM    1  N   UNK N   1      23.904  12.305  11.841  0.00  0.00    -0.305 N 
ATOM      2  HN  UNK N   1      23.488  12.653  12.706  1.00  0.00     0.187 HD
ENDROOT
BRANCH   1   3
HETATM    3  C   UNK N   1      23.069  11.714  10.833  0.00  0.00     0.141 C 
HETATM    4  C   UNK N   1      21.659  12.236  10.999  0.00  0.00     0.028 C 
ENDBRANCH   1   3
BRANCH   1   5
HETATM    5  O   UNK N   1      25.078  12.389  11.670  0.00  0.00    -0.295 OA
ATOM      6  HO  UNK N   1      25.631  11.624  11.775  1.00  0.00     0.244 HD
ENDBRANCH   1   5
TORSDOF 2
ENDMDL
MODEL 6
REMARK VINA RESULT:      -2.6     11.135     11.135
REMARK  2 active torsions:
REMARK  status: ('A' for Active; 'I' for Inactive)
REMARK    1  A    between atoms: C_2  and  N_3 
REMARK    2  A    between atoms: N_3  and  O_5 
ROOT
HETATM    1  N   UNK N   1      27.730  18.749   8.801  0.00  0.00    -0.305 N 
ATOM      2  HN  UNK N   1      27.105  19.537   8.628  1.00  0.00     0.187 HD
ENDROOT
BRANCH   1   3
HETATM    3  C   UNK N   1      29.034  18.724   8.200  0.00  0.00     0.141 C 
HETATM    4  C   UNK N   1      30.076  18.674   9.295  0.00  0.00     0.028 C 
ENDBRANCH   1   3
BRANCH   1   5
HETATM    5  O   UNK N   1      27.378  17.854   9.501  0.00  0.00    -0.295 OA
ATOM      6  HO  UNK N   1      26.452  17.678   9.621  1.00  0.00     0.244 HD
ENDBRANCH   1   5
TORSDOF 2
ENDMDL
MODEL 7
REMARK VINA RESULT:      -2.6     10.551     10.588
REMARK  2 active torsions:
REMARK  status: ('A' for Active; 'I' for Inactive)
REMARK    1  A    between atoms: C_2  and  N_3 
REMARK    2  A    between atoms: N_3  and  O_5 
ROOT
HETATM    1  N   UNK N   1      27.500  19.007   8.744  0.00  0.00    -0.305 N 
ATOM      2  HN  UNK N   1      27.070  19.852   9.121  1.00  0.00     0.187 HD
ENDROOT
BRANCH   1   3
HETATM    3  C   UNK N   1      28.138  19.040   7.459  0.00  0.00     0.141 C 
HETATM    4  C   UNK N   1      27.605  20.221   6.679  0.00  0.00     0.028 C 
ENDBRANCH   1   3
BRANCH   1   5
HETATM    5  O   UNK N   1      27.470  17.995   9.371  0.00  0.00    -0.295 OA
ATOM      6  HO  UNK N   1      28.216  17.741   9.902  1.00  0.00     0.244 HD
ENDBRANCH   1   5
TORSDOF 2
ENDMDL
MODEL 8
REMARK VINA RESULT:      -2.6     19.659     19.819
REMARK  2 active torsions:
REMARK  status: ('A' for Active; 'I' for Inactive)
REMARK    1  A    between atoms: C_2  and  N_3 
REMARK    2  A    between atoms: N_3  and  O_5 
ROOT
HETATM    1  N   UNK N   1      35.009  12.957  20.414  0.00  0.00    -0.305 N 
ATOM      2  HN  UNK N   1      35.444  12.360  21.119  1.00  0.00     0.187 HD
ENDROOT
BRANCH   1   3
HETATM    3  C   UNK N   1      35.202  12.675  19.019  0.00  0.00     0.141 C 
HETATM    4  C   UNK N   1      35.216  13.980  18.255  0.00  0.00     0.028 C 
ENDBRANCH   1   3
BRANCH   1   5
HETATM    5  O   UNK N   1      34.345  13.885  20.750  0.00  0.00    -0.295 OA
ATOM      6  HO  UNK N   1      34.759  14.699  21.009  1.00  0.00     0.244 HD
ENDBRANCH   1   5
TORSDOF 2
ENDMDL
MODEL 9
REMARK VINA RESULT:      -2.6     17.058     17.073
REMARK  2 active torsions:
REMARK  status: ('A' for Active; 'I' for Inactive)
REMARK    1  A    between atoms: C_2  and  N_3 
REMARK    2  A    between atoms: N_3  and  O_5 
ROOT
HETATM    1  N   UNK N   1      34.580  17.088  10.201  0.00  0.00    -0.305 N 
ATOM      2  HN  UNK N   1      33.979  16.865  10.995  1.00  0.00     0.187 HD
ENDROOT
BRANCH   1   3
HETATM    3  C   UNK N   1      34.048  17.045   8.867  0.00  0.00     0.141 C 
HETATM    4  C   UNK N   1      34.445  18.313   8.143  0.00  0.00     0.028 C 
ENDBRANCH   1   3
BRANCH   1   5
HETATM    5  O   UNK N   1      35.719  17.381  10.381  0.00  0.00    -0.295 OA
ATOM      6  HO  UNK N   1      36.381  16.704  10.446  1.00  0.00     0.244 HD
ENDBRANCH   1   5
TORSDOF 2
ENDMDL
