MODEL 1
REMARK VINA RESULT:      -3.2      0.000      0.000
REMARK  3 active torsions:
REMARK  status: ('A' for Active; 'I' for Inactive)
REMARK    1  A    between atoms: O_2  and  C_3 
REMARK    2  A    between atoms: C_3  and  C_4 
REMARK    3  A    between atoms: C_4  and  O_5 
ROOT
HETATM    1  C   UNK N   1      34.572  17.190   9.173  0.00  0.00     0.193 C 
ENDROOT
BRANCH   1   2
HETATM    2  O   UNK N   1      35.493  17.502  10.169  0.00  0.00    -0.394 OA
HETATM    3  C   UNK N   1      35.502  16.379  10.992  0.00  0.00     0.201 C 
ENDBRANCH   1   2
BRANCH   1   4
HETATM    4  C   UNK N   1      34.503  18.326   8.177  0.00  0.00     0.190 C 
BRANCH   4   5
HETATM    5  O   UNK N   1      35.380  19.332   8.570  0.00  0.00    -0.399 OA
HETATM    6  H   UNK N   1      36.286  19.349   8.222  0.00  0.00     0.209 HD
ENDBRANCH   4   5
ENDBRANCH   1   4
TORSDOF 3
ENDMDL
MODEL 2
REMARK VINA RESULT:      -3.1     14.869     15.702
REMARK  3 active torsions:
REMARK  status: ('A' for Active; 'I' for Inactive)
REMARK    1  A    between atoms: O_2  and  C_3 
REMARK    2  A    between atoms: C_3  and  C_4 
REMARK    3  A    between atoms: C_4  and  O_5 
ROOT
HETATM    1  C   UNK N   1      21.552  20.296   2.143  0.00  0.00     0.193 C 
ENDROOT
BRANCH   1   2
HETATM    2  O   UNK N   1      22.397  21.205   2.772  0.00  0.00    -0.394 OA
HETATM    3  C   UNK N   1      23.589  20.504   2.941  0.00  0.00     0.201 C 
ENDBRANCH   1   2
BRANCH   1   4
HETATM    4  C   UNK N   1      20.587  21.042   1.249  0.00  0.00     0.190 C 
BRANCH   4   5
HETATM    5  O   UNK N   1      20.693  20.550  -0.048  0.00  0.00    -0.399 OA
HETATM    6  H   UNK N   1      20.949  21.143  -0.772  0.00  0.00     0.209 HD
ENDBRANCH   4   5
ENDBRANCH   1   4
TORSDOF 3
ENDMDL
MODEL 3
REMARK VINA RESULT:      -3.0     15.583     16.208
REMARK  3 active torsions:
REMARK  status: ('A' for Active; 'I' for Inactive)
REMARK    1  A    between atoms: O_2  and  C_3 
REMARK    2  A    between atoms: C_3  and  C_4 
REMARK    3  A    between atoms: C_4  and  O_5 
ROOT
HETATM    1  C   UNK N   1      21.276  20.982   2.340  0.00  0.00     0.193 C 
ENDROOT
BRANCH   1   2
HETATM    2  O   UNK N   1      20.560  20.698   3.499  0.00  0.00    -0.394 OA
HETATM    3  C   UNK N   1      21.005  19.433   3.875  0.00  0.00     0.201 C 
ENDBRANCH   1   2
BRANCH   1   4
HETATM    4  C   UNK N   1      20.777  20.108   1.211  0.00  0.00     0.190 C 
BRANCH   4   5
HETATM    5  O   UNK N   1      20.803  20.834   0.025  0.00  0.00    -0.399 OA
HETATM    6  H   UNK N   1      21.123  21.750   0.024  0.00  0.00     0.209 HD
ENDBRANCH   4   5
ENDBRANCH   1   4
TORSDOF 3
ENDMDL
MODEL 4
REMARK VINA RESULT:      -2.9      1.087      2.992
REMARK  3 active torsions:
REMARK  status: ('A' for Active; 'I' for Inactive)
REMARK    1  A    between atoms: O_2  and  C_3 
REMARK    2  A    between atoms: C_3  and  C_4 
REMARK    3  A    between atoms: C_4  and  O_5 
ROOT
HETATM    1  C   UNK N   1      34.942  16.743   9.646  0.00  0.00     0.193 C 
ENDROOT
BRANCH   1   2
HETATM    2  O   UNK N   1      35.224  18.071   9.336  0.00  0.00    -0.394 OA
HETATM    3  C   UNK N   1      34.473  18.323   8.191  0.00  0.00     0.201 C 
ENDBRANCH   1   2
BRANCH   1   4
HETATM    4  C   UNK N   1      35.511  16.412  11.007  0.00  0.00     0.190 C 
BRANCH   4   5
HETATM    5  O   UNK N   1      36.871  16.143  10.881  0.00  0.00    -0.399 OA
HETATM    6  H   UNK N   1      37.204  15.689  10.091  0.00  0.00     0.209 HD
ENDBRANCH   4   5
ENDBRANCH   1   4
TORSDOF 3
ENDMDL
MODEL 5
REMARK VINA RESULT:      -2.8      2.037      3.396
REMARK  3 active torsions:
REMARK  status: ('A' for Active; 'I' for Inactive)
REMARK    1  A    between atoms: O_2  and  C_3 
REMARK    2  A    between atoms: C_3  and  C_4 
REMARK    3  A    between atoms: C_4  and  O_5 
ROOT
HETATM    1  C   UNK N   1      34.395  17.120   7.331  0.00  0.00     0.193 C 
ENDROOT
BRANCH   1   2
HETATM    2  O   UNK N   1      34.280  18.011   6.268  0.00  0.00    -0.394 OA
HETATM    3  C   UNK N   1      33.357  17.409   5.415  0.00  0.00     0.201 C 
ENDBRANCH   1   2
BRANCH   1   4
HETATM    4  C   UNK N   1      34.499  17.893   8.626  0.00  0.00     0.190 C 
BRANCH   4   5
HETATM    5  O   UNK N   1      35.209  19.069   8.401  0.00  0.00    -0.399 OA
HETATM    6  H   UNK N   1      35.997  19.269   8.930  0.00  0.00     0.209 HD
ENDBRANCH   4   5
ENDBRANCH   1   4
TORSDOF 3
ENDMDL
MODEL 6
REMARK VINA RESULT:      -2.6     13.233     13.738
REMARK  3 active torsions:
REMARK  status: ('A' for Active; 'I' for Inactive)
REMARK    1  A    between atoms: O_2  and  C_3 
REMARK    2  A    between atoms: C_3  and  C_4 
REMARK    3  A    between atoms: C_4  and  O_5 
ROOT
HETATM    1  C   UNK N   1      23.574  12.178  11.177  0.00  0.00     0.193 C 
ENDROOT
BRANCH   1   2
HETATM    2  O   UNK N   1      22.678  13.040  10.552  0.00  0.00    -0.394 OA
HETATM    3  C   UNK N   1      21.439  12.427  10.722  0.00  0.00     0.201 C 
ENDBRANCH   1   2
BRANCH   1   4
HETATM    4  C   UNK N   1      23.069  11.844  12.563  0.00  0.00     0.190 C 
BRANCH   4   5
HETATM    5  O   UNK N   1      23.895  12.445  13.508  0.00  0.00    -0.399 OA
HETATM    6  H   UNK N   1      24.739  12.030  13.748  0.00  0.00     0.209 HD
ENDBRANCH   4   5
ENDBRANCH   1   4
TORSDOF 3
ENDMDL
MODEL 7
REMARK VINA RESULT:      -2.5     17.300     17.530
REMARK  3 active torsions:
REMARK  status: ('A' for Active; 'I' for Inactive)
REMARK    1  A    between atoms: O_2  and  C_3 
REMARK    2  A    between atoms: C_3  and  C_4 
REMARK    3  A    between atoms: C_4  and  O_5 
ROOT
HETATM    1  C   UNK N   1      49.242  17.732  20.141  0.00  0.00     0.193 C 
ENDROOT
BRANCH   1   2
HETATM    2  O   UNK N   1      48.294  16.889  20.713  0.00  0.00    -0.394 OA
HETATM    3  C   UNK N   1      48.988  15.707  20.956  0.00  0.00     0.201 C 
ENDBRANCH   1   2
BRANCH   1   4
HETATM    4  C   UNK N   1      48.741  19.158  20.183  0.00  0.00     0.190 C 
BRANCH   4   5
HETATM    5  O   UNK N   1      47.490  19.184  20.793  0.00  0.00    -0.399 OA
HETATM    6  H   UNK N   1      46.703  18.910  20.296  0.00  0.00     0.209 HD
ENDBRANCH   4   5
ENDBRANCH   1   4
TORSDOF 3
ENDMDL
MODEL 8
REMARK VINA RESULT:      -2.5     11.444     11.735
REMARK  3 active torsions:
REMARK  status: ('A' for Active; 'I' for Inactive)
REMARK    1  A    between atoms: O_2  and  C_3 
REMARK    2  A    between atoms: C_3  and  C_4 
REMARK    3  A    between atoms: C_4  and  O_5 
ROOT
HETATM    1  C   UNK N   1      42.588  22.535   2.664  0.00  0.00     0.193 C 
ENDROOT
BRANCH   1   2
HETATM    2  O   UNK N   1      42.309  23.781   2.110  0.00  0.00    -0.394 OA
HETATM    3  C   UNK N   1      41.109  23.593   1.429  0.00  0.00     0.201 C 
ENDBRANCH   1   2
BRANCH   1   4
HETATM    4  C   UNK N   1      43.565  22.699   3.807  0.00  0.00     0.190 C 
BRANCH   4   5
HETATM    5  O   UNK N   1      43.539  24.020   4.244  0.00  0.00    -0.399 OA
HETATM    6  H   UNK N   1      42.783  24.588   4.026  0.00  0.00     0.209 HD
ENDBRANCH   4   5
ENDBRANCH   1   4
TORSDOF 3
ENDMDL
MODEL 9
REMARK VINA RESULT:      -2.5     12.356     13.240
REMARK  3 active torsions:
REMARK  status: ('A' for Active; 'I' for Inactive)
REMARK    1  A    between atoms: O_2  and  C_3 
REMARK    2  A    between atoms: C_3  and  C_4 
REMARK    3  A    between atoms: C_4  and  O_5 
ROOT
HETATM    1  C   UNK N   1      44.307  23.148   2.687  0.00  0.00     0.193 C 
ENDROOT
BRANCH   1   2
HETATM    2  O   UNK N   1      44.704  24.413   3.111  0.00  0.00    -0.394 OA
HETATM    3  C   UNK N   1      45.531  24.873   2.090  0.00  0.00     0.201 C 
ENDBRANCH   1   2
BRANCH   1   4
HETATM    4  C   UNK N   1      44.507  22.155   3.811  0.00  0.00     0.190 C 
BRANCH   4   5
HETATM    5  O   UNK N   1      45.821  22.233   4.261  0.00  0.00    -0.399 OA
HETATM    6  H   UNK N   1      46.537  22.432   3.637  0.00  0.00     0.209 HD
ENDBRANCH   4   5
ENDBRANCH   1   4
TORSDOF 3
ENDMDL
