MODEL 1
REMARK VINA RESULT:      -8.6      0.000      0.000
REMARK  16 active torsions:
REMARK  status: ('A' for Active; 'I' for Inactive)
REMARK    1  A    between atoms: C_25  and  C_19 
REMARK    2  A    between atoms: C_26  and  C_19 
REMARK    3  A    between atoms: C_26  and  C_20 
REMARK    4  A    between atoms: C_27  and  C_20 
REMARK    5  A    between atoms: C_27  and  C_22 
REMARK    6  A    between atoms: N_49  and  C_22 
REMARK    7  A    between atoms: C_26  and  C_34 
REMARK    8  A    between atoms: C_27  and  O_51 
REMARK    9  A    between atoms: C_36  and  C_28 
REMARK   10  A    between atoms: C_29  and  C_35 
REMARK   11  A    between atoms: C_30  and  O_52 
REMARK   12  A    between atoms: C_31  and  N_43 
REMARK   13  A    between atoms: N_48  and  C_33 
REMARK   14  A    between atoms: C_34  and  O_53 
REMARK   15  A    between atoms: O_54  and  C_35 
REMARK       I    between atoms: N_50  and  C_36 
REMARK   16  A    between atoms: N_45  and  C_37 
ROOT
HETATM    1  C   UNK N   1      32.480  14.923   9.371  0.00  0.00     0.137 C 
HETATM    2  C   UNK N   1      33.483  15.245  10.481  0.00  0.00     0.145 C 
HETATM    3  C   UNK N   1      34.997  16.237   8.814  0.00  0.00     0.159 C 
HETATM    4  C   UNK N   1      34.005  15.900   7.708  0.00  0.00     0.172 C 
HETATM    5  C   UNK N   1      35.831  14.565  10.415  0.00  0.00     0.271 C 
HETATM    6  N   UNK N   1      32.618  15.864   8.252  0.00  0.00    -0.396 N 
HETATM    7  N   UNK N   1      34.811  15.342   9.930  0.00  0.00    -0.343 N 
HETATM    8  O   UNK N   1      36.885  14.478   9.803  0.00  0.00    -0.266 OA
ENDROOT
BRANCH   6   9
HETATM    9  C   UNK N   1      31.861  17.123   8.449  0.00  0.00     0.149 C 
BRANCH   9  10
HETATM   10  C   UNK N   1      30.325  17.055   8.606  0.00  0.00     0.136 C 
BRANCH  10  11
HETATM   11  C   UNK N   1      29.550  18.138   7.812  0.00  0.00     0.046 C 
BRANCH  11  12
HETATM   12  C   UNK N   1      28.745  17.617   6.618  0.00  0.00     0.067 C 
BRANCH  12  13
HETATM   13  C   UNK N   1      29.709  17.291   5.467  0.00  0.00     0.051 C 
BRANCH  13  14
HETATM   14  C   UNK N   1      29.209  16.176   4.597  0.00  0.00    -0.057 A 
HETATM   15  C   UNK N   1      29.345  16.223   3.203  0.00  0.00     0.007 A 
HETATM   16  C   UNK N   1      28.852  15.190   2.407  0.00  0.00     0.001 A 
HETATM   17  C   UNK N   1      28.221  14.096   3.002  0.00  0.00     0.000 A 
HETATM   18  C   UNK N   1      28.089  14.038   4.393  0.00  0.00     0.001 A 
HETATM   19  C   UNK N   1      28.581  15.078   5.189  0.00  0.00     0.007 A 
ENDBRANCH  13  14
ENDBRANCH  12  13
BRANCH  12  20
HETATM   20  C   UNK N   1      27.619  18.568   6.219  0.00  0.00     0.116 C 
HETATM   21  N   UNK N   1      27.001  18.415   5.093  0.00  0.00    -0.367 N 
ATOM     22  HN  UNK N   1      27.413  17.770   4.419  1.00  0.00     0.161 HD
BRANCH  21  23
HETATM   23  C   UNK N   1      25.766  19.085   4.706  0.00  0.00     0.115 C 
HETATM   24  C   UNK N   1      24.586  18.119   4.719  0.00  0.00     0.007 C 
HETATM   25  C   UNK N   1      24.845  16.864   3.889  0.00  0.00     0.012 C 
HETATM   26  C   UNK N   1      23.484  18.929   4.049  0.00  0.00     0.009 C 
HETATM   27  C   UNK N   1      24.196  19.930   3.132  0.00  0.00     0.034 C 
HETATM   28  C   UNK N   1      25.686  19.666   3.304  0.00  0.00     0.141 C 
BRANCH  28  29
HETATM   29  O   UNK N   1      26.403  20.855   3.182  0.00  0.00    -0.394 OA
HETATM   30  H   UNK N   1      27.198  21.088   2.678  0.00  0.00     0.210 HD
ENDBRANCH  28  29
ENDBRANCH  21  23
BRANCH  20  31
HETATM   31  O   UNK N   1      27.197  19.486   7.111  0.00  0.00    -0.349 OA
HETATM   32  H   UNK N   1      26.431  20.007   7.248  0.00  0.00     0.219 HD
ENDBRANCH  20  31
ENDBRANCH  12  20
ENDBRANCH  11  12
ENDBRANCH  10  11
BRANCH  10  33
HETATM   33  O   UNK N   1      30.026  17.186   9.963  0.00  0.00    -0.394 OA
HETATM   34  H   UNK N   1      30.344  17.889  10.550  0.00  0.00     0.210 HD
ENDBRANCH  10  33
ENDBRANCH   9  10
ENDBRANCH   6   9
BRANCH   4  35
HETATM   35  C   UNK N   1      34.174  16.805   6.485  0.00  0.00     0.136 C 
HETATM   36  N   UNK N   1      34.004  16.401   5.258  0.00  0.00    -0.365 N 
ATOM     37  HN  UNK N   1      34.092  17.126   4.547  1.00  0.00     0.162 HD
BRANCH  36  38
HETATM   38  C   UNK N   1      33.705  15.066   4.748  0.00  0.00     0.021 C 
HETATM   39  C   UNK N   1      34.814  14.081   5.071  0.00  0.00     0.037 C 
HETATM   40  C   UNK N   1      33.645  15.151   3.238  0.00  0.00     0.037 C 
HETATM   41  C   UNK N   1      32.359  14.547   5.224  0.00  0.00     0.037 C 
ENDBRANCH  36  38
BRANCH  35  42
HETATM   42  O   UNK N   1      34.464  18.107   6.677  0.00  0.00    -0.348 OA
HETATM   43  H   UNK N   1      34.977  18.574   6.047  0.00  0.00     0.219 HD
ENDBRANCH  35  42
ENDBRANCH   4  35
BRANCH   5  44
HETATM   44  C   UNK N   1      35.665  13.854  11.706  0.00  0.00     0.117 A 
HETATM   45  C   UNK N   1      35.006  12.625  11.834  0.00  0.00     0.125 A 
HETATM   46  N   UNK N   1      34.849  12.082  13.079  0.00  0.00    -0.347 N 
HETATM   47  C   UNK N   1      35.356  12.694  14.193  0.00  0.00     0.142 A 
ATOM     48  HN  UNK N   1      34.342  11.202  13.180  1.00  0.00     0.167 HD
HETATM   49  C   UNK N   1      36.126  13.858  14.026  0.00  0.00     0.148 A 
HETATM   50 Cl   UNK N   1      37.064  14.578  15.313  0.00  0.00    -0.060 Cl
HETATM   51  N   UNK N   1      36.237  14.400  12.802  0.00  0.00    -0.338 N 
ATOM     52  HN  UNK N   1      36.775  15.261  12.696  1.00  0.00     0.167 HD
BRANCH  47  53
HETATM   53  N   UNK N   1      35.071  12.181  15.493  0.00  0.00    -0.361 N 
HETATM   54  C   UNK N   1      35.375  10.823  15.861  0.00  0.00     0.154 C 
HETATM   55  C   UNK N   1      36.070  10.865  17.231  0.00  0.00     0.291 C 
HETATM   56  N   UNK N   1      35.235  11.583  18.206  0.00  0.00     0.087 N 
HETATM   57  C   UNK N   1      35.964  11.644  19.459  0.00  0.00     0.310 C 
HETATM   58  C   UNK N   1      35.040  12.965  17.773  0.00  0.00     0.291 C 
HETATM   59  C   UNK N   1      34.317  12.974  16.439  0.00  0.00     0.154 C 
ENDBRANCH  47  53
ENDBRANCH   5  44
TORSDOF 16
ENDMDL
MODEL 2
REMARK VINA RESULT:      -8.4      1.696      2.824
REMARK  16 active torsions:
REMARK  status: ('A' for Active; 'I' for Inactive)
REMARK    1  A    between atoms: C_25  and  C_19 
REMARK    2  A    between atoms: C_26  and  C_19 
REMARK    3  A    between atoms: C_26  and  C_20 
REMARK    4  A    between atoms: C_27  and  C_20 
REMARK    5  A    between atoms: C_27  and  C_22 
REMARK    6  A    between atoms: N_49  and  C_22 
REMARK    7  A    between atoms: C_26  and  C_34 
REMARK    8  A    between atoms: C_27  and  O_51 
REMARK    9  A    between atoms: C_36  and  C_28 
REMARK   10  A    between atoms: C_29  and  C_35 
REMARK   11  A    between atoms: C_30  and  O_52 
REMARK   12  A    between atoms: C_31  and  N_43 
REMARK   13  A    between atoms: N_48  and  C_33 
REMARK   14  A    between atoms: C_34  and  O_53 
REMARK   15  A    between atoms: O_54  and  C_35 
REMARK       I    between atoms: N_50  and  C_36 
REMARK   16  A    between atoms: N_45  and  C_37 
ROOT
HETATM    1  C   UNK N   1      32.513  14.832   9.326  0.00  0.00     0.137 C 
HETATM    2  C   UNK N   1      33.418  15.223  10.497  0.00  0.00     0.145 C 
HETATM    3  C   UNK N   1      34.937  16.361   8.931  0.00  0.00     0.159 C 
HETATM    4  C   UNK N   1      34.044  15.955   7.764  0.00  0.00     0.172 C 
HETATM    5  C   UNK N   1      35.815  14.745  10.565  0.00  0.00     0.271 C 
HETATM    6  N   UNK N   1      32.636  15.795   8.225  0.00  0.00    -0.396 N 
HETATM    7  N   UNK N   1      34.763  15.439  10.027  0.00  0.00    -0.343 N 
HETATM    8  O   UNK N   1      36.907  14.755  10.017  0.00  0.00    -0.266 OA
ENDROOT
BRANCH   6   9
HETATM    9  C   UNK N   1      31.764  16.983   8.386  0.00  0.00     0.149 C 
BRANCH   9  10
HETATM   10  C   UNK N   1      30.258  16.855   8.065  0.00  0.00     0.136 C 
BRANCH  10  11
HETATM   11  C   UNK N   1      29.829  17.507   6.726  0.00  0.00     0.046 C 
BRANCH  11  12
HETATM   12  C   UNK N   1      28.893  16.661   5.859  0.00  0.00     0.067 C 
BRANCH  12  13
HETATM   13  C   UNK N   1      28.907  17.208   4.424  0.00  0.00     0.051 C 
BRANCH  13  14
HETATM   14  C   UNK N   1      27.818  18.210   4.180  0.00  0.00    -0.057 A 
HETATM   15  C   UNK N   1      26.591  17.830   3.619  0.00  0.00     0.007 A 
HETATM   16  C   UNK N   1      25.599  18.779   3.375  0.00  0.00     0.001 A 
HETATM   17  C   UNK N   1      25.826  20.119   3.696  0.00  0.00     0.000 A 
HETATM   18  C   UNK N   1      27.045  20.504   4.264  0.00  0.00     0.001 A 
HETATM   19  C   UNK N   1      28.040  19.551   4.504  0.00  0.00     0.007 A 
ENDBRANCH  13  14
ENDBRANCH  12  13
BRANCH  12  20
HETATM   20  C   UNK N   1      27.493  16.550   6.456  0.00  0.00     0.116 C 
HETATM   21  N   UNK N   1      26.749  15.523   6.195  0.00  0.00    -0.367 N 
ATOM     22  HN  UNK N   1      27.055  14.904   5.445  1.00  0.00     0.161 HD
BRANCH  21  23
HETATM   23  C   UNK N   1      25.511  15.177   6.883  0.00  0.00     0.115 C 
HETATM   24  C   UNK N   1      25.451  13.685   7.192  0.00  0.00     0.007 C 
HETATM   25  C   UNK N   1      25.685  12.819   5.955  0.00  0.00     0.012 C 
HETATM   26  C   UNK N   1      24.011  13.497   7.653  0.00  0.00     0.009 C 
HETATM   27  C   UNK N   1      23.204  14.609   6.973  0.00  0.00     0.034 C 
HETATM   28  C   UNK N   1      24.204  15.402   6.143  0.00  0.00     0.141 C 
BRANCH  28  29
HETATM   29  O   UNK N   1      23.841  16.748   6.107  0.00  0.00    -0.394 OA
HETATM   30  H   UNK N   1      23.750  17.417   6.803  0.00  0.00     0.210 HD
ENDBRANCH  28  29
ENDBRANCH  21  23
BRANCH  20  31
HETATM   31  O   UNK N   1      27.095  17.472   7.355  0.00  0.00    -0.349 OA
HETATM   32  H   UNK N   1      27.261  18.377   7.529  0.00  0.00     0.219 HD
ENDBRANCH  20  31
ENDBRANCH  12  20
ENDBRANCH  11  12
ENDBRANCH  10  11
BRANCH  10  33
HETATM   33  O   UNK N   1      29.544  17.447   9.108  0.00  0.00    -0.394 OA
HETATM   34  H   UNK N   1      29.468  17.102  10.011  0.00  0.00     0.210 HD
ENDBRANCH  10  33
ENDBRANCH   9  10
ENDBRANCH   6   9
BRANCH   4  35
HETATM   35  C   UNK N   1      34.207  16.887   6.561  0.00  0.00     0.136 C 
HETATM   36  N   UNK N   1      33.977  16.525   5.331  0.00  0.00    -0.365 N 
ATOM     37  HN  UNK N   1      34.070  17.265   4.637  1.00  0.00     0.162 HD
BRANCH  36  38
HETATM   38  C   UNK N   1      33.606  15.217   4.796  0.00  0.00     0.021 C 
HETATM   39  C   UNK N   1      32.223  14.794   5.258  0.00  0.00     0.037 C 
HETATM   40  C   UNK N   1      34.569  14.196   5.360  0.00  0.00     0.037 C 
HETATM   41  C   UNK N   1      33.718  15.154   3.282  0.00  0.00     0.037 C 
ENDBRANCH  36  38
BRANCH  35  42
HETATM   42  O   UNK N   1      34.557  18.170   6.777  0.00  0.00    -0.348 OA
HETATM   43  H   UNK N   1      34.137  18.667   7.452  0.00  0.00     0.219 HD
ENDBRANCH  35  42
ENDBRANCH   4  35
BRANCH   5  44
HETATM   44  C   UNK N   1      35.635  14.007  11.839  0.00  0.00     0.117 A 
HETATM   45  C   UNK N   1      34.904  12.817  11.947  0.00  0.00     0.125 A 
HETATM   46  N   UNK N   1      34.741  12.247  13.179  0.00  0.00    -0.347 N 
HETATM   47  C   UNK N   1      35.311  12.792  14.297  0.00  0.00     0.142 A 
ATOM     48  HN  UNK N   1      34.183  11.398  13.267  1.00  0.00     0.167 HD
HETATM   49  C   UNK N   1      36.148  13.910  14.145  0.00  0.00     0.148 A 
HETATM   50 Cl   UNK N   1      37.159  14.531  15.429  0.00  0.00    -0.060 Cl
HETATM   51  N   UNK N   1      36.265  14.482  12.935  0.00  0.00    -0.338 N 
ATOM     52  HN  UNK N   1      36.854  15.310  12.841  1.00  0.00     0.167 HD
BRANCH  47  53
HETATM   53  N   UNK N   1      35.025  12.258  15.588  0.00  0.00    -0.361 N 
HETATM   54  C   UNK N   1      35.239  10.869  15.905  0.00  0.00     0.154 C 
HETATM   55  C   UNK N   1      35.971  10.816  17.255  0.00  0.00     0.291 C 
HETATM   56  N   UNK N   1      35.217  11.559  18.275  0.00  0.00     0.087 N 
HETATM   57  C   UNK N   1      35.982  11.526  19.508  0.00  0.00     0.310 C 
HETATM   58  C   UNK N   1      35.112  12.965  17.891  0.00  0.00     0.291 C 
HETATM   59  C   UNK N   1      34.356  13.071  16.581  0.00  0.00     0.154 C 
ENDBRANCH  47  53
ENDBRANCH   5  44
TORSDOF 16
ENDMDL
MODEL 3
REMARK VINA RESULT:      -8.3      1.572      3.478
REMARK  16 active torsions:
REMARK  status: ('A' for Active; 'I' for Inactive)
REMARK    1  A    between atoms: C_25  and  C_19 
REMARK    2  A    between atoms: C_26  and  C_19 
REMARK    3  A    between atoms: C_26  and  C_20 
REMARK    4  A    between atoms: C_27  and  C_20 
REMARK    5  A    between atoms: C_27  and  C_22 
REMARK    6  A    between atoms: N_49  and  C_22 
REMARK    7  A    between atoms: C_26  and  C_34 
REMARK    8  A    between atoms: C_27  and  O_51 
REMARK    9  A    between atoms: C_36  and  C_28 
REMARK   10  A    between atoms: C_29  and  C_35 
REMARK   11  A    between atoms: C_30  and  O_52 
REMARK   12  A    between atoms: C_31  and  N_43 
REMARK   13  A    between atoms: N_48  and  C_33 
REMARK   14  A    between atoms: C_34  and  O_53 
REMARK   15  A    between atoms: O_54  and  C_35 
REMARK       I    between atoms: N_50  and  C_36 
REMARK   16  A    between atoms: N_45  and  C_37 
ROOT
HETATM    1  C   UNK N   1      32.450  15.149   9.432  0.00  0.00     0.137 C 
HETATM    2  C   UNK N   1      33.577  15.325  10.452  0.00  0.00     0.145 C 
HETATM    3  C   UNK N   1      35.107  15.972   8.636  0.00  0.00     0.159 C 
HETATM    4  C   UNK N   1      33.988  15.779   7.620  0.00  0.00     0.172 C 
HETATM    5  C   UNK N   1      35.758  14.235  10.251  0.00  0.00     0.271 C 
HETATM    6  N   UNK N   1      32.663  16.010   8.262  0.00  0.00    -0.396 N 
HETATM    7  N   UNK N   1      34.855  15.164   9.804  0.00  0.00    -0.343 N 
HETATM    8  O   UNK N   1      36.729  13.940   9.572  0.00  0.00    -0.266 OA
ENDROOT
BRANCH   6   9
HETATM    9  C   UNK N   1      32.156  17.391   8.452  0.00  0.00     0.149 C 
BRANCH   9  10
HETATM   10  C   UNK N   1      30.729  17.593   9.009  0.00  0.00     0.136 C 
BRANCH  10  11
HETATM   11  C   UNK N   1      29.627  16.806   8.255  0.00  0.00     0.046 C 
BRANCH  11  12
HETATM   12  C   UNK N   1      29.298  17.327   6.853  0.00  0.00     0.067 C 
BRANCH  12  13
HETATM   13  C   UNK N   1      27.780  17.531   6.739  0.00  0.00     0.051 C 
BRANCH  13  14
HETATM   14  C   UNK N   1      27.421  18.721   5.899  0.00  0.00    -0.057 A 
HETATM   15  C   UNK N   1      27.061  18.580   4.552  0.00  0.00     0.007 A 
HETATM   16  C   UNK N   1      26.756  19.699   3.779  0.00  0.00     0.001 A 
HETATM   17  C   UNK N   1      26.804  20.972   4.350  0.00  0.00     0.000 A 
HETATM   18  C   UNK N   1      27.153  21.120   5.696  0.00  0.00     0.001 A 
HETATM   19  C   UNK N   1      27.463  19.996   6.469  0.00  0.00     0.007 A 
ENDBRANCH  13  14
ENDBRANCH  12  13
BRANCH  12  20
HETATM   20  C   UNK N   1      29.879  16.443   5.755  0.00  0.00     0.116 C 
HETATM   21  N   UNK N   1      29.258  15.371   5.379  0.00  0.00    -0.367 N 
ATOM     22  HN  UNK N   1      28.485  15.052   5.962  1.00  0.00     0.161 HD
BRANCH  21  23
HETATM   23  C   UNK N   1      29.568  14.584   4.192  0.00  0.00     0.115 C 
HETATM   24  C   UNK N   1      28.860  15.138   2.961  0.00  0.00     0.007 C 
HETATM   25  C   UNK N   1      27.355  15.298   3.170  0.00  0.00     0.012 C 
HETATM   26  C   UNK N   1      29.095  14.050   1.921  0.00  0.00     0.009 C 
HETATM   27  C   UNK N   1      29.273  12.748   2.709  0.00  0.00     0.034 C 
HETATM   28  C   UNK N   1      29.136  13.127   4.177  0.00  0.00     0.141 C 
BRANCH  28  29
HETATM   29  O   UNK N   1      29.961  12.323   4.962  0.00  0.00    -0.394 OA
HETATM   30  H   UNK N   1      30.916  12.156   4.946  0.00  0.00     0.210 HD
ENDBRANCH  28  29
ENDBRANCH  21  23
BRANCH  20  31
HETATM   31  O   UNK N   1      30.979  16.860   5.097  0.00  0.00    -0.349 OA
HETATM   32  H   UNK N   1      31.272  17.646   4.679  0.00  0.00     0.219 HD
ENDBRANCH  20  31
ENDBRANCH  12  20
ENDBRANCH  11  12
ENDBRANCH  10  11
BRANCH  10  33
HETATM   33  O   UNK N   1      30.435  18.956   8.951  0.00  0.00    -0.394 OA
HETATM   34  H   UNK N   1      30.882  19.656   9.451  0.00  0.00     0.210 HD
ENDBRANCH  10  33
ENDBRANCH   9  10
ENDBRANCH   6   9
BRANCH   4  35
HETATM   35  C   UNK N   1      34.216  16.597   6.346  0.00  0.00     0.136 C 
HETATM   36  N   UNK N   1      34.133  16.101   5.145  0.00  0.00    -0.365 N 
ATOM     37  HN  UNK N   1      34.252  16.774   4.389  1.00  0.00     0.162 HD
BRANCH  36  38
HETATM   38  C   UNK N   1      33.894  14.725   4.717  0.00  0.00     0.021 C 
HETATM   39  C   UNK N   1      32.904  14.019   5.626  0.00  0.00     0.037 C 
HETATM   40  C   UNK N   1      35.197  13.968   4.845  0.00  0.00     0.037 C 
HETATM   41  C   UNK N   1      33.460  14.633   3.264  0.00  0.00     0.037 C 
ENDBRANCH  36  38
BRANCH  35  42
HETATM   42  O   UNK N   1      34.468  17.916   6.459  0.00  0.00    -0.348 OA
HETATM   43  H   UNK N   1      34.124  18.518   5.828  0.00  0.00     0.219 HD
ENDBRANCH  35  42
ENDBRANCH   4  35
BRANCH   5  44
HETATM   44  C   UNK N   1      35.572  13.611  11.584  0.00  0.00     0.117 A 
HETATM   45  C   UNK N   1      34.865  12.419  11.789  0.00  0.00     0.125 A 
HETATM   46  N   UNK N   1      34.693  11.959  13.065  0.00  0.00    -0.347 N 
HETATM   47  C   UNK N   1      35.231  12.615  14.137  0.00  0.00     0.142 A 
ATOM     48  HN  UNK N   1      34.153  11.108  13.221  1.00  0.00     0.167 HD
HETATM   49  C   UNK N   1      36.046  13.735  13.898  0.00  0.00     0.148 A 
HETATM   50 Cl   UNK N   1      37.020  14.493  15.135  0.00  0.00    -0.060 Cl
HETATM   51  N   UNK N   1      36.172  14.198  12.643  0.00  0.00    -0.338 N 
ATOM     52  HN  UNK N   1      36.744  15.028  12.483  1.00  0.00     0.167 HD
BRANCH  47  53
HETATM   53  N   UNK N   1      34.935  12.194  15.467  0.00  0.00    -0.361 N 
HETATM   54  C   UNK N   1      35.134  10.835  15.900  0.00  0.00     0.154 C 
HETATM   55  C   UNK N   1      35.860  10.889  17.253  0.00  0.00     0.291 C 
HETATM   56  N   UNK N   1      35.108  11.721  18.204  0.00  0.00     0.087 N 
HETATM   57  C   UNK N   1      35.867  11.784  19.439  0.00  0.00     0.310 C 
HETATM   58  C   UNK N   1      35.017  13.091  17.704  0.00  0.00     0.291 C 
HETATM   59  C   UNK N   1      34.268  13.093  16.385  0.00  0.00     0.154 C 
ENDBRANCH  47  53
ENDBRANCH   5  44
TORSDOF 16
ENDMDL
MODEL 4
REMARK VINA RESULT:      -8.3      1.566      2.116
REMARK  16 active torsions:
REMARK  status: ('A' for Active; 'I' for Inactive)
REMARK    1  A    between atoms: C_25  and  C_19 
REMARK    2  A    between atoms: C_26  and  C_19 
REMARK    3  A    between atoms: C_26  and  C_20 
REMARK    4  A    between atoms: C_27  and  C_20 
REMARK    5  A    between atoms: C_27  and  C_22 
REMARK    6  A    between atoms: N_49  and  C_22 
REMARK    7  A    between atoms: C_26  and  C_34 
REMARK    8  A    between atoms: C_27  and  O_51 
REMARK    9  A    between atoms: C_36  and  C_28 
REMARK   10  A    between atoms: C_29  and  C_35 
REMARK   11  A    between atoms: C_30  and  O_52 
REMARK   12  A    between atoms: C_31  and  N_43 
REMARK   13  A    between atoms: N_48  and  C_33 
REMARK   14  A    between atoms: C_34  and  O_53 
REMARK   15  A    between atoms: O_54  and  C_35 
REMARK       I    between atoms: N_50  and  C_36 
REMARK   16  A    between atoms: N_45  and  C_37 
ROOT
HETATM    1  C   UNK N   1      32.511  14.452   8.960  0.00  0.00     0.137 C 
HETATM    2  C   UNK N   1      33.355  14.946  10.136  0.00  0.00     0.145 C 
HETATM    3  C   UNK N   1      34.856  16.099   8.563  0.00  0.00     0.159 C 
HETATM    4  C   UNK N   1      34.024  15.591   7.392  0.00  0.00     0.172 C 
HETATM    5  C   UNK N   1      35.773  14.611  10.294  0.00  0.00     0.271 C 
HETATM    6  N   UNK N   1      32.613  15.370   7.819  0.00  0.00    -0.396 N 
HETATM    7  N   UNK N   1      34.700  15.219   9.695  0.00  0.00    -0.343 N 
HETATM    8  O   UNK N   1      36.878  14.660   9.777  0.00  0.00    -0.266 OA
ENDROOT
BRANCH   6   9
HETATM    9  C   UNK N   1      31.671  16.512   7.901  0.00  0.00     0.149 C 
BRANCH   9  10
HETATM   10  C   UNK N   1      30.637  16.711   6.769  0.00  0.00     0.136 C 
BRANCH  10  11
HETATM   11  C   UNK N   1      30.134  15.397   6.120  0.00  0.00     0.046 C 
BRANCH  11  12
HETATM   12  C   UNK N   1      28.637  15.358   5.802  0.00  0.00     0.067 C 
BRANCH  12  13
HETATM   13  C   UNK N   1      28.451  15.179   4.288  0.00  0.00     0.051 C 
BRANCH  13  14
HETATM   14  C   UNK N   1      29.117  13.939   3.769  0.00  0.00    -0.057 A 
HETATM   15  C   UNK N   1      29.992  13.986   2.675  0.00  0.00     0.007 A 
HETATM   16  C   UNK N   1      30.583  12.820   2.190  0.00  0.00     0.001 A 
HETATM   17  C   UNK N   1      30.307  11.596   2.801  0.00  0.00     0.000 A 
HETATM   18  C   UNK N   1      29.443  11.542   3.899  0.00  0.00     0.001 A 
HETATM   19  C   UNK N   1      28.847  12.713   4.382  0.00  0.00     0.007 A 
ENDBRANCH  13  14
ENDBRANCH  12  13
BRANCH  12  20
HETATM   20  C   UNK N   1      27.893  16.564   6.369  0.00  0.00     0.116 C 
HETATM   21  N   UNK N   1      27.915  17.699   5.748  0.00  0.00    -0.367 N 
ATOM     22  HN  UNK N   1      28.587  17.801   4.987  1.00  0.00     0.161 HD
BRANCH  21  23
HETATM   23  C   UNK N   1      27.061  18.843   6.042  0.00  0.00     0.115 C 
HETATM   24  C   UNK N   1      26.870  19.721   4.809  0.00  0.00     0.007 C 
HETATM   25  C   UNK N   1      28.195  20.138   4.174  0.00  0.00     0.012 C 
HETATM   26  C   UNK N   1      26.192  20.958   5.382  0.00  0.00     0.009 C 
HETATM   27  C   UNK N   1      26.634  21.039   6.848  0.00  0.00     0.034 C 
HETATM   28  C   UNK N   1      27.552  19.846   7.073  0.00  0.00     0.141 C 
BRANCH  28  29
HETATM   29  O   UNK N   1      27.416  19.372   8.377  0.00  0.00    -0.394 OA
HETATM   30  H   UNK N   1      27.140  19.802   9.201  0.00  0.00     0.210 HD
ENDBRANCH  28  29
ENDBRANCH  21  23
BRANCH  20  31
HETATM   31  O   UNK N   1      27.112  16.394   7.455  0.00  0.00    -0.349 OA
HETATM   32  H   UNK N   1      26.608  16.937   8.029  0.00  0.00     0.219 HD
ENDBRANCH  20  31
ENDBRANCH  12  20
ENDBRANCH  11  12
ENDBRANCH  10  11
BRANCH  10  33
HETATM   33  O   UNK N   1      31.225  17.508   5.786  0.00  0.00    -0.394 OA
HETATM   34  H   UNK N   1      30.967  17.541   4.852  0.00  0.00     0.210 HD
ENDBRANCH  10  33
ENDBRANCH   9  10
ENDBRANCH   6   9
BRANCH   4  35
HETATM   35  C   UNK N   1      34.170  16.476   6.152  0.00  0.00     0.136 C 
HETATM   36  N   UNK N   1      34.171  16.017   4.932  0.00  0.00    -0.365 N 
ATOM     37  HN  UNK N   1      34.218  16.727   4.202  1.00  0.00     0.162 HD
BRANCH  36  38
HETATM   38  C   UNK N   1      34.113  14.638   4.453  0.00  0.00     0.021 C 
HETATM   39  C   UNK N   1      35.381  13.874   4.791  0.00  0.00     0.037 C 
HETATM   40  C   UNK N   1      34.034  14.677   2.943  0.00  0.00     0.037 C 
HETATM   41  C   UNK N   1      32.883  13.899   4.951  0.00  0.00     0.037 C 
ENDBRANCH  36  38
BRANCH  35  42
HETATM   42  O   UNK N   1      34.253  17.811   6.314  0.00  0.00    -0.348 OA
HETATM   43  H   UNK N   1      34.885  18.177   6.902  0.00  0.00     0.219 HD
ENDBRANCH  35  42
ENDBRANCH   4  35
BRANCH   5  44
HETATM   44  C   UNK N   1      35.595  13.921  11.595  0.00  0.00     0.117 A 
HETATM   45  C   UNK N   1      34.895  12.716  11.743  0.00  0.00     0.125 A 
HETATM   46  N   UNK N   1      34.731  12.193  12.996  0.00  0.00    -0.347 N 
HETATM   47  C   UNK N   1      35.271  12.799  14.097  0.00  0.00     0.142 A 
ATOM     48  HN  UNK N   1      34.196  11.333  13.112  1.00  0.00     0.167 HD
HETATM   49  C   UNK N   1      36.079  13.933  13.910  0.00  0.00     0.148 A 
HETATM   50 Cl   UNK N   1      37.054  14.635  15.180  0.00  0.00    -0.060 Cl
HETATM   51  N   UNK N   1      36.197  14.458  12.679  0.00  0.00    -0.338 N 
ATOM     52  HN  UNK N   1      36.764  15.298  12.558  1.00  0.00     0.167 HD
BRANCH  47  53
HETATM   53  N   UNK N   1      34.981  12.311  15.406  0.00  0.00    -0.361 N 
HETATM   54  C   UNK N   1      35.256  10.951  15.791  0.00  0.00     0.154 C 
HETATM   55  C   UNK N   1      35.958  10.996  17.157  0.00  0.00     0.291 C 
HETATM   56  N   UNK N   1      35.146  11.746  18.126  0.00  0.00     0.087 N 
HETATM   57  C   UNK N   1      35.882  11.807  19.374  0.00  0.00     0.310 C 
HETATM   58  C   UNK N   1      34.980  13.126  17.675  0.00  0.00     0.291 C 
HETATM   59  C   UNK N   1      34.250  13.134  16.345  0.00  0.00     0.154 C 
ENDBRANCH  47  53
ENDBRANCH   5  44
TORSDOF 16
ENDMDL
MODEL 5
REMARK VINA RESULT:      -8.3      6.236     11.313
REMARK  16 active torsions:
REMARK  status: ('A' for Active; 'I' for Inactive)
REMARK    1  A    between atoms: C_25  and  C_19 
REMARK    2  A    between atoms: C_26  and  C_19 
REMARK    3  A    between atoms: C_26  and  C_20 
REMARK    4  A    between atoms: C_27  and  C_20 
REMARK    5  A    between atoms: C_27  and  C_22 
REMARK    6  A    between atoms: N_49  and  C_22 
REMARK    7  A    between atoms: C_26  and  C_34 
REMARK    8  A    between atoms: C_27  and  O_51 
REMARK    9  A    between atoms: C_36  and  C_28 
REMARK   10  A    between atoms: C_29  and  C_35 
REMARK   11  A    between atoms: C_30  and  O_52 
REMARK   12  A    between atoms: C_31  and  N_43 
REMARK   13  A    between atoms: N_48  and  C_33 
REMARK   14  A    between atoms: C_34  and  O_53 
REMARK   15  A    between atoms: O_54  and  C_35 
REMARK       I    between atoms: N_50  and  C_36 
REMARK   16  A    between atoms: N_45  and  C_37 
ROOT
HETATM    1  C   UNK N   1      22.918  16.066   5.298  0.00  0.00     0.137 C 
HETATM    2  C   UNK N   1      23.850  17.240   5.604  0.00  0.00     0.145 C 
HETATM    3  C   UNK N   1      22.823  18.522   3.772  0.00  0.00     0.159 C 
HETATM    4  C   UNK N   1      21.907  17.345   3.458  0.00  0.00     0.172 C 
HETATM    5  C   UNK N   1      25.269  18.307   3.922  0.00  0.00     0.271 C 
HETATM    6  N   UNK N   1      21.669  16.535   4.686  0.00  0.00    -0.396 N 
HETATM    7  N   UNK N   1      24.020  18.052   4.425  0.00  0.00    -0.343 N 
HETATM    8  O   UNK N   1      25.399  18.792   2.809  0.00  0.00    -0.266 OA
ENDROOT
BRANCH   6   9
HETATM    9  C   UNK N   1      20.656  16.966   5.679  0.00  0.00     0.149 C 
BRANCH   9  10
HETATM   10  C   UNK N   1      20.864  16.601   7.166  0.00  0.00     0.136 C 
BRANCH  10  11
HETATM   11  C   UNK N   1      19.984  15.428   7.668  0.00  0.00     0.046 C 
BRANCH  11  12
HETATM   12  C   UNK N   1      20.738  14.129   7.965  0.00  0.00     0.067 C 
BRANCH  12  13
HETATM   13  C   UNK N   1      22.085  14.470   8.621  0.00  0.00     0.051 C 
BRANCH  13  14
HETATM   14  C   UNK N   1      22.481  13.475   9.672  0.00  0.00    -0.057 A 
HETATM   15  C   UNK N   1      21.537  12.931  10.553  0.00  0.00     0.007 A 
HETATM   16  C   UNK N   1      21.927  12.027  11.539  0.00  0.00     0.001 A 
HETATM   17  C   UNK N   1      23.268  11.655  11.650  0.00  0.00     0.000 A 
HETATM   18  C   UNK N   1      24.214  12.187  10.769  0.00  0.00     0.001 A 
HETATM   19  C   UNK N   1      23.821  13.097   9.782  0.00  0.00     0.007 A 
ENDBRANCH  13  14
ENDBRANCH  12  13
BRANCH  12  20
HETATM   20  C   UNK N   1      20.868  13.240   6.732  0.00  0.00     0.116 C 
HETATM   21  N   UNK N   1      22.025  12.781   6.375  0.00  0.00    -0.367 N 
ATOM     22  HN  UNK N   1      22.846  13.183   6.827  1.00  0.00     0.161 HD
BRANCH  21  23
HETATM   23  C   UNK N   1      22.253  11.739   5.381  0.00  0.00     0.115 C 
HETATM   24  C   UNK N   1      22.465  10.382   6.044  0.00  0.00     0.007 C 
HETATM   25  C   UNK N   1      23.559  10.413   7.110  0.00  0.00     0.012 C 
HETATM   26  C   UNK N   1      22.937   9.514   4.885  0.00  0.00     0.009 C 
HETATM   27  C   UNK N   1      23.599  10.470   3.886  0.00  0.00     0.034 C 
HETATM   28  C   UNK N   1      23.486  11.859   4.501  0.00  0.00     0.141 C 
BRANCH  28  29
HETATM   29  O   UNK N   1      23.330  12.818   3.501  0.00  0.00    -0.394 OA
HETATM   30  H   UNK N   1      23.254  13.784   3.530  0.00  0.00     0.210 HD
ENDBRANCH  28  29
ENDBRANCH  21  23
BRANCH  20  31
HETATM   31  O   UNK N   1      19.748  12.838   6.099  0.00  0.00    -0.349 OA
HETATM   32  H   UNK N   1      19.484  12.114   5.566  0.00  0.00     0.219 HD
ENDBRANCH  20  31
ENDBRANCH  12  20
ENDBRANCH  11  12
ENDBRANCH  10  11
BRANCH  10  33
HETATM   33  O   UNK N   1      20.588  17.736   7.929  0.00  0.00    -0.394 OA
HETATM   34  H   UNK N   1      21.062  18.012   8.729  0.00  0.00     0.210 HD
ENDBRANCH  10  33
ENDBRANCH   9  10
ENDBRANCH   6   9
BRANCH   4  35
HETATM   35  C   UNK N   1      20.629  17.783   2.740  0.00  0.00     0.136 C 
HETATM   36  N   UNK N   1      19.879  16.977   2.044  0.00  0.00    -0.365 N 
ATOM     37  HN  UNK N   1      19.027  17.393   1.669  1.00  0.00     0.162 HD
BRANCH  36  38
HETATM   38  C   UNK N   1      20.074  15.566   1.719  0.00  0.00     0.021 C 
HETATM   39  C   UNK N   1      21.511  15.274   1.328  0.00  0.00     0.037 C 
HETATM   40  C   UNK N   1      19.233  15.252   0.501  0.00  0.00     0.037 C 
HETATM   41  C   UNK N   1      19.614  14.643   2.834  0.00  0.00     0.037 C 
ENDBRANCH  36  38
BRANCH  35  42
HETATM   42  O   UNK N   1      20.218  19.060   2.869  0.00  0.00    -0.348 OA
HETATM   43  H   UNK N   1      19.729  19.325   3.623  0.00  0.00     0.219 HD
ENDBRANCH  35  42
ENDBRANCH   4  35
BRANCH   5  44
HETATM   44  C   UNK N   1      26.468  18.025   4.749  0.00  0.00     0.117 A 
HETATM   45  C   UNK N   1      27.039  18.955   5.627  0.00  0.00     0.125 A 
HETATM   46  N   UNK N   1      28.183  18.621   6.297  0.00  0.00    -0.347 N 
HETATM   47  C   UNK N   1      28.755  17.386   6.159  0.00  0.00     0.142 A 
ATOM     48  HN  UNK N   1      28.620  19.306   6.913  1.00  0.00     0.167 HD
HETATM   49  C   UNK N   1      28.093  16.425   5.376  0.00  0.00     0.148 A 
HETATM   50 Cl   UNK N   1      28.550  14.738   5.340  0.00  0.00    -0.060 Cl
HETATM   51  N   UNK N   1      26.993  16.781   4.692  0.00  0.00    -0.338 N 
ATOM     52  HN  UNK N   1      26.535  16.083   4.104  1.00  0.00     0.167 HD
BRANCH  47  53
HETATM   53  N   UNK N   1      30.015  17.100   6.763  0.00  0.00    -0.361 N 
HETATM   54  C   UNK N   1      31.119  16.566   6.008  0.00  0.00     0.154 C 
HETATM   55  C   UNK N   1      32.365  17.384   6.383  0.00  0.00     0.291 C 
HETATM   56  N   UNK N   1      32.567  17.371   7.839  0.00  0.00     0.087 N 
HETATM   57  C   UNK N   1      33.716  18.204   8.138  0.00  0.00     0.310 C 
HETATM   58  C   UNK N   1      31.423  17.990   8.505  0.00  0.00     0.291 C 
HETATM   59  C   UNK N   1      30.172  17.189   8.198  0.00  0.00     0.154 C 
ENDBRANCH  47  53
ENDBRANCH   5  44
TORSDOF 16
ENDMDL
MODEL 6
REMARK VINA RESULT:      -8.2      6.315      9.313
REMARK  16 active torsions:
REMARK  status: ('A' for Active; 'I' for Inactive)
REMARK    1  A    between atoms: C_25  and  C_19 
REMARK    2  A    between atoms: C_26  and  C_19 
REMARK    3  A    between atoms: C_26  and  C_20 
REMARK    4  A    between atoms: C_27  and  C_20 
REMARK    5  A    between atoms: C_27  and  C_22 
REMARK    6  A    between atoms: N_49  and  C_22 
REMARK    7  A    between atoms: C_26  and  C_34 
REMARK    8  A    between atoms: C_27  and  O_51 
REMARK    9  A    between atoms: C_36  and  C_28 
REMARK   10  A    between atoms: C_29  and  C_35 
REMARK   11  A    between atoms: C_30  and  O_52 
REMARK   12  A    between atoms: C_31  and  N_43 
REMARK   13  A    between atoms: N_48  and  C_33 
REMARK   14  A    between atoms: C_34  and  O_53 
REMARK   15  A    between atoms: O_54  and  C_35 
REMARK       I    between atoms: N_50  and  C_36 
REMARK   16  A    between atoms: N_45  and  C_37 
ROOT
HETATM    1  C   UNK N   1      28.497  16.875   4.466  0.00  0.00     0.137 C 
HETATM    2  C   UNK N   1      29.642  15.985   4.955  0.00  0.00     0.145 C 
HETATM    3  C   UNK N   1      29.710  17.246   7.066  0.00  0.00     0.159 C 
HETATM    4  C   UNK N   1      28.582  18.143   6.571  0.00  0.00     0.172 C 
HETATM    5  C   UNK N   1      31.771  16.860   5.780  0.00  0.00     0.271 C 
HETATM    6  N   UNK N   1      27.727  17.406   5.598  0.00  0.00    -0.396 N 
HETATM    7  N   UNK N   1      30.421  16.686   5.944  0.00  0.00    -0.343 N 
HETATM    8  O   UNK N   1      32.383  17.643   6.490  0.00  0.00    -0.266 OA
ENDROOT
BRANCH   6   9
HETATM    9  C   UNK N   1      26.679  16.475   6.081  0.00  0.00     0.149 C 
BRANCH   9  10
HETATM   10  C   UNK N   1      26.027  15.498   5.077  0.00  0.00     0.136 C 
BRANCH  10  11
HETATM   11  C   UNK N   1      24.636  15.944   4.557  0.00  0.00     0.046 C 
BRANCH  11  12
HETATM   12  C   UNK N   1      23.594  16.223   5.644  0.00  0.00     0.067 C 
BRANCH  12  13
HETATM   13  C   UNK N   1      22.635  15.027   5.738  0.00  0.00     0.051 C 
BRANCH  13  14
HETATM   14  C   UNK N   1      22.377  14.607   7.155  0.00  0.00    -0.057 A 
HETATM   15  C   UNK N   1      23.243  13.732   7.825  0.00  0.00     0.007 A 
HETATM   16  C   UNK N   1      22.974  13.332   9.133  0.00  0.00     0.001 A 
HETATM   17  C   UNK N   1      21.836  13.809   9.785  0.00  0.00     0.000 A 
HETATM   18  C   UNK N   1      20.971  14.689   9.126  0.00  0.00     0.001 A 
HETATM   19  C   UNK N   1      21.241  15.086   7.812  0.00  0.00     0.007 A 
ENDBRANCH  13  14
ENDBRANCH  12  13
BRANCH  12  20
HETATM   20  C   UNK N   1      22.884  17.558   5.437  0.00  0.00     0.116 C 
HETATM   21  N   UNK N   1      22.770  18.063   4.251  0.00  0.00    -0.367 N 
ATOM     22  HN  UNK N   1      23.325  17.637   3.508  1.00  0.00     0.161 HD
BRANCH  21  23
HETATM   23  C   UNK N   1      21.916  19.186   3.886  0.00  0.00     0.115 C 
HETATM   24  C   UNK N   1      20.533  18.711   3.455  0.00  0.00     0.007 C 
HETATM   25  C   UNK N   1      20.591  17.650   2.358  0.00  0.00     0.012 C 
HETATM   26  C   UNK N   1      19.909  19.976   2.879  0.00  0.00     0.009 C 
HETATM   27  C   UNK N   1      21.080  20.837   2.392  0.00  0.00     0.034 C 
HETATM   28  C   UNK N   1      22.340  20.042   2.704  0.00  0.00     0.141 C 
BRANCH  28  29
HETATM   29  O   UNK N   1      23.388  20.905   3.024  0.00  0.00    -0.394 OA
HETATM   30  H   UNK N   1      23.417  21.741   3.513  0.00  0.00     0.210 HD
ENDBRANCH  28  29
ENDBRANCH  21  23
BRANCH  20  31
HETATM   31  O   UNK N   1      22.270  18.138   6.488  0.00  0.00    -0.349 OA
HETATM   32  H   UNK N   1      21.393  18.360   6.733  0.00  0.00     0.219 HD
ENDBRANCH  20  31
ENDBRANCH  12  20
ENDBRANCH  11  12
ENDBRANCH  10  11
BRANCH  10  33
HETATM   33  O   UNK N   1      25.901  14.258   5.705  0.00  0.00    -0.394 OA
HETATM   34  H   UNK N   1      26.173  13.404   5.335  0.00  0.00     0.210 HD
ENDBRANCH  10  33
ENDBRANCH   9  10
ENDBRANCH   6   9
BRANCH   4  35
HETATM   35  C   UNK N   1      27.806  18.786   7.723  0.00  0.00     0.136 C 
HETATM   36  N   UNK N   1      27.031  19.824   7.583  0.00  0.00    -0.365 N 
ATOM     37  HN  UNK N   1      26.532  20.109   8.424  1.00  0.00     0.162 HD
BRANCH  36  38
HETATM   38  C   UNK N   1      26.769  20.640   6.400  0.00  0.00     0.021 C 
HETATM   39  C   UNK N   1      28.047  20.960   5.645  0.00  0.00     0.037 C 
HETATM   40  C   UNK N   1      26.213  21.967   6.868  0.00  0.00     0.037 C 
HETATM   41  C   UNK N   1      25.734  20.017   5.479  0.00  0.00     0.037 C 
ENDBRANCH  36  38
BRANCH  35  42
HETATM   42  O   UNK N   1      27.880  18.226   8.946  0.00  0.00    -0.348 OA
HETATM   43  H   UNK N   1      27.390  18.584   9.661  0.00  0.00     0.219 HD
ENDBRANCH  35  42
ENDBRANCH   4  35
BRANCH   5  44
HETATM   44  C   UNK N   1      32.497  16.066   4.759  0.00  0.00     0.117 A 
HETATM   45  C   UNK N   1      32.792  16.540   3.475  0.00  0.00     0.125 A 
HETATM   46  N   UNK N   1      33.408  15.707   2.583  0.00  0.00    -0.347 N 
HETATM   47  C   UNK N   1      33.778  14.437   2.934  0.00  0.00     0.142 A 
ATOM     48  HN  UNK N   1      33.596  16.038   1.637  1.00  0.00     0.167 HD
HETATM   49  C   UNK N   1      33.592  14.028   4.265  0.00  0.00     0.148 A 
HETATM   50 Cl   UNK N   1      34.269  12.555   4.918  0.00  0.00    -0.060 Cl
HETATM   51  N   UNK N   1      32.948  14.843   5.117  0.00  0.00    -0.338 N 
ATOM     52  HN  UNK N   1      32.793  14.526   6.075  1.00  0.00     0.167 HD
BRANCH  47  53
HETATM   53  N   UNK N   1      34.302  13.540   1.956  0.00  0.00    -0.361 N 
HETATM   54  C   UNK N   1      33.536  12.430   1.451  0.00  0.00     0.154 C 
HETATM   55  C   UNK N   1      33.675  12.438  -0.079  0.00  0.00     0.291 C 
HETATM   56  N   UNK N   1      35.094  12.417  -0.464  0.00  0.00     0.087 N 
HETATM   57  C   UNK N   1      35.165  12.486  -1.911  0.00  0.00     0.310 C 
HETATM   58  C   UNK N   1      35.764  13.613   0.042  0.00  0.00     0.291 C 
HETATM   59  C   UNK N   1      35.689  13.627   1.556  0.00  0.00     0.154 C 
ENDBRANCH  47  53
ENDBRANCH   5  44
TORSDOF 16
ENDMDL
MODEL 7
REMARK VINA RESULT:      -8.1      3.984     11.315
REMARK  16 active torsions:
REMARK  status: ('A' for Active; 'I' for Inactive)
REMARK    1  A    between atoms: C_25  and  C_19 
REMARK    2  A    between atoms: C_26  and  C_19 
REMARK    3  A    between atoms: C_26  and  C_20 
REMARK    4  A    between atoms: C_27  and  C_20 
REMARK    5  A    between atoms: C_27  and  C_22 
REMARK    6  A    between atoms: N_49  and  C_22 
REMARK    7  A    between atoms: C_26  and  C_34 
REMARK    8  A    between atoms: C_27  and  O_51 
REMARK    9  A    between atoms: C_36  and  C_28 
REMARK   10  A    between atoms: C_29  and  C_35 
REMARK   11  A    between atoms: C_30  and  O_52 
REMARK   12  A    between atoms: C_31  and  N_43 
REMARK   13  A    between atoms: N_48  and  C_33 
REMARK   14  A    between atoms: C_34  and  O_53 
REMARK   15  A    between atoms: O_54  and  C_35 
REMARK       I    between atoms: N_50  and  C_36 
REMARK   16  A    between atoms: N_45  and  C_37 
ROOT
HETATM    1  C   UNK N   1      33.338  13.361   9.180  0.00  0.00     0.137 C 
HETATM    2  C   UNK N   1      33.237  14.477   8.138  0.00  0.00     0.145 C 
HETATM    3  C   UNK N   1      35.381  15.393   8.924  0.00  0.00     0.159 C 
HETATM    4  C   UNK N   1      35.471  14.292   9.973  0.00  0.00     0.172 C 
HETATM    5  C   UNK N   1      33.416  16.853   8.686  0.00  0.00     0.271 C 
HETATM    6  N   UNK N   1      34.740  13.078   9.511  0.00  0.00    -0.396 N 
HETATM    7  N   UNK N   1      34.003  15.621   8.567  0.00  0.00    -0.343 N 
HETATM    8  O   UNK N   1      33.996  17.760   9.264  0.00  0.00    -0.266 OA
ENDROOT
BRANCH   6   9
HETATM    9  C   UNK N   1      35.384  12.133   8.567  0.00  0.00     0.149 C 
BRANCH   9  10
HETATM   10  C   UNK N   1      35.077  10.624   8.694  0.00  0.00     0.136 C 
BRANCH  10  11
HETATM   11  C   UNK N   1      35.538   9.985  10.028  0.00  0.00     0.046 C 
BRANCH  11  12
HETATM   12  C   UNK N   1      34.438   9.802  11.077  0.00  0.00     0.067 C 
BRANCH  12  13
HETATM   13  C   UNK N   1      34.927   8.819  12.151  0.00  0.00     0.051 C 
BRANCH  13  14
HETATM   14  C   UNK N   1      34.845   9.391  13.535  0.00  0.00    -0.057 A 
HETATM   15  C   UNK N   1      35.701   8.956  14.556  0.00  0.00     0.007 A 
HETATM   16  C   UNK N   1      35.594   9.480  15.843  0.00  0.00     0.001 A 
HETATM   17  C   UNK N   1      34.628  10.451  16.119  0.00  0.00     0.000 A 
HETATM   18  C   UNK N   1      33.776  10.897  15.104  0.00  0.00     0.001 A 
HETATM   19  C   UNK N   1      33.883  10.366  13.814  0.00  0.00     0.007 A 
ENDBRANCH  13  14
ENDBRANCH  12  13
BRANCH  12  20
HETATM   20  C   UNK N   1      33.102   9.408  10.453  0.00  0.00     0.116 C 
HETATM   21  N   UNK N   1      32.799   8.161  10.287  0.00  0.00    -0.367 N 
ATOM     22  HN  UNK N   1      33.548   7.479  10.410  1.00  0.00     0.161 HD
BRANCH  21  23
HETATM   23  C   UNK N   1      31.480   7.648   9.938  0.00  0.00     0.115 C 
HETATM   24  C   UNK N   1      31.356   6.167  10.279  0.00  0.00     0.007 C 
HETATM   25  C   UNK N   1      32.480   5.329   9.672  0.00  0.00     0.012 C 
HETATM   26  C   UNK N   1      30.043   5.779   9.612  0.00  0.00     0.009 C 
HETATM   27  C   UNK N   1      29.862   6.754   8.443  0.00  0.00     0.034 C 
HETATM   28  C   UNK N   1      31.076   7.672   8.474  0.00  0.00     0.141 C 
BRANCH  28  29
HETATM   29  O   UNK N   1      30.724   8.951   8.043  0.00  0.00    -0.394 OA
HETATM   30  H   UNK N   1      31.234   9.770   7.948  0.00  0.00     0.210 HD
ENDBRANCH  28  29
ENDBRANCH  21  23
BRANCH  20  31
HETATM   31  O   UNK N   1      32.195  10.372  10.197  0.00  0.00    -0.349 OA
HETATM   32  H   UNK N   1      31.404  10.455   9.702  0.00  0.00     0.219 HD
ENDBRANCH  20  31
ENDBRANCH  12  20
ENDBRANCH  11  12
ENDBRANCH  10  11
BRANCH  10  33
HETATM   33  O   UNK N   1      35.706   9.968   7.634  0.00  0.00    -0.394 OA
HETATM   34  H   UNK N   1      35.388   9.164   7.195  0.00  0.00     0.210 HD
ENDBRANCH  10  33
ENDBRANCH   9  10
ENDBRANCH   6   9
BRANCH   4  35
HETATM   35  C   UNK N   1      36.914  14.025  10.408  0.00  0.00     0.136 C 
HETATM   36  N   UNK N   1      37.252  13.686  11.620  0.00  0.00    -0.365 N 
ATOM     37  HN  UNK N   1      38.242  13.483  11.753  1.00  0.00     0.162 HD
BRANCH  36  38
HETATM   38  C   UNK N   1      36.426  13.552  12.817  0.00  0.00     0.021 C 
HETATM   39  C   UNK N   1      36.441  14.819  13.653  0.00  0.00     0.037 C 
HETATM   40  C   UNK N   1      37.036  12.470  13.681  0.00  0.00     0.037 C 
HETATM   41  C   UNK N   1      35.003  13.125  12.499  0.00  0.00     0.037 C 
ENDBRANCH  36  38
BRANCH  35  42
HETATM   42  O   UNK N   1      37.893  14.091   9.485  0.00  0.00    -0.348 OA
HETATM   43  H   UNK N   1      38.707  13.648   9.626  0.00  0.00     0.219 HD
ENDBRANCH  35  42
ENDBRANCH   4  35
BRANCH   5  44
HETATM   44  C   UNK N   1      32.085  17.097   8.079  0.00  0.00     0.117 A 
HETATM   45  C   UNK N   1      31.851  17.089   6.697  0.00  0.00     0.125 A 
HETATM   46  N   UNK N   1      30.601  17.391   6.233  0.00  0.00    -0.347 N 
HETATM   47  C   UNK N   1      29.568  17.657   7.090  0.00  0.00     0.142 A 
ATOM     48  HN  UNK N   1      30.434  17.416   5.228  1.00  0.00     0.167 HD
HETATM   49  C   UNK N   1      29.793  17.531   8.472  0.00  0.00     0.148 A 
HETATM   50 Cl   UNK N   1      28.510  17.561   9.658  0.00  0.00    -0.060 Cl
HETATM   51  N   UNK N   1      31.036  17.274   8.912  0.00  0.00    -0.338 N 
ATOM     52  HN  UNK N   1      31.195  17.212   9.918  1.00  0.00     0.167 HD
BRANCH  47  53
HETATM   53  N   UNK N   1      28.306  18.094   6.589  0.00  0.00    -0.361 N 
HETATM   54  C   UNK N   1      27.858  19.455   6.733  0.00  0.00     0.154 C 
HETATM   55  C   UNK N   1      27.319  19.906   5.366  0.00  0.00     0.291 C 
HETATM   56  N   UNK N   1      26.283  18.975   4.893  0.00  0.00     0.087 N 
HETATM   57  C   UNK N   1      25.856  19.415   3.578  0.00  0.00     0.310 C 
HETATM   58  C   UNK N   1      26.854  17.642   4.719  0.00  0.00     0.291 C 
HETATM   59  C   UNK N   1      27.362  17.136   6.055  0.00  0.00     0.154 C 
ENDBRANCH  47  53
ENDBRANCH   5  44
TORSDOF 16
ENDMDL
MODEL 8
REMARK VINA RESULT:      -8.1      6.633     11.606
REMARK  16 active torsions:
REMARK  status: ('A' for Active; 'I' for Inactive)
REMARK    1  A    between atoms: C_25  and  C_19 
REMARK    2  A    between atoms: C_26  and  C_19 
REMARK    3  A    between atoms: C_26  and  C_20 
REMARK    4  A    between atoms: C_27  and  C_20 
REMARK    5  A    between atoms: C_27  and  C_22 
REMARK    6  A    between atoms: N_49  and  C_22 
REMARK    7  A    between atoms: C_26  and  C_34 
REMARK    8  A    between atoms: C_27  and  O_51 
REMARK    9  A    between atoms: C_36  and  C_28 
REMARK   10  A    between atoms: C_29  and  C_35 
REMARK   11  A    between atoms: C_30  and  O_52 
REMARK   12  A    between atoms: C_31  and  N_43 
REMARK   13  A    between atoms: N_48  and  C_33 
REMARK   14  A    between atoms: C_34  and  O_53 
REMARK   15  A    between atoms: O_54  and  C_35 
REMARK       I    between atoms: N_50  and  C_36 
REMARK   16  A    between atoms: N_45  and  C_37 
ROOT
HETATM    1  C   UNK N   1      22.644  13.120   4.760  0.00  0.00     0.137 C 
HETATM    2  C   UNK N   1      23.174  14.512   4.410  0.00  0.00     0.145 C 
HETATM    3  C   UNK N   1      22.061  14.376   2.220  0.00  0.00     0.159 C 
HETATM    4  C   UNK N   1      21.548  12.982   2.563  0.00  0.00     0.172 C 
HETATM    5  C   UNK N   1      24.435  15.000   2.372  0.00  0.00     0.271 C 
HETATM    6  N   UNK N   1      21.396  12.838   4.039  0.00  0.00    -0.396 N 
HETATM    7  N   UNK N   1      23.253  14.662   2.978  0.00  0.00    -0.343 N 
HETATM    8  O   UNK N   1      24.558  14.900   1.160  0.00  0.00    -0.266 OA
ENDROOT
BRANCH   6   9
HETATM    9  C   UNK N   1      20.193  13.371   4.721  0.00  0.00     0.149 C 
BRANCH   9  10
HETATM   10  C   UNK N   1      19.932  14.894   4.696  0.00  0.00     0.136 C 
BRANCH  10  11
HETATM   11  C   UNK N   1      19.691  15.528   6.090  0.00  0.00     0.046 C 
BRANCH  11  12
HETATM   12  C   UNK N   1      20.933  16.130   6.754  0.00  0.00     0.067 C 
BRANCH  12  13
HETATM   13  C   UNK N   1      20.771  16.053   8.280  0.00  0.00     0.051 C 
BRANCH  13  14
HETATM   14  C   UNK N   1      21.214  14.734   8.840  0.00  0.00    -0.057 A 
HETATM   15  C   UNK N   1      22.351  14.078   8.347  0.00  0.00     0.007 A 
HETATM   16  C   UNK N   1      22.734  12.841   8.861  0.00  0.00     0.001 A 
HETATM   17  C   UNK N   1      21.984  12.250   9.880  0.00  0.00     0.000 A 
HETATM   18  C   UNK N   1      20.855  12.902  10.383  0.00  0.00     0.001 A 
HETATM   19  C   UNK N   1      20.469  14.142   9.863  0.00  0.00     0.007 A 
ENDBRANCH  13  14
ENDBRANCH  12  13
BRANCH  12  20
HETATM   20  C   UNK N   1      21.240  17.534   6.244  0.00  0.00     0.116 C 
HETATM   21  N   UNK N   1      21.484  17.736   4.988  0.00  0.00    -0.367 N 
ATOM     22  HN  UNK N   1      21.645  16.914   4.407  1.00  0.00     0.161 HD
BRANCH  21  23
HETATM   23  C   UNK N   1      21.547  19.038   4.336  0.00  0.00     0.115 C 
HETATM   24  C   UNK N   1      20.316  19.280   3.468  0.00  0.00     0.007 C 
HETATM   25  C   UNK N   1      20.066  18.148   2.474  0.00  0.00     0.012 C 
HETATM   26  C   UNK N   1      20.696  20.535   2.693  0.00  0.00     0.009 C 
HETATM   27  C   UNK N   1      22.227  20.537   2.619  0.00  0.00     0.034 C 
HETATM   28  C   UNK N   1      22.680  19.283   3.355  0.00  0.00     0.141 C 
BRANCH  28  29
HETATM   29  O   UNK N   1      23.896  19.514   3.998  0.00  0.00    -0.394 OA
HETATM   30  H   UNK N   1      24.802  19.234   3.799  0.00  0.00     0.210 HD
ENDBRANCH  28  29
ENDBRANCH  21  23
BRANCH  20  31
HETATM   31  O   UNK N   1      21.129  18.574   7.094  0.00  0.00    -0.349 OA
HETATM   32  H   UNK N   1      20.438  19.047   7.512  0.00  0.00     0.219 HD
ENDBRANCH  20  31
ENDBRANCH  12  20
ENDBRANCH  11  12
ENDBRANCH  10  11
BRANCH  10  33
HETATM   33  O   UNK N   1      18.814  15.125   3.892  0.00  0.00    -0.394 OA
HETATM   34  H   UNK N   1      18.172  15.842   4.005  0.00  0.00     0.210 HD
ENDBRANCH  10  33
ENDBRANCH   9  10
ENDBRANCH   6   9
BRANCH   4  35
HETATM   35  C   UNK N   1      20.293  12.616   1.767  0.00  0.00     0.136 C 
HETATM   36  N   UNK N   1      20.045  11.417   1.322  0.00  0.00    -0.365 N 
ATOM     37  HN  UNK N   1      19.145  11.304   0.858  1.00  0.00     0.162 HD
BRANCH  36  38
HETATM   38  C   UNK N   1      20.863  10.208   1.388  0.00  0.00     0.021 C 
HETATM   39  C   UNK N   1      22.267  10.451   0.864  0.00  0.00     0.037 C 
HETATM   40  C   UNK N   1      20.242   9.179   0.469  0.00  0.00     0.037 C 
HETATM   41  C   UNK N   1      20.899   9.604   2.782  0.00  0.00     0.037 C 
ENDBRANCH  36  38
BRANCH  35  42
HETATM   42  O   UNK N   1      19.362  13.565   1.551  0.00  0.00    -0.348 OA
HETATM   43  H   UNK N   1      19.292  13.975   0.711  0.00  0.00     0.219 HD
ENDBRANCH  35  42
ENDBRANCH   4  35
BRANCH   5  44
HETATM   44  C   UNK N   1      25.557  15.525   3.188  0.00  0.00     0.117 A 
HETATM   45  C   UNK N   1      26.447  14.708   3.897  0.00  0.00     0.125 A 
HETATM   46  N   UNK N   1      27.410  15.290   4.673  0.00  0.00    -0.347 N 
HETATM   47  C   UNK N   1      27.546  16.650   4.738  0.00  0.00     0.142 A 
ATOM     48  HN  UNK N   1      28.040  14.699   5.216  1.00  0.00     0.167 HD
HETATM   49  C   UNK N   1      26.729  17.446   3.917  0.00  0.00     0.148 A 
HETATM   50 Cl   UNK N   1      26.984  19.159   3.684  0.00  0.00    -0.060 Cl
HETATM   51  N   UNK N   1      25.762  16.861   3.191  0.00  0.00    -0.338 N 
ATOM     52  HN  UNK N   1      25.155  17.450   2.619  1.00  0.00     0.167 HD
BRANCH  47  53
HETATM   53  N   UNK N   1      28.470  17.242   5.650  0.00  0.00    -0.361 N 
HETATM   54  C   UNK N   1      28.047  17.803   6.907  0.00  0.00     0.154 C 
HETATM   55  C   UNK N   1      29.008  17.280   7.986  0.00  0.00     0.291 C 
HETATM   56  N   UNK N   1      30.399  17.588   7.625  0.00  0.00     0.087 N 
HETATM   57  C   UNK N   1      31.261  17.022   8.645  0.00  0.00     0.310 C 
HETATM   58  C   UNK N   1      30.747  16.923   6.372  0.00  0.00     0.291 C 
HETATM   59  C   UNK N   1      29.850  17.440   5.264  0.00  0.00     0.154 C 
ENDBRANCH  47  53
ENDBRANCH   5  44
TORSDOF 16
ENDMDL
MODEL 9
REMARK VINA RESULT:      -8.0      3.810     11.557
REMARK  16 active torsions:
REMARK  status: ('A' for Active; 'I' for Inactive)
REMARK    1  A    between atoms: C_25  and  C_19 
REMARK    2  A    between atoms: C_26  and  C_19 
REMARK    3  A    between atoms: C_26  and  C_20 
REMARK    4  A    between atoms: C_27  and  C_20 
REMARK    5  A    between atoms: C_27  and  C_22 
REMARK    6  A    between atoms: N_49  and  C_22 
REMARK    7  A    between atoms: C_26  and  C_34 
REMARK    8  A    between atoms: C_27  and  O_51 
REMARK    9  A    between atoms: C_36  and  C_28 
REMARK   10  A    between atoms: C_29  and  C_35 
REMARK   11  A    between atoms: C_30  and  O_52 
REMARK   12  A    between atoms: C_31  and  N_43 
REMARK   13  A    between atoms: N_48  and  C_33 
REMARK   14  A    between atoms: C_34  and  O_53 
REMARK   15  A    between atoms: O_54  and  C_35 
REMARK       I    between atoms: N_50  and  C_36 
REMARK   16  A    between atoms: N_45  and  C_37 
ROOT
HETATM    1  C   UNK N   1      34.705  15.286   8.850  0.00  0.00     0.137 C 
HETATM    2  C   UNK N   1      33.323  14.806   8.403  0.00  0.00     0.145 C 
HETATM    3  C   UNK N   1      34.303  12.660   7.705  0.00  0.00     0.159 C 
HETATM    4  C   UNK N   1      35.682  13.147   8.134  0.00  0.00     0.172 C 
HETATM    5  C   UNK N   1      32.859  13.928   6.169  0.00  0.00     0.271 C 
HETATM    6  N   UNK N   1      35.557  14.151   9.228  0.00  0.00    -0.396 N 
HETATM    7  N   UNK N   1      33.460  13.788   7.393  0.00  0.00    -0.343 N 
HETATM    8  O   UNK N   1      33.162  13.188   5.244  0.00  0.00    -0.266 OA
ENDROOT
BRANCH   6   9
HETATM    9  C   UNK N   1      35.355  13.709  10.628  0.00  0.00     0.149 C 
BRANCH   9  10
HETATM   10  C   UNK N   1      36.588  13.541  11.545  0.00  0.00     0.136 C 
BRANCH  10  11
HETATM   11  C   UNK N   1      36.705  12.148  12.215  0.00  0.00     0.046 C 
BRANCH  11  12
HETATM   12  C   UNK N   1      35.709  11.885  13.348  0.00  0.00     0.067 C 
BRANCH  12  13
HETATM   13  C   UNK N   1      36.443  11.202  14.512  0.00  0.00     0.051 C 
BRANCH  13  14
HETATM   14  C   UNK N   1      35.991  11.706  15.851  0.00  0.00    -0.057 A 
HETATM   15  C   UNK N   1      35.602  13.040  16.034  0.00  0.00     0.007 A 
HETATM   16  C   UNK N   1      35.209  13.497  17.291  0.00  0.00     0.001 A 
HETATM   17  C   UNK N   1      35.199  12.620  18.377  0.00  0.00     0.000 A 
HETATM   18  C   UNK N   1      35.577  11.285  18.200  0.00  0.00     0.001 A 
HETATM   19  C   UNK N   1      35.974  10.829  16.939  0.00  0.00     0.007 A 
ENDBRANCH  13  14
ENDBRANCH  12  13
BRANCH  12  20
HETATM   20  C   UNK N   1      34.477  11.121  12.871  0.00  0.00     0.116 C 
HETATM   21  N   UNK N   1      34.481  10.523  11.723  0.00  0.00    -0.367 N 
ATOM     22  HN  UNK N   1      35.249  10.739  11.088  1.00  0.00     0.161 HD
BRANCH  21  23
HETATM   23  C   UNK N   1      33.482   9.568  11.262  0.00  0.00     0.115 C 
HETATM   24  C   UNK N   1      34.043   8.150  11.239  0.00  0.00     0.007 C 
HETATM   25  C   UNK N   1      35.347   8.046  10.451  0.00  0.00     0.012 C 
HETATM   26  C   UNK N   1      32.961   7.374  10.498  0.00  0.00     0.009 C 
HETATM   27  C   UNK N   1      32.258   8.394   9.594  0.00  0.00     0.034 C 
HETATM   28  C   UNK N   1      32.956   9.724   9.845  0.00  0.00     0.141 C 
BRANCH  28  29
HETATM   29  O   UNK N   1      32.046  10.774   9.731  0.00  0.00    -0.394 OA
HETATM   30  H   UNK N   1      31.614  11.337  10.392  0.00  0.00     0.210 HD
ENDBRANCH  28  29
ENDBRANCH  21  23
BRANCH  20  31
HETATM   31  O   UNK N   1      33.437  10.972  13.715  0.00  0.00    -0.349 OA
HETATM   32  H   UNK N   1      32.840  10.291  13.955  0.00  0.00     0.219 HD
ENDBRANCH  20  31
ENDBRANCH  12  20
ENDBRANCH  11  12
ENDBRANCH  10  11
BRANCH  10  33
HETATM   33  O   UNK N   1      36.522  14.520  12.538  0.00  0.00    -0.394 OA
HETATM   34  H   UNK N   1      35.913  14.523  13.292  0.00  0.00     0.210 HD
ENDBRANCH  10  33
ENDBRANCH   9  10
ENDBRANCH   6   9
BRANCH   4  35
HETATM   35  C   UNK N   1      36.630  11.988   8.455  0.00  0.00     0.136 C 
HETATM   36  N   UNK N   1      37.925  12.062   8.340  0.00  0.00    -0.365 N 
ATOM     37  HN  UNK N   1      38.435  11.233   8.643  1.00  0.00     0.162 HD
BRANCH  36  38
HETATM   38  C   UNK N   1      38.758  13.153   7.842  0.00  0.00     0.021 C 
HETATM   39  C   UNK N   1      38.215  13.728   6.546  0.00  0.00     0.037 C 
HETATM   40  C   UNK N   1      40.120  12.582   7.512  0.00  0.00     0.037 C 
HETATM   41  C   UNK N   1      38.967  14.246   8.877  0.00  0.00     0.037 C 
ENDBRANCH  36  38
BRANCH  35  42
HETATM   42  O   UNK N   1      36.111  10.840   8.932  0.00  0.00    -0.348 OA
HETATM   43  H   UNK N   1      36.619  10.052   8.921  0.00  0.00     0.219 HD
ENDBRANCH  35  42
ENDBRANCH   4  35
BRANCH   5  44
HETATM   44  C   UNK N   1      31.811  14.960   5.977  0.00  0.00     0.117 A 
HETATM   45  C   UNK N   1      32.088  16.322   5.800  0.00  0.00     0.125 A 
HETATM   46  N   UNK N   1      31.049  17.204   5.697  0.00  0.00    -0.347 N 
HETATM   47  C   UNK N   1      29.749  16.778   5.720  0.00  0.00     0.142 A 
ATOM     48  HN  UNK N   1      31.246  18.200   5.600  1.00  0.00     0.167 HD
HETATM   49  C   UNK N   1      29.496  15.397   5.766  0.00  0.00     0.148 A 
HETATM   50 Cl   UNK N   1      27.911  14.704   5.517  0.00  0.00    -0.060 Cl
HETATM   51  N   UNK N   1      30.526  14.546   5.908  0.00  0.00    -0.338 N 
ATOM     52  HN  UNK N   1      30.331  13.547   5.968  1.00  0.00     0.167 HD
BRANCH  47  53
HETATM   53  N   UNK N   1      28.679  17.722   5.741  0.00  0.00    -0.361 N 
HETATM   54  C   UNK N   1      27.926  17.995   6.937  0.00  0.00     0.154 C 
HETATM   55  C   UNK N   1      27.815  19.522   7.068  0.00  0.00     0.291 C 
HETATM   56  N   UNK N   1      27.237  20.100   5.845  0.00  0.00     0.087 N 
HETATM   57  C   UNK N   1      27.212  21.541   6.001  0.00  0.00     0.310 C 
HETATM   58  C   UNK N   1      28.106  19.821   4.704  0.00  0.00     0.291 C 
HETATM   59  C   UNK N   1      28.212  18.321   4.510  0.00  0.00     0.154 C 
ENDBRANCH  47  53
ENDBRANCH   5  44
TORSDOF 16
ENDMDL
