MODEL 1
REMARK VINA RESULT:      -5.2      0.000      0.000
REMARK  4 active torsions:
REMARK  status: ('A' for Active; 'I' for Inactive)
REMARK    1  A    between atoms: C_2  and  O_3 
REMARK    2  A    between atoms: C_2  and  C_4 
REMARK    3  A    between atoms: C_4  and  N_5 
REMARK    4  A    between atoms: C_16  and  N_17 
ROOT
HETATM    1  N   UNK N   1      32.744  16.065   8.571  0.00  0.00    -0.325 N 
HETATM    2  C   UNK N   1      32.191  14.823   8.521  0.00  0.00     0.185 A 
HETATM    3  N   UNK N   1      32.761  13.989   9.438  0.00  0.00    -0.346 N 
ATOM      4  HN  UNK N   1      32.541  13.009   9.617  1.00  0.00     0.167 HD
HETATM    5  C   UNK N   1      33.681  14.756  10.053  0.00  0.00     0.122 A 
HETATM    6  C   UNK N   1      33.665  15.994   9.529  0.00  0.00     0.140 A 
HETATM    7  N   UNK N   1      34.488  16.983   9.955  0.00  0.00    -0.336 N 
ATOM      8  HN  UNK N   1      34.452  17.913   9.538  1.00  0.00     0.168 HD
HETATM    9  C   UNK N   1      35.367  16.694  10.961  0.00  0.00     0.183 A 
HETATM   10  N   UNK N   1      35.403  15.435  11.513  0.00  0.00    -0.337 N 
ATOM     11  HN  UNK N   1      36.066  15.236  12.263  1.00  0.00     0.168 HD
HETATM   12  C   UNK N   1      34.567  14.449  11.073  0.00  0.00     0.131 A 
ENDROOT
BRANCH   1  13
HETATM   13  C   UNK N   1      32.461  17.271   7.794  0.00  0.00     0.162 C 
BRANCH  13  14
HETATM   14  C   UNK N   1      33.514  17.675   6.771  0.00  0.00     0.132 C 
HETATM   15  C   UNK N   1      33.294  17.389   5.302  0.00  0.00     0.041 C 
BRANCH  14  16
HETATM   16  O   UNK N   1      34.708  18.290   7.148  0.00  0.00    -0.394 OA
HETATM   17  H   UNK N   1      34.736  18.847   7.942  0.00  0.00     0.210 HD
ENDBRANCH  14  16
ENDBRANCH  13  14
ENDBRANCH   1  13
BRANCH  12  18
HETATM   18  N   UNK N   1      34.610  13.161  11.644  0.00  0.00    -0.383 N 
HETATM   19  H   UNK N   1      35.039  13.025  12.519  0.00  0.00     0.157 HD
HETATM   20  H   UNK N   1      34.211  12.398  11.166  0.00  0.00     0.157 HD
ENDBRANCH  12  18
TORSDOF 4
ENDMDL
MODEL 2
REMARK VINA RESULT:      -5.1      2.385      3.205
REMARK  4 active torsions:
REMARK  status: ('A' for Active; 'I' for Inactive)
REMARK    1  A    between atoms: C_2  and  O_3 
REMARK    2  A    between atoms: C_2  and  C_4 
REMARK    3  A    between atoms: C_4  and  N_5 
REMARK    4  A    between atoms: C_16  and  N_17 
ROOT
HETATM    1  N   UNK N   1      34.985  16.278   9.810  0.00  0.00    -0.325 N 
HETATM    2  C   UNK N   1      35.544  16.556  11.019  0.00  0.00     0.185 A 
HETATM    3  N   UNK N   1      36.569  15.701  11.300  0.00  0.00    -0.346 N 
ATOM      4  HN  UNK N   1      37.159  15.682  12.132  1.00  0.00     0.167 HD
HETATM    5  C   UNK N   1      36.624  14.889  10.228  0.00  0.00     0.122 A 
HETATM    6  C   UNK N   1      35.674  15.240   9.343  0.00  0.00     0.140 A 
HETATM    7  N   UNK N   1      35.493  14.595   8.165  0.00  0.00    -0.336 N 
ATOM      8  HN  UNK N   1      34.764  14.884   7.513  1.00  0.00     0.168 HD
HETATM    9  C   UNK N   1      36.320  13.544   7.878  0.00  0.00     0.183 A 
HETATM   10  N   UNK N   1      37.298  13.166   8.766  0.00  0.00    -0.337 N 
ATOM     11  HN  UNK N   1      37.906  12.380   8.537  1.00  0.00     0.168 HD
HETATM   12  C   UNK N   1      37.468  13.827   9.950  0.00  0.00     0.131 A 
ENDROOT
BRANCH   1  13
HETATM   13  C   UNK N   1      33.878  16.915   9.097  0.00  0.00     0.162 C 
BRANCH  13  14
HETATM   14  C   UNK N   1      34.262  17.932   8.031  0.00  0.00     0.132 C 
HETATM   15  C   UNK N   1      33.850  17.715   6.592  0.00  0.00     0.041 C 
BRANCH  14  16
HETATM   16  O   UNK N   1      35.013  19.068   8.335  0.00  0.00    -0.394 OA
HETATM   17  H   UNK N   1      35.931  18.975   8.632  0.00  0.00     0.210 HD
ENDBRANCH  14  16
ENDBRANCH  13  14
ENDBRANCH   1  13
BRANCH  12  18
HETATM   18  N   UNK N   1      38.473  13.433  10.856  0.00  0.00    -0.383 N 
HETATM   19  H   UNK N   1      38.256  12.827  11.600  0.00  0.00     0.157 HD
HETATM   20  H   UNK N   1      39.394  13.764  10.743  0.00  0.00     0.157 HD
ENDBRANCH  12  18
TORSDOF 4
ENDMDL
MODEL 3
REMARK VINA RESULT:      -5.1      3.465      5.388
REMARK  4 active torsions:
REMARK  status: ('A' for Active; 'I' for Inactive)
REMARK    1  A    between atoms: C_2  and  O_3 
REMARK    2  A    between atoms: C_2  and  C_4 
REMARK    3  A    between atoms: C_4  and  N_5 
REMARK    4  A    between atoms: C_16  and  N_17 
ROOT
HETATM    1  N   UNK N   1      31.519  16.976   7.240  0.00  0.00    -0.325 N 
HETATM    2  C   UNK N   1      30.987  16.824   5.996  0.00  0.00     0.185 A 
HETATM    3  N   UNK N   1      29.714  17.309   5.939  0.00  0.00    -0.346 N 
ATOM      4  HN  UNK N   1      29.084  17.324   5.137  1.00  0.00     0.167 HD
HETATM    5  C   UNK N   1      29.478  17.764   7.184  0.00  0.00     0.122 A 
HETATM    6  C   UNK N   1      30.562  17.561   7.955  0.00  0.00     0.140 A 
HETATM    7  N   UNK N   1      30.613  17.921   9.260  0.00  0.00    -0.336 N 
ATOM      8  HN  UNK N   1      31.449  17.754   9.819  1.00  0.00     0.168 HD
HETATM    9  C   UNK N   1      29.507  18.514   9.803  0.00  0.00     0.183 A 
HETATM   10  N   UNK N   1      28.387  18.732   9.037  0.00  0.00    -0.337 N 
ATOM     11  HN  UNK N   1      27.571  19.176   9.457  1.00  0.00     0.168 HD
HETATM   12  C   UNK N   1      28.351  18.364   7.721  0.00  0.00     0.131 A 
ENDROOT
BRANCH   1  13
HETATM   13  C   UNK N   1      32.833  16.615   7.770  0.00  0.00     0.162 C 
BRANCH  13  14
HETATM   14  C   UNK N   1      33.998  17.498   7.340  0.00  0.00     0.132 C 
HETATM   15  C   UNK N   1      34.620  18.464   8.324  0.00  0.00     0.041 C 
BRANCH  14  16
HETATM   16  O   UNK N   1      34.506  17.465   6.042  0.00  0.00    -0.394 OA
HETATM   17  H   UNK N   1      35.156  16.789   5.794  0.00  0.00     0.210 HD
ENDBRANCH  14  16
ENDBRANCH  13  14
ENDBRANCH   1  13
BRANCH  12  18
HETATM   18  N   UNK N   1      27.200  18.591   6.942  0.00  0.00    -0.383 N 
HETATM   19  H   UNK N   1      27.172  19.347   6.312  0.00  0.00     0.157 HD
HETATM   20  H   UNK N   1      26.422  17.992   7.028  0.00  0.00     0.157 HD
ENDBRANCH  12  18
TORSDOF 4
ENDMDL
MODEL 4
REMARK VINA RESULT:      -5.0      3.560      5.563
REMARK  4 active torsions:
REMARK  status: ('A' for Active; 'I' for Inactive)
REMARK    1  A    between atoms: C_2  and  O_3 
REMARK    2  A    between atoms: C_2  and  C_4 
REMARK    3  A    between atoms: C_4  and  N_5 
REMARK    4  A    between atoms: C_16  and  N_17 
ROOT
HETATM    1  N   UNK N   1      31.424  16.699   7.292  0.00  0.00    -0.325 N 
HETATM    2  C   UNK N   1      31.547  16.872   8.637  0.00  0.00     0.185 A 
HETATM    3  N   UNK N   1      30.403  17.380   9.179  0.00  0.00    -0.346 N 
ATOM      4  HN  UNK N   1      30.219  17.606  10.156  1.00  0.00     0.167 HD
HETATM    5  C   UNK N   1      29.573  17.515   8.127  0.00  0.00     0.122 A 
HETATM    6  C   UNK N   1      30.190  17.106   7.005  0.00  0.00     0.140 A 
HETATM    7  N   UNK N   1      29.593  17.128   5.788  0.00  0.00    -0.336 N 
ATOM      8  HN  UNK N   1      30.087  16.811   4.955  1.00  0.00     0.168 HD
HETATM    9  C   UNK N   1      28.308  17.588   5.716  0.00  0.00     0.183 A 
HETATM   10  N   UNK N   1      27.655  18.012   6.849  0.00  0.00    -0.337 N 
ATOM     11  HN  UNK N   1      26.696  18.353   6.777  1.00  0.00     0.168 HD
HETATM   12  C   UNK N   1      28.271  17.983   8.068  0.00  0.00     0.131 A 
ENDROOT
BRANCH   1  13
HETATM   13  C   UNK N   1      32.370  16.189   6.302  0.00  0.00     0.162 C 
BRANCH  13  14
HETATM   14  C   UNK N   1      33.199  17.232   5.564  0.00  0.00     0.132 C 
HETATM   15  C   UNK N   1      32.868  17.589   4.131  0.00  0.00     0.041 C 
BRANCH  14  16
HETATM   16  O   UNK N   1      34.288  17.865   6.163  0.00  0.00    -0.394 OA
HETATM   17  H   UNK N   1      34.572  18.738   5.851  0.00  0.00     0.210 HD
ENDBRANCH  14  16
ENDBRANCH  13  14
ENDBRANCH   1  13
BRANCH  12  18
HETATM   18  N   UNK N   1      27.595  18.419   9.225  0.00  0.00    -0.383 N 
HETATM   19  H   UNK N   1      28.093  18.567  10.061  0.00  0.00     0.157 HD
HETATM   20  H   UNK N   1      26.623  18.577   9.197  0.00  0.00     0.157 HD
ENDBRANCH  12  18
TORSDOF 4
ENDMDL
MODEL 5
REMARK VINA RESULT:      -4.8     13.444     14.971
REMARK  4 active torsions:
REMARK  status: ('A' for Active; 'I' for Inactive)
REMARK    1  A    between atoms: C_2  and  O_3 
REMARK    2  A    between atoms: C_2  and  C_4 
REMARK    3  A    between atoms: C_4  and  N_5 
REMARK    4  A    between atoms: C_16  and  N_17 
ROOT
HETATM    1  N   UNK N   1      20.680  16.529   5.259  0.00  0.00    -0.325 N 
HETATM    2  C   UNK N   1      19.985  15.509   4.686  0.00  0.00     0.185 A 
HETATM    3  N   UNK N   1      19.558  15.841   3.434  0.00  0.00    -0.346 N 
ATOM      4  HN  UNK N   1      19.018  15.269   2.783  1.00  0.00     0.167 HD
HETATM    5  C   UNK N   1      20.011  17.096   3.253  0.00  0.00     0.122 A 
HETATM    6  C   UNK N   1      20.680  17.500   4.348  0.00  0.00     0.140 A 
HETATM    7  N   UNK N   1      21.249  18.725   4.450  0.00  0.00    -0.336 N 
ATOM      8  HN  UNK N   1      21.750  19.003   5.293  1.00  0.00     0.168 HD
HETATM    9  C   UNK N   1      21.129  19.576   3.387  0.00  0.00     0.183 A 
HETATM   10  N   UNK N   1      20.450  19.187   2.257  0.00  0.00    -0.337 N 
ATOM     11  HN  UNK N   1      20.370  19.835   1.473  1.00  0.00     0.168 HD
HETATM   12  C   UNK N   1      19.882  17.948   2.169  0.00  0.00     0.131 A 
ENDROOT
BRANCH   1  13
HETATM   13  C   UNK N   1      21.322  16.635   6.568  0.00  0.00     0.162 C 
BRANCH  13  14
HETATM   14  C   UNK N   1      20.574  17.442   7.621  0.00  0.00     0.132 C 
HETATM   15  C   UNK N   1      19.730  16.737   8.659  0.00  0.00     0.041 C 
BRANCH  14  16
HETATM   16  O   UNK N   1      20.621  18.836   7.649  0.00  0.00    -0.394 OA
HETATM   17  H   UNK N   1      21.052  19.321   6.929  0.00  0.00     0.210 HD
ENDBRANCH  14  16
ENDBRANCH  13  14
ENDBRANCH   1  13
BRANCH  12  18
HETATM   18  N   UNK N   1      19.187  17.557   1.007  0.00  0.00    -0.383 N 
HETATM   19  H   UNK N   1      18.266  17.217   1.075  0.00  0.00     0.157 HD
HETATM   20  H   UNK N   1      19.625  17.623   0.127  0.00  0.00     0.157 HD
ENDBRANCH  12  18
TORSDOF 4
ENDMDL
MODEL 6
REMARK VINA RESULT:      -4.8      3.969      6.081
REMARK  4 active torsions:
REMARK  status: ('A' for Active; 'I' for Inactive)
REMARK    1  A    between atoms: C_2  and  O_3 
REMARK    2  A    between atoms: C_2  and  C_4 
REMARK    3  A    between atoms: C_4  and  N_5 
REMARK    4  A    between atoms: C_16  and  N_17 
ROOT
HETATM    1  N   UNK N   1      35.692  13.617  13.103  0.00  0.00    -0.325 N 
HETATM    2  C   UNK N   1      36.394  14.289  14.056  0.00  0.00     0.185 A 
HETATM    3  N   UNK N   1      36.252  13.706  15.281  0.00  0.00    -0.346 N 
ATOM      4  HN  UNK N   1      36.666  13.999  16.167  1.00  0.00     0.167 HD
HETATM    5  C   UNK N   1      35.442  12.655  15.053  0.00  0.00     0.122 A 
HETATM    6  C   UNK N   1      35.112  12.609  13.750  0.00  0.00     0.140 A 
HETATM    7  N   UNK N   1      34.304  11.653  13.230  0.00  0.00    -0.336 N 
ATOM      8  HN  UNK N   1      34.072  11.645  12.238  1.00  0.00     0.168 HD
HETATM    9  C   UNK N   1      33.811  10.702  14.079  0.00  0.00     0.183 A 
HETATM   10  N   UNK N   1      34.134  10.727  15.415  0.00  0.00    -0.337 N 
ATOM     11  HN  UNK N   1      33.758  10.009  16.035  1.00  0.00     0.168 HD
HETATM   12  C   UNK N   1      34.950  11.697  15.925  0.00  0.00     0.131 A 
ENDROOT
BRANCH   1  13
HETATM   13  C   UNK N   1      35.545  13.863  11.670  0.00  0.00     0.162 C 
BRANCH  13  14
HETATM   14  C   UNK N   1      34.687  15.058  11.277  0.00  0.00     0.132 C 
HETATM   15  C   UNK N   1      35.332  16.399  11.004  0.00  0.00     0.041 C 
BRANCH  14  16
HETATM   16  O   UNK N   1      33.299  14.967  11.180  0.00  0.00    -0.394 OA
HETATM   17  H   UNK N   1      32.765  14.830  11.978  0.00  0.00     0.210 HD
ENDBRANCH  14  16
ENDBRANCH  13  14
ENDBRANCH   1  13
BRANCH  12  18
HETATM   18  N   UNK N   1      35.276  11.716  17.295  0.00  0.00    -0.383 N 
HETATM   19  H   UNK N   1      36.139  11.354  17.602  0.00  0.00     0.157 HD
HETATM   20  H   UNK N   1      34.640  12.092  17.947  0.00  0.00     0.157 HD
ENDBRANCH  12  18
TORSDOF 4
ENDMDL
MODEL 7
REMARK VINA RESULT:      -4.8      2.516      5.400
REMARK  4 active torsions:
REMARK  status: ('A' for Active; 'I' for Inactive)
REMARK    1  A    between atoms: C_2  and  O_3 
REMARK    2  A    between atoms: C_2  and  C_4 
REMARK    3  A    between atoms: C_4  and  N_5 
REMARK    4  A    between atoms: C_16  and  N_17 
ROOT
HETATM    1  N   UNK N   1      34.944  15.163  11.195  0.00  0.00    -0.325 N 
HETATM    2  C   UNK N   1      35.652  16.325  11.221  0.00  0.00     0.185 A 
HETATM    3  N   UNK N   1      35.216  17.192  10.262  0.00  0.00    -0.346 N 
ATOM      4  HN  UNK N   1      35.566  18.129  10.059  1.00  0.00     0.167 HD
HETATM    5  C   UNK N   1      34.220  16.529   9.645  0.00  0.00     0.122 A 
HETATM    6  C   UNK N   1      34.064  15.317  10.208  0.00  0.00     0.140 A 
HETATM    7  N   UNK N   1      33.131  14.428   9.791  0.00  0.00    -0.336 N 
ATOM      8  HN  UNK N   1      33.037  13.517  10.238  1.00  0.00     0.168 HD
HETATM    9  C   UNK N   1      32.321  14.792   8.751  0.00  0.00     0.183 A 
HETATM   10  N   UNK N   1      32.461  16.024   8.159  0.00  0.00    -0.337 N 
ATOM     11  HN  UNK N   1      31.849  16.280   7.384  1.00  0.00     0.168 HD
HETATM   12  C   UNK N   1      33.407  16.911   8.592  0.00  0.00     0.131 A 
ENDROOT
BRANCH   1  13
HETATM   13  C   UNK N   1      35.048  13.960  12.019  0.00  0.00     0.162 C 
BRANCH  13  14
HETATM   14  C   UNK N   1      36.363  13.765  12.762  0.00  0.00     0.132 C 
HETATM   15  C   UNK N   1      36.434  14.008  14.254  0.00  0.00     0.041 C 
BRANCH  14  16
HETATM   16  O   UNK N   1      37.531  13.386  12.102  0.00  0.00    -0.394 OA
HETATM   17  H   UNK N   1      37.498  13.127  11.169  0.00  0.00     0.210 HD
ENDBRANCH  14  16
ENDBRANCH  13  14
ENDBRANCH   1  13
BRANCH  12  18
HETATM   18  N   UNK N   1      33.544  18.172   7.979  0.00  0.00    -0.383 N 
HETATM   19  H   UNK N   1      32.852  18.860   8.107  0.00  0.00     0.157 HD
HETATM   20  H   UNK N   1      34.333  18.365   7.422  0.00  0.00     0.157 HD
ENDBRANCH  12  18
TORSDOF 4
ENDMDL
MODEL 8
REMARK VINA RESULT:      -4.7     10.846     12.518
REMARK  4 active torsions:
REMARK  status: ('A' for Active; 'I' for Inactive)
REMARK    1  A    between atoms: C_2  and  O_3 
REMARK    2  A    between atoms: C_2  and  C_4 
REMARK    3  A    between atoms: C_4  and  N_5 
REMARK    4  A    between atoms: C_16  and  N_17 
ROOT
HETATM    1  N   UNK N   1      23.037  12.535   9.313  0.00  0.00    -0.325 N 
HETATM    2  C   UNK N   1      23.944  12.685   8.309  0.00  0.00     0.185 A 
HETATM    3  N   UNK N   1      23.595  13.706   7.474  0.00  0.00    -0.346 N 
ATOM      4  HN  UNK N   1      24.091  14.036   6.646  1.00  0.00     0.167 HD
HETATM    5  C   UNK N   1      22.448  14.180   7.995  0.00  0.00     0.122 A 
HETATM    6  C   UNK N   1      22.121  13.475   9.092  0.00  0.00     0.140 A 
HETATM    7  N   UNK N   1      21.010  13.730   9.825  0.00  0.00    -0.336 N 
ATOM      8  HN  UNK N   1      20.789  13.178  10.653  1.00  0.00     0.168 HD
HETATM    9  C   UNK N   1      20.196  14.751   9.419  0.00  0.00     0.183 A 
HETATM   10  N   UNK N   1      20.509  15.486   8.300  0.00  0.00    -0.337 N 
ATOM     11  HN  UNK N   1      19.891  16.244   8.011  1.00  0.00     0.168 HD
HETATM   12  C   UNK N   1      21.633  15.217   7.571  0.00  0.00     0.131 A 
ENDROOT
BRANCH   1  13
HETATM   13  C   UNK N   1      22.990  11.591  10.428  0.00  0.00     0.162 C 
BRANCH  13  14
HETATM   14  C   UNK N   1      23.789  11.972  11.667  0.00  0.00     0.132 C 
HETATM   15  C   UNK N   1      23.163  11.856  13.039  0.00  0.00     0.041 C 
BRANCH  14  16
HETATM   16  O   UNK N   1      25.094  12.456  11.580  0.00  0.00    -0.394 OA
HETATM   17  H   UNK N   1      25.682  12.139  10.878  0.00  0.00     0.210 HD
ENDBRANCH  14  16
ENDBRANCH  13  14
ENDBRANCH   1  13
BRANCH  12  18
HETATM   18  N   UNK N   1      21.945  15.975   6.426  0.00  0.00    -0.383 N 
HETATM   19  H   UNK N   1      22.565  15.615   5.751  0.00  0.00     0.157 HD
HETATM   20  H   UNK N   1      21.544  16.866   6.301  0.00  0.00     0.157 HD
ENDBRANCH  12  18
TORSDOF 4
ENDMDL
MODEL 9
REMARK VINA RESULT:      -4.7     11.561     13.146
REMARK  4 active torsions:
REMARK  status: ('A' for Active; 'I' for Inactive)
REMARK    1  A    between atoms: C_2  and  O_3 
REMARK    2  A    between atoms: C_2  and  C_4 
REMARK    3  A    between atoms: C_4  and  N_5 
REMARK    4  A    between atoms: C_16  and  N_17 
ROOT
HETATM    1  N   UNK N   1      41.699  21.614   2.588  0.00  0.00    -0.325 N 
HETATM    2  C   UNK N   1      41.280  22.783   2.032  0.00  0.00     0.185 A 
HETATM    3  N   UNK N   1      42.257  23.734   2.082  0.00  0.00    -0.346 N 
ATOM      4  HN  UNK N   1      42.215  24.695   1.741  1.00  0.00     0.167 HD
HETATM    5  C   UNK N   1      43.289  23.114   2.684  0.00  0.00     0.122 A 
HETATM    6  C   UNK N   1      42.948  21.848   2.983  0.00  0.00     0.140 A 
HETATM    7  N   UNK N   1      43.793  20.984   3.596  0.00  0.00    -0.336 N 
ATOM      8  HN  UNK N   1      43.506  20.030   3.810  1.00  0.00     0.168 HD
HETATM    9  C   UNK N   1      45.044  21.435   3.919  0.00  0.00     0.183 A 
HETATM   10  N   UNK N   1      45.416  22.724   3.624  0.00  0.00    -0.337 N 
ATOM     11  HN  UNK N   1      46.353  23.044   3.872  1.00  0.00     0.168 HD
HETATM   12  C   UNK N   1      44.552  23.583   3.005  0.00  0.00     0.131 A 
ENDROOT
BRANCH   1  13
HETATM   13  C   UNK N   1      41.013  20.334   2.758  0.00  0.00     0.162 C 
BRANCH  13  14
HETATM   14  C   UNK N   1      41.704  19.115   2.162  0.00  0.00     0.132 C 
HETATM   15  C   UNK N   1      41.709  18.902   0.664  0.00  0.00     0.041 C 
BRANCH  14  16
HETATM   16  O   UNK N   1      42.326  18.157   2.962  0.00  0.00    -0.394 OA
HETATM   17  H   UNK N   1      43.161  17.755   2.677  0.00  0.00     0.210 HD
ENDBRANCH  14  16
ENDBRANCH  13  14
ENDBRANCH   1  13
BRANCH  12  18
HETATM   18  N   UNK N   1      44.942  24.904   2.707  0.00  0.00    -0.383 N 
HETATM   19  H   UNK N   1      44.627  25.336   1.881  0.00  0.00     0.157 HD
HETATM   20  H   UNK N   1      45.532  25.394   3.325  0.00  0.00     0.157 HD
ENDBRANCH  12  18
TORSDOF 4
ENDMDL
