MODEL 1
REMARK VINA RESULT:      -5.2      0.000      0.000
REMARK  5 active torsions:
REMARK  status: ('A' for Active; 'I' for Inactive)
REMARK    1  A    between atoms: C_4  and  O_9 
REMARK    2  A    between atoms: C_5  and  O_10 
REMARK    3  A    between atoms: C_7  and  C_6 
REMARK    4  A    between atoms: O_12  and  C_6 
REMARK    5  A    between atoms: C_7  and  O_13 
ROOT
HETATM    1  C   UNK N   1      21.425  12.420  10.928  0.00  0.00     0.062 C 
HETATM    2  C   UNK N   1      23.513  13.061   9.664  0.00  0.00     0.088 C 
HETATM    3  C   UNK N   1      20.714  13.283  10.177  0.00  0.00     0.124 C 
HETATM    4  C   UNK N   1      22.602  13.293   8.462  0.00  0.00     0.157 C 
HETATM    5  C   UNK N   1      21.283  13.934   8.933  0.00  0.00     0.208 C 
HETATM    6  C   UNK N   1      22.871  12.067  10.652  0.00  0.00     0.165 C 
HETATM    7  F   UNK N   1      19.468  13.631  10.589  0.00  0.00    -0.208 F 
ENDROOT
BRANCH   6   8
HETATM    8  C   UNK N   1      23.648  12.088  11.942  0.00  0.00     0.180 C 
HETATM    9  O   UNK N   1      23.081  11.887  13.007  0.00  0.00    -0.648 OA
BRANCH   8  10
HETATM   10  O   UNK N   1      24.975  12.322  11.934  0.00  0.00    -0.774 OA
HETATM   11  H   UNK N   1      25.617  11.666  12.123  0.00  0.00     0.167 HD
ENDBRANCH   8  10
ENDBRANCH   6   8
BRANCH   6  12
HETATM   12  O   UNK N   1      22.919  10.778  10.115  0.00  0.00    -0.375 OA
HETATM   13  H   UNK N   1      22.514  10.205   9.445  0.00  0.00     0.211 HD
ENDBRANCH   6  12
BRANCH   4  14
HETATM   14  O   UNK N   1      22.352  12.072   7.827  0.00  0.00    -0.392 OA
HETATM   15  H   UNK N   1      22.353  11.102   7.818  0.00  0.00     0.210 HD
ENDBRANCH   4  14
BRANCH   5  16
HETATM   16  O   UNK N   1      20.349  13.865   7.896  0.00  0.00    -0.386 OA
HETATM   17  H   UNK N   1      20.088  14.523   7.232  0.00  0.00     0.210 HD
ENDBRANCH   5  16
TORSDOF 5
ENDMDL
MODEL 2
REMARK VINA RESULT:      -5.2     10.905     12.285
REMARK  5 active torsions:
REMARK  status: ('A' for Active; 'I' for Inactive)
REMARK    1  A    between atoms: C_4  and  O_9 
REMARK    2  A    between atoms: C_5  and  O_10 
REMARK    3  A    between atoms: C_7  and  C_6 
REMARK    4  A    between atoms: O_12  and  C_6 
REMARK    5  A    between atoms: C_7  and  O_13 
ROOT
HETATM    1  C   UNK N   1      32.769  16.030   7.387  0.00  0.00     0.062 C 
HETATM    2  C   UNK N   1      34.388  16.112   9.321  0.00  0.00     0.088 C 
HETATM    3  C   UNK N   1      32.729  14.687   7.487  0.00  0.00     0.124 C 
HETATM    4  C   UNK N   1      33.678  14.869   9.848  0.00  0.00     0.157 C 
HETATM    5  C   UNK N   1      33.319  13.945   8.669  0.00  0.00     0.208 C 
HETATM    6  C   UNK N   1      33.456  16.923   8.398  0.00  0.00     0.165 C 
HETATM    7  F   UNK N   1      32.202  13.973   6.459  0.00  0.00    -0.208 F 
ENDROOT
BRANCH   6   8
HETATM    8  C   UNK N   1      34.269  17.965   7.674  0.00  0.00     0.180 C 
HETATM    9  O   UNK N   1      34.358  17.943   6.455  0.00  0.00    -0.648 OA
BRANCH   8  10
HETATM   10  O   UNK N   1      34.901  18.935   8.365  0.00  0.00    -0.774 OA
HETATM   11  H   UNK N   1      35.681  18.789   8.865  0.00  0.00     0.167 HD
ENDBRANCH   8  10
ENDBRANCH   6   8
BRANCH   6  12
HETATM   12  O   UNK N   1      32.478  17.562   9.164  0.00  0.00    -0.375 OA
HETATM   13  H   UNK N   1      31.690  17.396   9.703  0.00  0.00     0.211 HD
ENDBRANCH   6  12
BRANCH   4  14
HETATM   14  O   UNK N   1      32.523  15.251  10.538  0.00  0.00    -0.392 OA
HETATM   15  H   UNK N   1      31.566  15.199  10.689  0.00  0.00     0.210 HD
ENDBRANCH   4  14
BRANCH   5  16
HETATM   16  O   UNK N   1      32.416  12.974   9.112  0.00  0.00    -0.386 OA
HETATM   17  H   UNK N   1      31.485  12.821   8.883  0.00  0.00     0.210 HD
ENDBRANCH   5  16
TORSDOF 5
ENDMDL
MODEL 3
REMARK VINA RESULT:      -5.2      8.125     10.286
REMARK  5 active torsions:
REMARK  status: ('A' for Active; 'I' for Inactive)
REMARK    1  A    between atoms: C_4  and  O_9 
REMARK    2  A    between atoms: C_5  and  O_10 
REMARK    3  A    between atoms: C_7  and  C_6 
REMARK    4  A    between atoms: O_12  and  C_6 
REMARK    5  A    between atoms: C_7  and  O_13 
ROOT
HETATM    1  C   UNK N   1      20.074  17.358   1.180  0.00  0.00     0.062 C 
HETATM    2  C   UNK N   1      20.630  18.183   3.499  0.00  0.00     0.088 C 
HETATM    3  C   UNK N   1      20.479  16.122   1.532  0.00  0.00     0.124 C 
HETATM    4  C   UNK N   1      20.262  16.785   3.985  0.00  0.00     0.157 C 
HETATM    5  C   UNK N   1      20.764  15.741   2.970  0.00  0.00     0.208 C 
HETATM    6  C   UNK N   1      19.929  18.500   2.164  0.00  0.00     0.165 C 
HETATM    7  F   UNK N   1      20.704  15.208   0.553  0.00  0.00    -0.208 F 
ENDROOT
BRANCH   6   8
HETATM    8  C   UNK N   1      20.534  19.748   1.576  0.00  0.00     0.180 C 
HETATM    9  O   UNK N   1      20.933  20.644   2.306  0.00  0.00    -0.648 OA
BRANCH   8  10
HETATM   10  O   UNK N   1      20.644  19.886   0.239  0.00  0.00    -0.774 OA
HETATM   11  H   UNK N   1      20.536  19.176  -0.364  0.00  0.00     0.167 HD
ENDBRANCH   8  10
ENDBRANCH   6   8
BRANCH   6  12
HETATM   12  O   UNK N   1      18.567  18.720   2.390  0.00  0.00    -0.375 OA
HETATM   13  H   UNK N   1      17.908  18.812   3.095  0.00  0.00     0.211 HD
ENDBRANCH   6  12
BRANCH   4  14
HETATM   14  O   UNK N   1      18.874  16.694   4.133  0.00  0.00    -0.392 OA
HETATM   15  H   UNK N   1      18.077  16.207   4.394  0.00  0.00     0.210 HD
ENDBRANCH   4  14
BRANCH   5  16
HETATM   16  O   UNK N   1      20.170  14.508   3.255  0.00  0.00    -0.386 OA
HETATM   17  H   UNK N   1      20.560  13.670   3.552  0.00  0.00     0.210 HD
ENDBRANCH   5  16
TORSDOF 5
ENDMDL
MODEL 4
REMARK VINA RESULT:      -5.0     11.282     12.526
REMARK  5 active torsions:
REMARK  status: ('A' for Active; 'I' for Inactive)
REMARK    1  A    between atoms: C_4  and  O_9 
REMARK    2  A    between atoms: C_5  and  O_10 
REMARK    3  A    between atoms: C_7  and  C_6 
REMARK    4  A    between atoms: O_12  and  C_6 
REMARK    5  A    between atoms: C_7  and  O_13 
ROOT
HETATM    1  C   UNK N   1      34.411  15.986   7.625  0.00  0.00     0.062 C 
HETATM    2  C   UNK N   1      32.562  17.651   8.049  0.00  0.00     0.088 C 
HETATM    3  C   UNK N   1      33.502  14.992   7.612  0.00  0.00     0.124 C 
HETATM    4  C   UNK N   1      31.666  16.722   7.237  0.00  0.00     0.157 C 
HETATM    5  C   UNK N   1      32.011  15.257   7.567  0.00  0.00     0.208 C 
HETATM    6  C   UNK N   1      34.042  17.454   7.666  0.00  0.00     0.165 C 
HETATM    7  F   UNK N   1      33.938  13.710   7.709  0.00  0.00    -0.208 F 
ENDROOT
BRANCH   6   8
HETATM    8  C   UNK N   1      34.909  18.161   8.675  0.00  0.00     0.180 C 
HETATM    9  O   UNK N   1      35.301  19.299   8.463  0.00  0.00    -0.648 OA
BRANCH   8  10
HETATM   10  O   UNK N   1      35.256  17.545   9.823  0.00  0.00    -0.774 OA
HETATM   11  H   UNK N   1      36.039  17.742  10.299  0.00  0.00     0.167 HD
ENDBRANCH   8  10
ENDBRANCH   6   8
BRANCH   6  12
HETATM   12  O   UNK N   1      34.276  18.006   6.403  0.00  0.00    -0.375 OA
HETATM   13  H   UNK N   1      34.737  18.729   5.951  0.00  0.00     0.211 HD
ENDBRANCH   6  12
BRANCH   4  14
HETATM   14  O   UNK N   1      31.850  16.972   5.874  0.00  0.00    -0.392 OA
HETATM   15  H   UNK N   1      32.288  17.443   5.147  0.00  0.00     0.210 HD
ENDBRANCH   4  14
BRANCH   5  16
HETATM   16  O   UNK N   1      31.414  14.425   6.616  0.00  0.00    -0.386 OA
HETATM   17  H   UNK N   1      30.987  14.632   5.769  0.00  0.00     0.210 HD
ENDBRANCH   5  16
TORSDOF 5
ENDMDL
MODEL 5
REMARK VINA RESULT:      -5.0     18.461     19.480
REMARK  5 active torsions:
REMARK  status: ('A' for Active; 'I' for Inactive)
REMARK    1  A    between atoms: C_4  and  O_9 
REMARK    2  A    between atoms: C_5  and  O_10 
REMARK    3  A    between atoms: C_7  and  C_6 
REMARK    4  A    between atoms: O_12  and  C_6 
REMARK    5  A    between atoms: C_7  and  O_13 
ROOT
HETATM    1  C   UNK N   1      32.562  22.540  -4.109  0.00  0.00     0.062 C 
HETATM    2  C   UNK N   1      30.359  21.553  -3.373  0.00  0.00     0.088 C 
HETATM    3  C   UNK N   1      31.971  23.743  -4.238  0.00  0.00     0.124 C 
HETATM    4  C   UNK N   1      30.053  22.921  -2.772  0.00  0.00     0.157 C 
HETATM    5  C   UNK N   1      30.580  24.024  -3.710  0.00  0.00     0.208 C 
HETATM    6  C   UNK N   1      31.881  21.337  -3.492  0.00  0.00     0.165 C 
HETATM    7  F   UNK N   1      32.622  24.718  -4.925  0.00  0.00    -0.208 F 
ENDROOT
BRANCH   6   8
HETATM    8  C   UNK N   1      32.139  20.122  -4.345  0.00  0.00     0.180 C 
HETATM    9  O   UNK N   1      31.539  19.970  -5.400  0.00  0.00    -0.648 OA
BRANCH   8  10
HETATM   10  O   UNK N   1      33.036  19.195  -3.955  0.00  0.00    -0.774 OA
HETATM   11  H   UNK N   1      33.767  19.385  -3.399  0.00  0.00     0.167 HD
ENDBRANCH   8  10
ENDBRANCH   6   8
BRANCH   6  12
HETATM   12  O   UNK N   1      32.424  21.122  -2.222  0.00  0.00    -0.375 OA
HETATM   13  H   UNK N   1      33.141  21.401  -1.632  0.00  0.00     0.211 HD
ENDBRANCH   6  12
BRANCH   4  14
HETATM   14  O   UNK N   1      30.657  23.022  -1.514  0.00  0.00    -0.392 OA
HETATM   15  H   UNK N   1      31.261  22.689  -0.831  0.00  0.00     0.210 HD
ENDBRANCH   4  14
BRANCH   5  16
HETATM   16  O   UNK N   1      30.573  25.243  -3.027  0.00  0.00    -0.386 OA
HETATM   17  H   UNK N   1      31.041  25.524  -2.225  0.00  0.00     0.210 HD
ENDBRANCH   5  16
TORSDOF 5
ENDMDL
MODEL 6
REMARK VINA RESULT:      -4.9     12.750     13.906
REMARK  5 active torsions:
REMARK  status: ('A' for Active; 'I' for Inactive)
REMARK    1  A    between atoms: C_4  and  O_9 
REMARK    2  A    between atoms: C_5  and  O_10 
REMARK    3  A    between atoms: C_7  and  C_6 
REMARK    4  A    between atoms: O_12  and  C_6 
REMARK    5  A    between atoms: C_7  and  O_13 
ROOT
HETATM    1  C   UNK N   1      35.283  14.278   9.871  0.00  0.00     0.062 C 
HETATM    2  C   UNK N   1      35.614  15.190  12.200  0.00  0.00     0.088 C 
HETATM    3  C   UNK N   1      36.085  13.239  10.172  0.00  0.00     0.124 C 
HETATM    4  C   UNK N   1      35.746  13.739  12.650  0.00  0.00     0.157 C 
HETATM    5  C   UNK N   1      36.529  12.942  11.590  0.00  0.00     0.208 C 
HETATM    6  C   UNK N   1      34.802  15.285  10.893  0.00  0.00     0.165 C 
HETATM    7  F   UNK N   1      36.565  12.472   9.159  0.00  0.00    -0.208 F 
ENDROOT
BRANCH   6   8
HETATM    8  C   UNK N   1      34.941  16.676  10.330  0.00  0.00     0.180 C 
HETATM    9  O   UNK N   1      35.983  17.299  10.473  0.00  0.00    -0.648 OA
BRANCH   8  10
HETATM   10  O   UNK N   1      33.918  17.243   9.660  0.00  0.00    -0.774 OA
HETATM   11  H   UNK N   1      33.175  17.631  10.081  0.00  0.00     0.167 HD
ENDBRANCH   8  10
ENDBRANCH   6   8
BRANCH   6  12
HETATM   12  O   UNK N   1      33.453  15.037  11.161  0.00  0.00    -0.375 OA
HETATM   13  H   UNK N   1      32.631  14.724  10.755  0.00  0.00     0.211 HD
ENDBRANCH   6  12
BRANCH   4  14
HETATM   14  O   UNK N   1      34.472  13.190  12.830  0.00  0.00    -0.392 OA
HETATM   15  H   UNK N   1      33.527  13.282  13.030  0.00  0.00     0.210 HD
ENDBRANCH   4  14
BRANCH   5  16
HETATM   16  O   UNK N   1      36.387  11.576  11.851  0.00  0.00    -0.386 OA
HETATM   17  H   UNK N   1      36.732  10.800  11.381  0.00  0.00     0.210 HD
ENDBRANCH   5  16
TORSDOF 5
ENDMDL
MODEL 7
REMARK VINA RESULT:      -4.9      7.899     10.375
REMARK  5 active torsions:
REMARK  status: ('A' for Active; 'I' for Inactive)
REMARK    1  A    between atoms: C_4  and  O_9 
REMARK    2  A    between atoms: C_5  and  O_10 
REMARK    3  A    between atoms: C_7  and  C_6 
REMARK    4  A    between atoms: O_12  and  C_6 
REMARK    5  A    between atoms: C_7  and  O_13 
ROOT
HETATM    1  C   UNK N   1      19.913  18.574   2.635  0.00  0.00     0.062 C 
HETATM    2  C   UNK N   1      22.179  19.554   3.157  0.00  0.00     0.088 C 
HETATM    3  C   UNK N   1      20.303  17.404   3.175  0.00  0.00     0.124 C 
HETATM    4  C   UNK N   1      22.200  18.623   4.365  0.00  0.00     0.157 C 
HETATM    5  C   UNK N   1      21.578  17.268   3.980  0.00  0.00     0.208 C 
HETATM    6  C   UNK N   1      20.731  19.846   2.717  0.00  0.00     0.165 C 
HETATM    7  F   UNK N   1      19.559  16.294   2.929  0.00  0.00    -0.208 F 
ENDROOT
BRANCH   6   8
HETATM    8  C   UNK N   1      20.753  20.516   1.368  0.00  0.00     0.180 C 
HETATM    9  O   UNK N   1      20.873  21.730   1.283  0.00  0.00    -0.648 OA
BRANCH   8  10
HETATM   10  O   UNK N   1      20.647  19.782   0.243  0.00  0.00    -0.774 OA
HETATM   11  H   UNK N   1      20.301  18.911   0.225  0.00  0.00     0.167 HD
ENDBRANCH   8  10
ENDBRANCH   6   8
BRANCH   6  12
HETATM   12  O   UNK N   1      20.126  20.704   3.639  0.00  0.00    -0.375 OA
HETATM   13  H   UNK N   1      20.147  20.974   4.570  0.00  0.00     0.211 HD
ENDBRANCH   6  12
BRANCH   4  14
HETATM   14  O   UNK N   1      21.484  19.208   5.415  0.00  0.00    -0.392 OA
HETATM   15  H   UNK N   1      20.808  19.168   6.110  0.00  0.00     0.210 HD
ENDBRANCH   4  14
BRANCH   5  16
HETATM   16  O   UNK N   1      21.323  16.538   5.145  0.00  0.00    -0.386 OA
HETATM   17  H   UNK N   1      20.572  16.564   5.759  0.00  0.00     0.210 HD
ENDBRANCH   5  16
TORSDOF 5
ENDMDL
MODEL 8
REMARK VINA RESULT:      -4.9     19.749     20.867
REMARK  5 active torsions:
REMARK  status: ('A' for Active; 'I' for Inactive)
REMARK    1  A    between atoms: C_4  and  O_9 
REMARK    2  A    between atoms: C_5  and  O_10 
REMARK    3  A    between atoms: C_7  and  C_6 
REMARK    4  A    between atoms: O_12  and  C_6 
REMARK    5  A    between atoms: C_7  and  O_13 
ROOT
HETATM    1  C   UNK N   1      25.351  27.835  -4.249  0.00  0.00     0.062 C 
HETATM    2  C   UNK N   1      27.568  26.676  -3.919  0.00  0.00     0.088 C 
HETATM    3  C   UNK N   1      25.104  27.044  -5.311  0.00  0.00     0.124 C 
HETATM    4  C   UNK N   1      26.895  25.428  -4.480  0.00  0.00     0.157 C 
HETATM    5  C   UNK N   1      25.949  25.828  -5.629  0.00  0.00     0.208 C 
HETATM    6  C   UNK N   1      26.524  27.635  -3.313  0.00  0.00     0.165 C 
HETATM    7  F   UNK N   1      24.103  27.389  -6.162  0.00  0.00    -0.208 F 
ENDROOT
BRANCH   6   8
HETATM    8  C   UNK N   1      27.179  28.964  -3.039  0.00  0.00     0.180 C 
HETATM    9  O   UNK N   1      27.374  29.756  -3.950  0.00  0.00    -0.648 OA
BRANCH   8  10
HETATM   10  O   UNK N   1      27.551  29.293  -1.786  0.00  0.00    -0.774 OA
HETATM   11  H   UNK N   1      27.862  28.670  -1.159  0.00  0.00     0.167 HD
ENDBRANCH   8  10
ENDBRANCH   6   8
BRANCH   6  12
HETATM   12  O   UNK N   1      26.048  27.108  -2.110  0.00  0.00    -0.375 OA
HETATM   13  H   UNK N   1      25.423  26.464  -1.744  0.00  0.00     0.211 HD
ENDBRANCH   6  12
BRANCH   4  14
HETATM   14  O   UNK N   1      26.181  24.787  -3.462  0.00  0.00    -0.392 OA
HETATM   15  H   UNK N   1      25.542  24.123  -3.160  0.00  0.00     0.210 HD
ENDBRANCH   4  14
BRANCH   5  16
HETATM   16  O   UNK N   1      25.120  24.745  -5.933  0.00  0.00    -0.386 OA
HETATM   17  H   UNK N   1      24.177  24.711  -6.159  0.00  0.00     0.210 HD
ENDBRANCH   5  16
TORSDOF 5
ENDMDL
MODEL 9
REMARK VINA RESULT:      -4.9     11.851     13.636
REMARK  5 active torsions:
REMARK  status: ('A' for Active; 'I' for Inactive)
REMARK    1  A    between atoms: C_4  and  O_9 
REMARK    2  A    between atoms: C_5  and  O_10 
REMARK    3  A    between atoms: C_7  and  C_6 
REMARK    4  A    between atoms: O_12  and  C_6 
REMARK    5  A    between atoms: C_7  and  O_13 
ROOT
HETATM    1  C   UNK N   1      34.323  14.625  11.405  0.00  0.00     0.062 C 
HETATM    2  C   UNK N   1      35.564  15.050   9.249  0.00  0.00     0.088 C 
HETATM    3  C   UNK N   1      35.260  13.724  11.758  0.00  0.00     0.124 C 
HETATM    4  C   UNK N   1      36.837  14.737  10.029  0.00  0.00     0.157 C 
HETATM    5  C   UNK N   1      36.568  13.579  11.009  0.00  0.00     0.208 C 
HETATM    6  C   UNK N   1      34.447  15.530  10.198  0.00  0.00     0.165 C 
HETATM    7  F   UNK N   1      34.991  12.872  12.781  0.00  0.00    -0.208 F 
ENDROOT
BRANCH   6   8
HETATM    8  C   UNK N   1      33.141  15.547   9.448  0.00  0.00     0.180 C 
HETATM    9  O   UNK N   1      33.102  15.917   8.283  0.00  0.00    -0.648 OA
BRANCH   8  10
HETATM   10  O   UNK N   1      32.004  15.149  10.053  0.00  0.00    -0.774 OA
HETATM   11  H   UNK N   1      31.197  15.007   9.596  0.00  0.00     0.167 HD
ENDBRANCH   8  10
ENDBRANCH   6   8
BRANCH   6  12
HETATM   12  O   UNK N   1      34.733  16.824  10.639  0.00  0.00    -0.375 OA
HETATM   13  H   UNK N   1      35.433  17.369  11.030  0.00  0.00     0.211 HD
ENDBRANCH   6  12
BRANCH   4  14
HETATM   14  O   UNK N   1      37.249  15.879  10.724  0.00  0.00    -0.392 OA
HETATM   15  H   UNK N   1      37.887  16.351  11.282  0.00  0.00     0.210 HD
ENDBRANCH   4  14
BRANCH   5  16
HETATM   16  O   UNK N   1      37.626  13.500  11.920  0.00  0.00    -0.386 OA
HETATM   17  H   UNK N   1      38.437  14.026  11.997  0.00  0.00     0.210 HD
ENDBRANCH   5  16
TORSDOF 5
ENDMDL
