MODEL 1
REMARK VINA RESULT:      -7.4      0.000      0.000
REMARK  20 active torsions:
REMARK  status: ('A' for Active; 'I' for Inactive)
REMARK    1  A    between atoms: N_1  and  C_2 
REMARK    2  A    between atoms: C_8  and  N_7 
REMARK    3  A    between atoms: C_10  and  C_11 
REMARK    4  A    between atoms: C_11  and  O_12 
REMARK    5  A    between atoms: P_13  and  O_12 
REMARK    6  A    between atoms: P_13  and  O_14 
REMARK    7  A    between atoms: P_13  and  O_16 
REMARK    8  A    between atoms: P_17  and  O_16 
REMARK    9  A    between atoms: P_17  and  O_18 
REMARK   10  A    between atoms: P_17  and  O_20 
REMARK   11  A    between atoms: P_21  and  O_20 
REMARK   12  A    between atoms: P_21  and  O_22 
REMARK   13  A    between atoms: P_21  and  O_24 
REMARK   14  A    between atoms: P_25  and  O_24 
REMARK   15  A    between atoms: P_25  and  O_26 
REMARK   16  A    between atoms: P_25  and  O_28 
REMARK   17  A    between atoms: O_28  and  P_29 
REMARK   18  A    between atoms: P_29  and  O_30 
REMARK   19  A    between atoms: C_33  and  O_34 
REMARK   20  A    between atoms: C_35  and  O_36 
ROOT
HETATM    1  P   UNK N   1      35.016  11.698  14.207  0.00  0.00     0.399 P 
HETATM    2  O   UNK N   1      34.201  11.487  12.690  0.00  0.00    -0.307 OA
HETATM    3  O   UNK N   1      34.185  12.048  15.469  0.00  0.00    -0.631 OA
HETATM    4  H   UNK N   1      33.820  11.373  11.804  0.00  0.00     0.222 HD
ENDROOT
BRANCH   1   5
HETATM    5  O   UNK N   1      34.595  13.354  13.684  0.00  0.00    -0.195 OA
BRANCH   5   6
HETATM    6  P   UNK N   1      35.646  14.101  12.456  0.00  0.00     0.410 P 
HETATM    7  O   UNK N   1      36.754  13.100  12.037  0.00  0.00    -0.631 OA
BRANCH   6   8
HETATM    8  O   UNK N   1      34.764  14.469  11.005  0.00  0.00    -0.195 OA
BRANCH   8   9
HETATM    9  P   UNK N   1      35.319  15.965  10.320  0.00  0.00     0.410 P 
HETATM   10  O   UNK N   1      35.284  17.139  11.337  0.00  0.00    -0.631 OA
BRANCH   9  11
HETATM   11  O   UNK N   1      35.477  16.387   8.620  0.00  0.00    -0.195 OA
BRANCH  11  12
HETATM   12  P   UNK N   1      34.623  17.867   8.234  0.00  0.00     0.410 P 
HETATM   13  O   UNK N   1      35.343  19.106   8.825  0.00  0.00    -0.631 OA
BRANCH  12  14
HETATM   14  O   UNK N   1      34.242  18.152   6.546  0.00  0.00    -0.195 OA
BRANCH  14  15
HETATM   15  P   UNK N   1      33.697  16.664   5.813  0.00  0.00     0.401 P 
HETATM   16  O   UNK N   1      34.930  15.849   5.340  0.00  0.00    -0.631 OA
BRANCH  15  17
HETATM   17  O   UNK N   1      32.737  16.991   4.404  0.00  0.00    -0.294 OA
BRANCH  17  18
HETATM   18  C   UNK N   1      32.070  15.786   4.135  0.00  0.00     0.215 C 
BRANCH  18  19
HETATM   19  C   UNK N   1      30.686  15.996   3.498  0.00  0.00     0.180 C 
HETATM   20  O   UNK N   1      30.085  17.107   4.089  0.00  0.00    -0.353 OA
HETATM   21  C   UNK N   1      29.444  16.540   5.197  0.00  0.00     0.262 C 
HETATM   22  C   UNK N   1      28.746  15.266   4.745  0.00  0.00     0.198 C 
HETATM   23  C   UNK N   1      29.659  14.860   3.610  0.00  0.00     0.182 C 
BRANCH  21  24
HETATM   24  N   UNK N   1      28.652  17.540   5.887  0.00  0.00    -0.297 N 
HETATM   25  C   UNK N   1      28.570  17.703   7.229  0.00  0.00     0.188 A 
HETATM   26  N   UNK N   1      27.864  18.824   7.547  0.00  0.00    -0.346 N 
HETATM   27  C   UNK N   1      27.530  19.352   6.357  0.00  0.00     0.122 A 
ATOM     28  HN  UNK N   1      27.640  19.181   8.476  1.00  0.00     0.167 HD
HETATM   29  C   UNK N   1      26.861  20.528   6.059  0.00  0.00     0.131 A 
HETATM   30  C   UNK N   1      27.993  18.576   5.360  0.00  0.00     0.142 A 
HETATM   31  N   UNK N   1      26.685  20.851   4.744  0.00  0.00    -0.337 N 
HETATM   32  C   UNK N   1      27.164  20.037   3.744  0.00  0.00     0.183 A 
ATOM     33  HN  UNK N   1      26.191  21.709   4.498  1.00  0.00     0.168 HD
HETATM   34  N   UNK N   1      27.839  18.888   4.052  0.00  0.00    -0.336 N 
ATOM     35  HN  UNK N   1      28.214  18.285   3.321  1.00  0.00     0.168 HD
BRANCH  29  36
HETATM   36  N   UNK N   1      26.403  21.385   7.079  0.00  0.00    -0.383 N 
HETATM   37  H   UNK N   1      26.397  21.112   8.026  0.00  0.00     0.157 HD
HETATM   38  H   UNK N   1      26.079  22.283   6.840  0.00  0.00     0.157 HD
ENDBRANCH  29  36
ENDBRANCH  21  24
BRANCH  22  39
HETATM   39  O   UNK N   1      27.490  15.546   4.207  0.00  0.00    -0.388 OA
HETATM   40  H   UNK N   1      26.678  15.203   4.610  0.00  0.00     0.210 HD
ENDBRANCH  22  39
BRANCH  23  41
HETATM   41  O   UNK N   1      30.229  13.600   3.790  0.00  0.00    -0.390 OA
HETATM   42  H   UNK N   1      30.053  13.051   4.569  0.00  0.00     0.210 HD
ENDBRANCH  23  41
ENDBRANCH  18  19
ENDBRANCH  17  18
ENDBRANCH  15  17
BRANCH  15  43
HETATM   43  O   UNK N   1      32.752  15.667   6.872  0.00  0.00    -0.307 OA
HETATM   44  H   UNK N   1      32.639  14.706   6.936  0.00  0.00     0.222 HD
ENDBRANCH  15  43
ENDBRANCH  14  15
ENDBRANCH  12  14
BRANCH  12  45
HETATM   45  O   UNK N   1      33.107  17.788   9.079  0.00  0.00    -0.307 OA
HETATM   46  H   UNK N   1      32.599  18.124   9.834  0.00  0.00     0.222 HD
ENDBRANCH  12  45
ENDBRANCH  11  12
ENDBRANCH   9  11
BRANCH   9  47
HETATM   47  O   UNK N   1      36.986  15.580  10.514  0.00  0.00    -0.307 OA
HETATM   48  H   UNK N   1      37.902  15.844  10.697  0.00  0.00     0.222 HD
ENDBRANCH   9  47
ENDBRANCH   8   9
ENDBRANCH   6   8
BRANCH   6  49
HETATM   49  O   UNK N   1      36.464  15.465  13.150  0.00  0.00    -0.307 OA
HETATM   50  H   UNK N   1      37.042  16.112  12.716  0.00  0.00     0.222 HD
ENDBRANCH   6  49
ENDBRANCH   5   6
ENDBRANCH   1   5
BRANCH   1  51
HETATM   51  O   UNK N   1      33.715  10.549  14.243  0.00  0.00    -0.307 OA
HETATM   52  H   UNK N   1      33.026  10.533  14.926  0.00  0.00     0.222 HD
ENDBRANCH   1  51
TORSDOF 20
ENDMDL
MODEL 2
REMARK VINA RESULT:      -7.3      7.449     12.294
REMARK  20 active torsions:
REMARK  status: ('A' for Active; 'I' for Inactive)
REMARK    1  A    between atoms: N_1  and  C_2 
REMARK    2  A    between atoms: C_8  and  N_7 
REMARK    3  A    between atoms: C_10  and  C_11 
REMARK    4  A    between atoms: C_11  and  O_12 
REMARK    5  A    between atoms: P_13  and  O_12 
REMARK    6  A    between atoms: P_13  and  O_14 
REMARK    7  A    between atoms: P_13  and  O_16 
REMARK    8  A    between atoms: P_17  and  O_16 
REMARK    9  A    between atoms: P_17  and  O_18 
REMARK   10  A    between atoms: P_17  and  O_20 
REMARK   11  A    between atoms: P_21  and  O_20 
REMARK   12  A    between atoms: P_21  and  O_22 
REMARK   13  A    between atoms: P_21  and  O_24 
REMARK   14  A    between atoms: P_25  and  O_24 
REMARK   15  A    between atoms: P_25  and  O_26 
REMARK   16  A    between atoms: P_25  and  O_28 
REMARK   17  A    between atoms: O_28  and  P_29 
REMARK   18  A    between atoms: P_29  and  O_30 
REMARK   19  A    between atoms: C_33  and  O_34 
REMARK   20  A    between atoms: C_35  and  O_36 
ROOT
HETATM    1  P   UNK N   1      22.029  20.182   2.683  0.00  0.00     0.399 P 
HETATM    2  O   UNK N   1      20.704  20.184   3.802  0.00  0.00    -0.307 OA
HETATM    3  O   UNK N   1      21.769  20.566   1.203  0.00  0.00    -0.631 OA
HETATM    4  H   UNK N   1      20.011  20.143   4.481  0.00  0.00     0.222 HD
ENDROOT
BRANCH   1   5
HETATM    5  O   UNK N   1      21.095  18.712   2.283  0.00  0.00    -0.195 OA
BRANCH   5   6
HETATM    6  P   UNK N   1      21.154  17.376   3.459  0.00  0.00     0.410 P 
HETATM    7  O   UNK N   1      22.196  17.698   4.563  0.00  0.00    -0.631 OA
BRANCH   6   8
HETATM    8  O   UNK N   1      19.635  17.185   4.279  0.00  0.00    -0.195 OA
BRANCH   8   9
HETATM    9  P   UNK N   1      19.457  15.558   4.856  0.00  0.00     0.410 P 
HETATM   10  O   UNK N   1      18.113  15.331   5.601  0.00  0.00    -0.631 OA
BRANCH   9  11
HETATM   11  O   UNK N   1      20.709  14.343   5.083  0.00  0.00    -0.195 OA
BRANCH  11  12
HETATM   12  P   UNK N   1      21.374  14.385   6.702  0.00  0.00     0.410 P 
HETATM   13  O   UNK N   1      20.286  14.086   7.768  0.00  0.00    -0.631 OA
BRANCH  12  14
HETATM   14  O   UNK N   1      22.792  13.400   7.010  0.00  0.00    -0.195 OA
BRANCH  14  15
HETATM   15  P   UNK N   1      24.000  13.724   5.792  0.00  0.00     0.401 P 
HETATM   16  O   UNK N   1      24.107  12.500   4.845  0.00  0.00    -0.631 OA
BRANCH  15  17
HETATM   17  O   UNK N   1      25.561  13.937   6.521  0.00  0.00    -0.294 OA
BRANCH  17  18
HETATM   18  C   UNK N   1      25.681  15.322   6.715  0.00  0.00     0.215 C 
BRANCH  18  19
HETATM   19  C   UNK N   1      26.730  15.967   5.793  0.00  0.00     0.180 C 
HETATM   20  O   UNK N   1      27.950  16.014   6.467  0.00  0.00    -0.353 OA
HETATM   21  C   UNK N   1      27.861  17.232   7.152  0.00  0.00     0.262 C 
HETATM   22  C   UNK N   1      27.315  18.280   6.193  0.00  0.00     0.198 C 
HETATM   23  C   UNK N   1      26.475  17.398   5.298  0.00  0.00     0.182 C 
BRANCH  21  24
HETATM   24  N   UNK N   1      29.110  17.519   7.832  0.00  0.00    -0.297 N 
HETATM   25  C   UNK N   1      29.248  17.832   9.142  0.00  0.00     0.188 A 
HETATM   26  N   UNK N   1      30.562  17.894   9.498  0.00  0.00    -0.346 N 
HETATM   27  C   UNK N   1      31.225  17.591   8.368  0.00  0.00     0.122 A 
ATOM     28  HN  UNK N   1      30.953  18.117  10.414  1.00  0.00     0.167 HD
HETATM   29  C   UNK N   1      32.583  17.442   8.145  0.00  0.00     0.131 A 
HETATM   30  C   UNK N   1      30.353  17.378   7.365  0.00  0.00     0.142 A 
HETATM   31  N   UNK N   1      32.992  17.088   6.890  0.00  0.00    -0.337 N 
HETATM   32  C   UNK N   1      32.081  16.882   5.880  0.00  0.00     0.183 A 
ATOM     33  HN  UNK N   1      33.987  16.977   6.698  1.00  0.00     0.168 HD
HETATM   34  N   UNK N   1      30.741  17.015   6.120  0.00  0.00    -0.336 N 
ATOM     35  HN  UNK N   1      30.054  16.847   5.385  1.00  0.00     0.168 HD
BRANCH  29  36
HETATM   36  N   UNK N   1      33.517  17.615   9.185  0.00  0.00    -0.383 N 
HETATM   37  H   UNK N   1      33.368  17.245  10.086  0.00  0.00     0.157 HD
HETATM   38  H   UNK N   1      34.343  18.120   9.007  0.00  0.00     0.157 HD
ENDBRANCH  29  36
ENDBRANCH  21  24
BRANCH  22  39
HETATM   39  O   UNK N   1      28.336  18.831   5.418  0.00  0.00    -0.388 OA
HETATM   40  H   UNK N   1      28.877  18.282   4.830  0.00  0.00     0.210 HD
ENDBRANCH  22  39
BRANCH  23  41
HETATM   41  O   UNK N   1      25.127  17.758   5.285  0.00  0.00    -0.390 OA
HETATM   42  H   UNK N   1      24.789  18.544   5.742  0.00  0.00     0.210 HD
ENDBRANCH  23  41
ENDBRANCH  18  19
ENDBRANCH  17  18
ENDBRANCH  15  17
BRANCH  15  43
HETATM   43  O   UNK N   1      23.670  15.133   4.836  0.00  0.00    -0.307 OA
HETATM   44  H   UNK N   1      24.039  16.030   4.847  0.00  0.00     0.222 HD
ENDBRANCH  15  43
ENDBRANCH  14  15
ENDBRANCH  12  14
BRANCH  12  45
HETATM   45  O   UNK N   1      21.839  16.033   6.994  0.00  0.00    -0.307 OA
HETATM   46  H   UNK N   1      21.590  16.963   6.877  0.00  0.00     0.222 HD
ENDBRANCH  12  45
ENDBRANCH  11  12
ENDBRANCH   9  11
BRANCH   9  47
HETATM   47  O   UNK N   1      18.949  14.938   3.332  0.00  0.00    -0.307 OA
HETATM   48  H   UNK N   1      18.908  14.995   2.365  0.00  0.00     0.222 HD
ENDBRANCH   9  47
ENDBRANCH   8   9
ENDBRANCH   6   8
BRANCH   6  49
HETATM   49  O   UNK N   1      21.717  15.937   2.669  0.00  0.00    -0.307 OA
HETATM   50  H   UNK N   1      21.444  15.568   1.814  0.00  0.00     0.222 HD
ENDBRANCH   6  49
ENDBRANCH   5   6
ENDBRANCH   1   5
BRANCH   1  51
HETATM   51  O   UNK N   1      21.136  21.670   2.737  0.00  0.00    -0.307 OA
HETATM   52  H   UNK N   1      20.982  22.179   3.548  0.00  0.00     0.222 HD
ENDBRANCH   1  51
TORSDOF 20
ENDMDL
MODEL 3
REMARK VINA RESULT:      -7.0      8.209     12.143
REMARK  20 active torsions:
REMARK  status: ('A' for Active; 'I' for Inactive)
REMARK    1  A    between atoms: N_1  and  C_2 
REMARK    2  A    between atoms: C_8  and  N_7 
REMARK    3  A    between atoms: C_10  and  C_11 
REMARK    4  A    between atoms: C_11  and  O_12 
REMARK    5  A    between atoms: P_13  and  O_12 
REMARK    6  A    between atoms: P_13  and  O_14 
REMARK    7  A    between atoms: P_13  and  O_16 
REMARK    8  A    between atoms: P_17  and  O_16 
REMARK    9  A    between atoms: P_17  and  O_18 
REMARK   10  A    between atoms: P_17  and  O_20 
REMARK   11  A    between atoms: P_21  and  O_20 
REMARK   12  A    between atoms: P_21  and  O_22 
REMARK   13  A    between atoms: P_21  and  O_24 
REMARK   14  A    between atoms: P_25  and  O_24 
REMARK   15  A    between atoms: P_25  and  O_26 
REMARK   16  A    between atoms: P_25  and  O_28 
REMARK   17  A    between atoms: O_28  and  P_29 
REMARK   18  A    between atoms: P_29  and  O_30 
REMARK   19  A    between atoms: C_33  and  O_34 
REMARK   20  A    between atoms: C_35  and  O_36 
ROOT
HETATM    1  P   UNK N   1      19.293  13.916   0.856  0.00  0.00     0.399 P 
HETATM    2  O   UNK N   1      19.123  15.642   0.810  0.00  0.00    -0.307 OA
HETATM    3  O   UNK N   1      18.320  13.084   1.732  0.00  0.00    -0.631 OA
HETATM    4  H   UNK N   1      19.104  16.611   0.749  0.00  0.00     0.222 HD
ENDROOT
BRANCH   1   5
HETATM    5  O   UNK N   1      19.944  14.478   2.423  0.00  0.00    -0.195 OA
BRANCH   5   6
HETATM    6  P   UNK N   1      21.649  14.095   2.769  0.00  0.00     0.410 P 
HETATM    7  O   UNK N   1      22.559  15.234   2.238  0.00  0.00    -0.631 OA
BRANCH   6   8
HETATM    8  O   UNK N   1      21.945  14.008   4.478  0.00  0.00    -0.195 OA
BRANCH   8   9
HETATM    9  P   UNK N   1      23.274  12.942   4.811  0.00  0.00     0.410 P 
HETATM   10  O   UNK N   1      23.011  11.489   4.329  0.00  0.00    -0.631 OA
BRANCH   9  11
HETATM   11  O   UNK N   1      24.598  13.178   5.945  0.00  0.00    -0.195 OA
BRANCH  11  12
HETATM   12  P   UNK N   1      25.359  14.742   5.742  0.00  0.00     0.410 P 
HETATM   13  O   UNK N   1      25.671  15.401   7.112  0.00  0.00    -0.631 OA
BRANCH  12  14
HETATM   14  O   UNK N   1      26.779  14.812   4.714  0.00  0.00    -0.195 OA
BRANCH  14  15
HETATM   15  P   UNK N   1      26.649  16.179   3.636  0.00  0.00     0.401 P 
HETATM   16  O   UNK N   1      28.040  16.464   3.009  0.00  0.00    -0.631 OA
BRANCH  15  17
HETATM   17  O   UNK N   1      26.186  17.605   4.509  0.00  0.00    -0.294 OA
BRANCH  17  18
HETATM   18  C   UNK N   1      25.692  18.481   3.530  0.00  0.00     0.215 C 
BRANCH  18  19
HETATM   19  C   UNK N   1      24.687  19.501   4.091  0.00  0.00     0.180 C 
HETATM   20  O   UNK N   1      23.557  18.817   4.538  0.00  0.00    -0.353 OA
HETATM   21  C   UNK N   1      22.776  18.748   3.378  0.00  0.00     0.262 C 
HETATM   22  C   UNK N   1      22.802  20.111   2.703  0.00  0.00     0.198 C 
HETATM   23  C   UNK N   1      24.163  20.595   3.148  0.00  0.00     0.182 C 
BRANCH  21  24
HETATM   24  N   UNK N   1      21.484  18.161   3.675  0.00  0.00    -0.297 N 
HETATM   25  C   UNK N   1      20.427  18.094   2.830  0.00  0.00     0.188 A 
HETATM   26  N   UNK N   1      19.418  17.349   3.361  0.00  0.00    -0.346 N 
HETATM   27  C   UNK N   1      19.896  16.946   4.551  0.00  0.00     0.122 A 
ATOM     28  HN  UNK N   1      18.508  17.142   2.949  1.00  0.00     0.167 HD
HETATM   29  C   UNK N   1      19.332  16.112   5.503  0.00  0.00     0.131 A 
HETATM   30  C   UNK N   1      21.132  17.443   4.745  0.00  0.00     0.142 A 
HETATM   31  N   UNK N   1      20.061  15.832   6.623  0.00  0.00    -0.337 N 
HETATM   32  C   UNK N   1      21.320  16.357   6.799  0.00  0.00     0.183 A 
ATOM     33  HN  UNK N   1      19.666  15.224   7.341  1.00  0.00     0.168 HD
HETATM   34  N   UNK N   1      21.872  17.165   5.843  0.00  0.00    -0.336 N 
ATOM     35  HN  UNK N   1      22.811  17.547   5.954  1.00  0.00     0.168 HD
BRANCH  29  36
HETATM   36  N   UNK N   1      18.060  15.540   5.309  0.00  0.00    -0.383 N 
HETATM   37  H   UNK N   1      17.311  15.712   5.925  0.00  0.00     0.157 HD
HETATM   38  H   UNK N   1      17.914  14.950   4.534  0.00  0.00     0.157 HD
ENDBRANCH  29  36
ENDBRANCH  21  24
BRANCH  22  39
HETATM   39  O   UNK N   1      21.843  20.961   3.254  0.00  0.00    -0.388 OA
HETATM   40  H   UNK N   1      21.908  21.924   3.163  0.00  0.00     0.210 HD
ENDBRANCH  22  39
BRANCH  23  41
HETATM   41  O   UNK N   1      25.018  20.878   2.083  0.00  0.00    -0.390 OA
HETATM   42  H   UNK N   1      24.727  20.866   1.159  0.00  0.00     0.210 HD
ENDBRANCH  23  41
ENDBRANCH  18  19
ENDBRANCH  17  18
ENDBRANCH  15  17
BRANCH  15  43
HETATM   43  O   UNK N   1      25.504  15.952   2.354  0.00  0.00    -0.307 OA
HETATM   44  H   UNK N   1      25.023  16.578   1.790  0.00  0.00     0.222 HD
ENDBRANCH  15  43
ENDBRANCH  14  15
ENDBRANCH  12  14
BRANCH  12  45
HETATM   45  O   UNK N   1      24.166  15.773   5.014  0.00  0.00    -0.307 OA
HETATM   46  H   UNK N   1      23.883  16.691   4.880  0.00  0.00     0.222 HD
ENDBRANCH  12  45
ENDBRANCH  11  12
ENDBRANCH   9  11
BRANCH   9  47
HETATM   47  O   UNK N   1      24.185  13.446   3.440  0.00  0.00    -0.307 OA
HETATM   48  H   UNK N   1      24.761  14.086   2.993  0.00  0.00     0.222 HD
ENDBRANCH   9  47
ENDBRANCH   8   9
ENDBRANCH   6   8
BRANCH   6  49
HETATM   49  O   UNK N   1      22.106  12.666   1.899  0.00  0.00    -0.307 OA
HETATM   50  H   UNK N   1      22.747  12.573   1.176  0.00  0.00     0.222 HD
ENDBRANCH   6  49
ENDBRANCH   5   6
ENDBRANCH   1   5
BRANCH   1  51
HETATM   51  O   UNK N   1      17.701  14.471   0.442  0.00  0.00    -0.307 OA
HETATM   52  H   UNK N   1      16.978  13.885   0.170  0.00  0.00     0.222 HD
ENDBRANCH   1  51
TORSDOF 20
ENDMDL
MODEL 4
REMARK VINA RESULT:      -7.0      3.274      5.372
REMARK  20 active torsions:
REMARK  status: ('A' for Active; 'I' for Inactive)
REMARK    1  A    between atoms: N_1  and  C_2 
REMARK    2  A    between atoms: C_8  and  N_7 
REMARK    3  A    between atoms: C_10  and  C_11 
REMARK    4  A    between atoms: C_11  and  O_12 
REMARK    5  A    between atoms: P_13  and  O_12 
REMARK    6  A    between atoms: P_13  and  O_14 
REMARK    7  A    between atoms: P_13  and  O_16 
REMARK    8  A    between atoms: P_17  and  O_16 
REMARK    9  A    between atoms: P_17  and  O_18 
REMARK   10  A    between atoms: P_17  and  O_20 
REMARK   11  A    between atoms: P_21  and  O_20 
REMARK   12  A    between atoms: P_21  and  O_22 
REMARK   13  A    between atoms: P_21  and  O_24 
REMARK   14  A    between atoms: P_25  and  O_24 
REMARK   15  A    between atoms: P_25  and  O_26 
REMARK   16  A    between atoms: P_25  and  O_28 
REMARK   17  A    between atoms: O_28  and  P_29 
REMARK   18  A    between atoms: P_29  and  O_30 
REMARK   19  A    between atoms: C_33  and  O_34 
REMARK   20  A    between atoms: C_35  and  O_36 
ROOT
HETATM    1  P   UNK N   1      31.830   7.838   8.069  0.00  0.00     0.399 P 
HETATM    2  O   UNK N   1      30.584   8.939   8.566  0.00  0.00    -0.307 OA
HETATM    3  O   UNK N   1      31.814   6.384   8.609  0.00  0.00    -0.631 OA
HETATM    4  H   UNK N   1      29.935   9.616   8.813  0.00  0.00     0.222 HD
ENDROOT
BRANCH   1   5
HETATM    5  O   UNK N   1      32.253   8.272   9.750  0.00  0.00    -0.195 OA
BRANCH   5   6
HETATM    6  P   UNK N   1      33.104   9.818   9.991  0.00  0.00     0.410 P 
HETATM    7  O   UNK N   1      32.230  10.985   9.460  0.00  0.00    -0.631 OA
BRANCH   6   8
HETATM    8  O   UNK N   1      33.360  10.145  11.678  0.00  0.00    -0.195 OA
BRANCH   8   9
HETATM    9  P   UNK N   1      34.861  10.984  11.913  0.00  0.00     0.410 P 
HETATM   10  O   UNK N   1      36.066  10.249  11.263  0.00  0.00    -0.631 OA
BRANCH   9  11
HETATM   11  O   UNK N   1      35.233  12.235  13.092  0.00  0.00    -0.195 OA
BRANCH  11  12
HETATM   12  P   UNK N   1      35.895  13.669  12.335  0.00  0.00     0.410 P 
HETATM   13  O   UNK N   1      37.005  13.307  11.313  0.00  0.00    -0.631 OA
BRANCH  12  14
HETATM   14  O   UNK N   1      34.757  14.785  11.604  0.00  0.00    -0.195 OA
BRANCH  14  15
HETATM   15  P   UNK N   1      35.595  15.808  10.464  0.00  0.00     0.401 P 
HETATM   16  O   UNK N   1      34.927  17.208  10.452  0.00  0.00    -0.631 OA
BRANCH  15  17
HETATM   17  O   UNK N   1      35.461  15.169   8.856  0.00  0.00    -0.294 OA
BRANCH  17  18
HETATM   18  C   UNK N   1      34.647  16.086   8.172  0.00  0.00     0.215 C 
BRANCH  18  19
HETATM   19  C   UNK N   1      33.956  15.473   6.943  0.00  0.00     0.180 C 
HETATM   20  O   UNK N   1      33.067  16.409   6.415  0.00  0.00    -0.353 OA
HETATM   21  C   UNK N   1      31.901  16.153   7.147  0.00  0.00     0.262 C 
HETATM   22  C   UNK N   1      31.698  14.647   7.210  0.00  0.00     0.198 C 
HETATM   23  C   UNK N   1      33.137  14.189   7.139  0.00  0.00     0.182 C 
BRANCH  21  24
HETATM   24  N   UNK N   1      30.807  16.966   6.651  0.00  0.00    -0.297 N 
HETATM   25  C   UNK N   1      30.429  17.087   5.356  0.00  0.00     0.188 A 
HETATM   26  N   UNK N   1      29.276  17.804   5.244  0.00  0.00    -0.346 N 
HETATM   27  C   UNK N   1      28.949  18.104   6.514  0.00  0.00     0.122 A 
ATOM     28  HN  UNK N   1      28.774  18.054   4.392  1.00  0.00     0.167 HD
HETATM   29  C   UNK N   1      27.842  18.766   7.016  0.00  0.00     0.131 A 
HETATM   30  C   UNK N   1      29.875  17.611   7.358  0.00  0.00     0.142 A 
HETATM   31  N   UNK N   1      27.737  18.904   8.371  0.00  0.00    -0.337 N 
HETATM   32  C   UNK N   1      28.700  18.396   9.212  0.00  0.00     0.183 A 
ATOM     33  HN  UNK N   1      26.933  19.392   8.766  1.00  0.00     0.168 HD
HETATM   34  N   UNK N   1      29.780  17.728   8.702  0.00  0.00    -0.336 N 
ATOM     35  HN  UNK N   1      30.491  17.331   9.315  1.00  0.00     0.168 HD
BRANCH  29  36
HETATM   36  N   UNK N   1      26.834  19.254   6.162  0.00  0.00    -0.383 N 
HETATM   37  H   UNK N   1      26.704  20.217   6.005  0.00  0.00     0.157 HD
HETATM   38  H   UNK N   1      26.240  18.613   5.708  0.00  0.00     0.157 HD
ENDBRANCH  29  36
ENDBRANCH  21  24
BRANCH  22  39
HETATM   39  O   UNK N   1      31.042  14.181   6.071  0.00  0.00    -0.388 OA
HETATM   40  H   UNK N   1      30.558  14.783   5.484  0.00  0.00     0.210 HD
ENDBRANCH  22  39
BRANCH  23  41
HETATM   41  O   UNK N   1      33.526  13.435   8.246  0.00  0.00    -0.390 OA
HETATM   42  H   UNK N   1      32.906  12.890   8.754  0.00  0.00     0.210 HD
ENDBRANCH  23  41
ENDBRANCH  18  19
ENDBRANCH  17  18
ENDBRANCH  15  17
BRANCH  15  43
HETATM   43  O   UNK N   1      37.283  16.005  10.811  0.00  0.00    -0.307 OA
HETATM   44  H   UNK N   1      38.042  16.234  10.253  0.00  0.00     0.222 HD
ENDBRANCH  15  43
ENDBRANCH  14  15
ENDBRANCH  12  14
BRANCH  12  45
HETATM   45  O   UNK N   1      36.716  14.546  13.590  0.00  0.00    -0.307 OA
HETATM   46  H   UNK N   1      37.247  14.469  14.398  0.00  0.00     0.222 HD
ENDBRANCH  12  45
ENDBRANCH  11  12
ENDBRANCH   9  11
BRANCH   9  47
HETATM   47  O   UNK N   1      34.587  12.095  10.626  0.00  0.00    -0.307 OA
HETATM   48  H   UNK N   1      34.295  12.291   9.722  0.00  0.00     0.222 HD
ENDBRANCH   9  47
ENDBRANCH   8   9
ENDBRANCH   6   8
BRANCH   6  49
HETATM   49  O   UNK N   1      34.556   9.830   9.041  0.00  0.00    -0.307 OA
HETATM   50  H   UNK N   1      34.663  10.030   8.097  0.00  0.00     0.222 HD
ENDBRANCH   6  49
ENDBRANCH   5   6
ENDBRANCH   1   5
BRANCH   1  51
HETATM   51  O   UNK N   1      30.214   7.260   7.807  0.00  0.00    -0.307 OA
HETATM   52  H   UNK N   1      29.488   7.381   8.439  0.00  0.00     0.222 HD
ENDBRANCH   1  51
TORSDOF 20
ENDMDL
MODEL 5
REMARK VINA RESULT:      -6.9      7.721     11.752
REMARK  20 active torsions:
REMARK  status: ('A' for Active; 'I' for Inactive)
REMARK    1  A    between atoms: N_1  and  C_2 
REMARK    2  A    between atoms: C_8  and  N_7 
REMARK    3  A    between atoms: C_10  and  C_11 
REMARK    4  A    between atoms: C_11  and  O_12 
REMARK    5  A    between atoms: P_13  and  O_12 
REMARK    6  A    between atoms: P_13  and  O_14 
REMARK    7  A    between atoms: P_13  and  O_16 
REMARK    8  A    between atoms: P_17  and  O_16 
REMARK    9  A    between atoms: P_17  and  O_18 
REMARK   10  A    between atoms: P_17  and  O_20 
REMARK   11  A    between atoms: P_21  and  O_20 
REMARK   12  A    between atoms: P_21  and  O_22 
REMARK   13  A    between atoms: P_21  and  O_24 
REMARK   14  A    between atoms: P_25  and  O_24 
REMARK   15  A    between atoms: P_25  and  O_26 
REMARK   16  A    between atoms: P_25  and  O_28 
REMARK   17  A    between atoms: O_28  and  P_29 
REMARK   18  A    between atoms: P_29  and  O_30 
REMARK   19  A    between atoms: C_33  and  O_34 
REMARK   20  A    between atoms: C_35  and  O_36 
ROOT
HETATM    1  P   UNK N   1      20.065  17.205   8.596  0.00  0.00     0.399 P 
HETATM    2  O   UNK N   1      18.521  16.445   8.374  0.00  0.00    -0.307 OA
HETATM    3  O   UNK N   1      20.318  18.601   7.968  0.00  0.00    -0.631 OA
HETATM    4  H   UNK N   1      17.693  15.948   8.277  0.00  0.00     0.222 HD
ENDROOT
BRANCH   1   5
HETATM    5  O   UNK N   1      20.080  16.634   6.902  0.00  0.00    -0.195 OA
BRANCH   5   6
HETATM    6  P   UNK N   1      21.662  16.578   6.087  0.00  0.00     0.410 P 
HETATM    7  O   UNK N   1      22.510  15.416   6.668  0.00  0.00    -0.631 OA
BRANCH   6   8
HETATM    8  O   UNK N   1      21.490  16.240   4.392  0.00  0.00    -0.195 OA
BRANCH   8   9
HETATM    9  P   UNK N   1      20.229  17.215   3.703  0.00  0.00     0.410 P 
HETATM   10  O   UNK N   1      18.810  16.732   4.111  0.00  0.00    -0.631 OA
BRANCH   9  11
HETATM   11  O   UNK N   1      20.334  18.321   2.340  0.00  0.00    -0.195 OA
BRANCH  11  12
HETATM   12  P   UNK N   1      21.442  19.640   2.653  0.00  0.00     0.410 P 
HETATM   13  O   UNK N   1      20.758  20.774   3.460  0.00  0.00    -0.631 OA
BRANCH  12  14
HETATM   14  O   UNK N   1      22.980  19.232   3.392  0.00  0.00    -0.195 OA
BRANCH  14  15
HETATM   15  P   UNK N   1      24.112  20.536   3.135  0.00  0.00     0.401 P 
HETATM   16  O   UNK N   1      24.856  20.307   1.793  0.00  0.00    -0.631 OA
BRANCH  15  17
HETATM   17  O   UNK N   1      25.318  20.554   4.384  0.00  0.00    -0.294 OA
BRANCH  17  18
HETATM   18  C   UNK N   1      26.543  20.496   3.702  0.00  0.00     0.215 C 
BRANCH  18  19
HETATM   19  C   UNK N   1      27.751  20.391   4.648  0.00  0.00     0.180 C 
HETATM   20  O   UNK N   1      28.313  19.121   4.517  0.00  0.00    -0.353 OA
HETATM   21  C   UNK N   1      27.574  18.375   5.444  0.00  0.00     0.262 C 
HETATM   22  C   UNK N   1      27.457  19.186   6.725  0.00  0.00     0.198 C 
HETATM   23  C   UNK N   1      27.511  20.584   6.152  0.00  0.00     0.182 C 
BRANCH  21  24
HETATM   24  N   UNK N   1      28.100  17.027   5.539  0.00  0.00    -0.297 N 
HETATM   25  C   UNK N   1      27.376  15.884   5.473  0.00  0.00     0.188 A 
HETATM   26  N   UNK N   1      28.186  14.789   5.443  0.00  0.00    -0.346 N 
HETATM   27  C   UNK N   1      29.430  15.297   5.475  0.00  0.00     0.122 A 
ATOM     28  HN  UNK N   1      27.911  13.807   5.404  1.00  0.00     0.167 HD
HETATM   29  C   UNK N   1      30.657  14.658   5.406  0.00  0.00     0.131 A 
HETATM   30  C   UNK N   1      29.379  16.640   5.545  0.00  0.00     0.142 A 
HETATM   31  N   UNK N   1      31.784  15.429   5.422  0.00  0.00    -0.337 N 
HETATM   32  C   UNK N   1      31.704  16.800   5.499  0.00  0.00     0.183 A 
ATOM     33  HN  UNK N   1      32.700  14.981   5.377  1.00  0.00     0.168 HD
HETATM   34  N   UNK N   1      30.485  17.419   5.549  0.00  0.00    -0.336 N 
ATOM     35  HN  UNK N   1      30.412  18.435   5.588  1.00  0.00     0.168 HD
BRANCH  29  36
HETATM   36  N   UNK N   1      30.743  13.257   5.288  0.00  0.00    -0.383 N 
HETATM   37  H   UNK N   1      31.009  12.685   6.044  0.00  0.00     0.157 HD
HETATM   38  H   UNK N   1      30.532  12.836   4.423  0.00  0.00     0.157 HD
ENDBRANCH  29  36
ENDBRANCH  21  24
BRANCH  22  39
HETATM   39  O   UNK N   1      28.581  19.011   7.534  0.00  0.00    -0.388 OA
HETATM   40  H   UNK N   1      28.884  19.706   8.137  0.00  0.00     0.210 HD
ENDBRANCH  22  39
BRANCH  23  41
HETATM   41  O   UNK N   1      26.377  21.341   6.449  0.00  0.00    -0.390 OA
HETATM   42  H   UNK N   1      25.619  20.981   6.935  0.00  0.00     0.210 HD
ENDBRANCH  23  41
ENDBRANCH  18  19
ENDBRANCH  17  18
ENDBRANCH  15  17
BRANCH  15  43
HETATM   43  O   UNK N   1      23.375  22.105   3.095  0.00  0.00    -0.307 OA
HETATM   44  H   UNK N   1      22.623  22.461   2.597  0.00  0.00     0.222 HD
ENDBRANCH  15  43
ENDBRANCH  14  15
ENDBRANCH  12  14
BRANCH  12  45
HETATM   45  O   UNK N   1      21.804  20.349   1.110  0.00  0.00    -0.307 OA
HETATM   46  H   UNK N   1      21.573  21.053   0.484  0.00  0.00     0.222 HD
ENDBRANCH  12  45
ENDBRANCH  11  12
ENDBRANCH   9  11
BRANCH   9  47
HETATM   47  O   UNK N   1      20.367  18.456   4.889  0.00  0.00    -0.307 OA
HETATM   48  H   UNK N   1      20.871  19.161   5.324  0.00  0.00     0.222 HD
ENDBRANCH   9  47
ENDBRANCH   8   9
ENDBRANCH   6   8
BRANCH   6  49
HETATM   49  O   UNK N   1      22.540  18.035   6.431  0.00  0.00    -0.307 OA
HETATM   50  H   UNK N   1      23.193  18.200   7.130  0.00  0.00     0.222 HD
ENDBRANCH   6  49
ENDBRANCH   5   6
ENDBRANCH   1   5
BRANCH   1  51
HETATM   51  O   UNK N   1      18.709  18.181   9.066  0.00  0.00    -0.307 OA
HETATM   52  H   UNK N   1      18.422  18.975   8.588  0.00  0.00     0.222 HD
ENDBRANCH   1  51
TORSDOF 20
ENDMDL
MODEL 6
REMARK VINA RESULT:      -6.7      1.670      2.570
REMARK  20 active torsions:
REMARK  status: ('A' for Active; 'I' for Inactive)
REMARK    1  A    between atoms: N_1  and  C_2 
REMARK    2  A    between atoms: C_8  and  N_7 
REMARK    3  A    between atoms: C_10  and  C_11 
REMARK    4  A    between atoms: C_11  and  O_12 
REMARK    5  A    between atoms: P_13  and  O_12 
REMARK    6  A    between atoms: P_13  and  O_14 
REMARK    7  A    between atoms: P_13  and  O_16 
REMARK    8  A    between atoms: P_17  and  O_16 
REMARK    9  A    between atoms: P_17  and  O_18 
REMARK   10  A    between atoms: P_17  and  O_20 
REMARK   11  A    between atoms: P_21  and  O_20 
REMARK   12  A    between atoms: P_21  and  O_22 
REMARK   13  A    between atoms: P_21  and  O_24 
REMARK   14  A    between atoms: P_25  and  O_24 
REMARK   15  A    between atoms: P_25  and  O_26 
REMARK   16  A    between atoms: P_25  and  O_28 
REMARK   17  A    between atoms: O_28  and  P_29 
REMARK   18  A    between atoms: P_29  and  O_30 
REMARK   19  A    between atoms: C_33  and  O_34 
REMARK   20  A    between atoms: C_35  and  O_36 
ROOT
HETATM    1  P   UNK N   1      36.196  13.714  12.435  0.00  0.00     0.399 P 
HETATM    2  O   UNK N   1      37.557  14.172  11.460  0.00  0.00    -0.307 OA
HETATM    3  O   UNK N   1      34.793  13.625  11.780  0.00  0.00    -0.631 OA
HETATM    4  H   UNK N   1      38.360  14.439  10.985  0.00  0.00     0.222 HD
ENDROOT
BRANCH   1   5
HETATM    5  O   UNK N   1      36.007  15.474  12.188  0.00  0.00    -0.195 OA
BRANCH   5   6
HETATM    6  P   UNK N   1      35.369  16.001  10.611  0.00  0.00     0.410 P 
HETATM    7  O   UNK N   1      35.612  17.523  10.431  0.00  0.00    -0.631 OA
BRANCH   6   8
HETATM    8  O   UNK N   1      36.203  15.227   9.299  0.00  0.00    -0.195 OA
BRANCH   8   9
HETATM    9  P   UNK N   1      35.088  14.800   8.038  0.00  0.00     0.410 P 
HETATM   10  O   UNK N   1      35.776  14.065   6.855  0.00  0.00    -0.631 OA
BRANCH   9  11
HETATM   11  O   UNK N   1      33.479  15.447   7.747  0.00  0.00    -0.195 OA
BRANCH  11  12
HETATM   12  P   UNK N   1      33.517  16.834   6.678  0.00  0.00     0.410 P 
HETATM   13  O   UNK N   1      34.633  17.832   7.086  0.00  0.00    -0.631 OA
BRANCH  12  14
HETATM   14  O   UNK N   1      33.609  16.513   4.956  0.00  0.00    -0.195 OA
BRANCH  14  15
HETATM   15  P   UNK N   1      32.433  15.296   4.528  0.00  0.00     0.401 P 
HETATM   16  O   UNK N   1      33.175  14.003   4.096  0.00  0.00    -0.631 OA
BRANCH  15  17
HETATM   17  O   UNK N   1      31.486  15.813   3.168  0.00  0.00    -0.294 OA
BRANCH  17  18
HETATM   18  C   UNK N   1      30.510  14.817   3.011  0.00  0.00     0.215 C 
BRANCH  18  19
HETATM   19  C   UNK N   1      29.142  15.380   2.589  0.00  0.00     0.180 C 
HETATM   20  O   UNK N   1      28.895  16.545   3.315  0.00  0.00    -0.353 OA
HETATM   21  C   UNK N   1      28.287  16.047   4.474  0.00  0.00     0.262 C 
HETATM   22  C   UNK N   1      27.261  15.000   4.063  0.00  0.00     0.198 C 
HETATM   23  C   UNK N   1      27.903  14.496   2.790  0.00  0.00     0.182 C 
BRANCH  21  24
HETATM   24  N   UNK N   1      27.842  17.139   5.318  0.00  0.00    -0.297 N 
HETATM   25  C   UNK N   1      28.067  17.258   6.648  0.00  0.00     0.188 A 
HETATM   26  N   UNK N   1      27.650  18.470   7.112  0.00  0.00    -0.346 N 
HETATM   27  C   UNK N   1      27.178  19.096   6.020  0.00  0.00     0.122 A 
ATOM     28  HN  UNK N   1      27.688  18.821   8.069  1.00  0.00     0.167 HD
HETATM   29  C   UNK N   1      26.679  20.380   5.874  0.00  0.00     0.131 A 
HETATM   30  C   UNK N   1      27.282  18.293   4.945  0.00  0.00     0.142 A 
HETATM   31  N   UNK N   1      26.298  20.783   4.626  0.00  0.00    -0.337 N 
HETATM   32  C   UNK N   1      26.410  19.940   3.545  0.00  0.00     0.183 A 
ATOM     33  HN  UNK N   1      25.923  21.722   4.493  1.00  0.00     0.168 HD
HETATM   34  N   UNK N   1      26.920  18.680   3.700  0.00  0.00    -0.336 N 
ATOM     35  HN  UNK N   1      27.025  18.052   2.904  1.00  0.00     0.168 HD
BRANCH  29  36
HETATM   36  N   UNK N   1      26.599  21.260   6.972  0.00  0.00    -0.383 N 
HETATM   37  H   UNK N   1      27.394  21.519   7.492  0.00  0.00     0.157 HD
HETATM   38  H   UNK N   1      25.722  21.628   7.226  0.00  0.00     0.157 HD
ENDBRANCH  29  36
ENDBRANCH  21  24
BRANCH  22  39
HETATM   39  O   UNK N   1      26.046  15.596   3.725  0.00  0.00    -0.388 OA
HETATM   40  H   UNK N   1      25.964  16.556   3.619  0.00  0.00     0.210 HD
ENDBRANCH  22  39
BRANCH  23  41
HETATM   41  O   UNK N   1      28.184  13.130   2.825  0.00  0.00    -0.390 OA
HETATM   42  H   UNK N   1      27.705  12.509   3.395  0.00  0.00     0.210 HD
ENDBRANCH  23  41
ENDBRANCH  18  19
ENDBRANCH  17  18
ENDBRANCH  15  17
BRANCH  15  43
HETATM   43  O   UNK N   1      31.337  14.899   5.811  0.00  0.00    -0.307 OA
HETATM   44  H   UNK N   1      30.586  14.287   5.863  0.00  0.00     0.222 HD
ENDBRANCH  15  43
ENDBRANCH  14  15
ENDBRANCH  12  14
BRANCH  12  45
HETATM   45  O   UNK N   1      32.033  17.695   6.945  0.00  0.00    -0.307 OA
HETATM   46  H   UNK N   1      31.069  17.615   7.024  0.00  0.00     0.222 HD
ENDBRANCH  12  45
ENDBRANCH  11  12
ENDBRANCH   9  11
BRANCH   9  47
HETATM   47  O   UNK N   1      34.518  13.391   8.847  0.00  0.00    -0.307 OA
HETATM   48  H   UNK N   1      34.601  12.720   9.542  0.00  0.00     0.222 HD
ENDBRANCH   9  47
ENDBRANCH   8   9
ENDBRANCH   6   8
BRANCH   6  49
HETATM   49  O   UNK N   1      33.648  15.780  10.583  0.00  0.00    -0.307 OA
HETATM   50  H   UNK N   1      33.119  15.209  10.004  0.00  0.00     0.222 HD
ENDBRANCH   6  49
ENDBRANCH   5   6
ENDBRANCH   1   5
BRANCH   1  51
HETATM   51  O   UNK N   1      36.409  12.756  11.003  0.00  0.00    -0.307 OA
HETATM   52  H   UNK N   1      36.168  11.818  10.939  0.00  0.00     0.222 HD
ENDBRANCH   1  51
TORSDOF 20
ENDMDL
MODEL 7
REMARK VINA RESULT:      -6.6      8.213     10.894
REMARK  20 active torsions:
REMARK  status: ('A' for Active; 'I' for Inactive)
REMARK    1  A    between atoms: N_1  and  C_2 
REMARK    2  A    between atoms: C_8  and  N_7 
REMARK    3  A    between atoms: C_10  and  C_11 
REMARK    4  A    between atoms: C_11  and  O_12 
REMARK    5  A    between atoms: P_13  and  O_12 
REMARK    6  A    between atoms: P_13  and  O_14 
REMARK    7  A    between atoms: P_13  and  O_16 
REMARK    8  A    between atoms: P_17  and  O_16 
REMARK    9  A    between atoms: P_17  and  O_18 
REMARK   10  A    between atoms: P_17  and  O_20 
REMARK   11  A    between atoms: P_21  and  O_20 
REMARK   12  A    between atoms: P_21  and  O_22 
REMARK   13  A    between atoms: P_21  and  O_24 
REMARK   14  A    between atoms: P_25  and  O_24 
REMARK   15  A    between atoms: P_25  and  O_26 
REMARK   16  A    between atoms: P_25  and  O_28 
REMARK   17  A    between atoms: O_28  and  P_29 
REMARK   18  A    between atoms: P_29  and  O_30 
REMARK   19  A    between atoms: C_33  and  O_34 
REMARK   20  A    between atoms: C_35  and  O_36 
ROOT
HETATM    1  P   UNK N   1      26.028  13.540   1.958  0.00  0.00     0.399 P 
HETATM    2  O   UNK N   1      25.878  15.241   2.266  0.00  0.00    -0.307 OA
HETATM    3  O   UNK N   1      26.515  12.606   3.097  0.00  0.00    -0.631 OA
HETATM    4  H   UNK N   1      25.788  16.203   2.355  0.00  0.00     0.222 HD
ENDROOT
BRANCH   1   5
HETATM    5  O   UNK N   1      27.708  14.148   1.976  0.00  0.00    -0.195 OA
BRANCH   5   6
HETATM    6  P   UNK N   1      28.205  15.099   3.398  0.00  0.00     0.410 P 
HETATM    7  O   UNK N   1      29.698  14.824   3.716  0.00  0.00    -0.631 OA
BRANCH   6   8
HETATM    8  O   UNK N   1      28.090  16.805   3.092  0.00  0.00    -0.195 OA
BRANCH   8   9
HETATM    9  P   UNK N   1      28.070  17.690   4.585  0.00  0.00     0.410 P 
HETATM   10  O   UNK N   1      29.484  17.833   5.214  0.00  0.00    -0.631 OA
BRANCH   9  11
HETATM   11  O   UNK N   1      26.695  18.028   5.629  0.00  0.00    -0.195 OA
BRANCH  11  12
HETATM   12  P   UNK N   1      25.177  17.614   4.861  0.00  0.00     0.410 P 
HETATM   13  O   UNK N   1      24.889  16.093   4.962  0.00  0.00    -0.631 OA
BRANCH  12  14
HETATM   14  O   UNK N   1      23.759  18.519   5.357  0.00  0.00    -0.195 OA
BRANCH  14  15
HETATM   15  P   UNK N   1      22.415  18.107   4.321  0.00  0.00     0.401 P 
HETATM   16  O   UNK N   1      22.065  19.330   3.433  0.00  0.00    -0.631 OA
BRANCH  15  17
HETATM   17  O   UNK N   1      21.003  17.748   5.265  0.00  0.00    -0.294 OA
BRANCH  17  18
HETATM   18  C   UNK N   1      21.443  16.837   6.238  0.00  0.00     0.215 C 
BRANCH  18  19
HETATM   19  C   UNK N   1      20.498  15.636   6.405  0.00  0.00     0.180 C 
HETATM   20  O   UNK N   1      20.488  15.257   7.747  0.00  0.00    -0.353 OA
HETATM   21  C   UNK N   1      21.566  14.366   7.810  0.00  0.00     0.262 C 
HETATM   22  C   UNK N   1      21.490  13.438   6.607  0.00  0.00     0.198 C 
HETATM   23  C   UNK N   1      20.810  14.356   5.616  0.00  0.00     0.182 C 
BRANCH  21  24
HETATM   24  N   UNK N   1      21.646  13.764   9.127  0.00  0.00    -0.297 N 
HETATM   25  C   UNK N   1      20.595  13.398   9.899  0.00  0.00     0.188 A 
HETATM   26  N   UNK N   1      21.011  12.726  11.010  0.00  0.00    -0.346 N 
HETATM   27  C   UNK N   1      22.348  12.677  10.885  0.00  0.00     0.122 A 
ATOM     28  HN  UNK N   1      20.437  12.346  11.763  1.00  0.00     0.167 HD
HETATM   29  C   UNK N   1      23.297  12.064  11.687  0.00  0.00     0.131 A 
HETATM   30  C   UNK N   1      22.731  13.311   9.761  0.00  0.00     0.142 A 
HETATM   31  N   UNK N   1      24.606  12.138  11.303  0.00  0.00    -0.337 N 
HETATM   32  C   UNK N   1      24.971  12.796  10.152  0.00  0.00     0.183 A 
ATOM     33  HN  UNK N   1      25.324  11.698  11.879  1.00  0.00     0.168 HD
HETATM   34  N   UNK N   1      24.021  13.382   9.360  0.00  0.00    -0.336 N 
ATOM     35  HN  UNK N   1      24.277  13.857   8.495  1.00  0.00     0.168 HD
BRANCH  29  36
HETATM   36  N   UNK N   1      22.924  11.355  12.846  0.00  0.00    -0.383 N 
HETATM   37  H   UNK N   1      22.027  10.964  12.951  0.00  0.00     0.157 HD
HETATM   38  H   UNK N   1      23.580  11.249  13.572  0.00  0.00     0.157 HD
ENDBRANCH  29  36
ENDBRANCH  21  24
BRANCH  22  39
HETATM   39  O   UNK N   1      20.634  12.364   6.855  0.00  0.00    -0.388 OA
HETATM   40  H   UNK N   1      20.931  11.584   7.347  0.00  0.00     0.210 HD
ENDBRANCH  22  39
BRANCH  23  41
HETATM   41  O   UNK N   1      21.566  14.573   4.464  0.00  0.00    -0.390 OA
HETATM   42  H   UNK N   1      21.830  15.458   4.168  0.00  0.00     0.210 HD
ENDBRANCH  23  41
ENDBRANCH  18  19
ENDBRANCH  17  18
ENDBRANCH  15  17
BRANCH  15  43
HETATM   43  O   UNK N   1      22.717  16.746   3.290  0.00  0.00    -0.307 OA
HETATM   44  H   UNK N   1      22.179  16.307   2.613  0.00  0.00     0.222 HD
ENDBRANCH  15  43
ENDBRANCH  14  15
ENDBRANCH  12  14
BRANCH  12  45
HETATM   45  O   UNK N   1      25.391  17.914   3.164  0.00  0.00    -0.307 OA
HETATM   46  H   UNK N   1      25.682  17.536   2.320  0.00  0.00     0.222 HD
ENDBRANCH  12  45
ENDBRANCH  11  12
ENDBRANCH   9  11
BRANCH   9  47
HETATM   47  O   UNK N   1      28.035  19.231   3.818  0.00  0.00    -0.307 OA
HETATM   48  H   UNK N   1      28.205  20.185   3.824  0.00  0.00     0.222 HD
ENDBRANCH   9  47
ENDBRANCH   8   9
ENDBRANCH   6   8
BRANCH   6  49
HETATM   49  O   UNK N   1      27.310  14.568   4.786  0.00  0.00    -0.307 OA
HETATM   50  H   UNK N   1      26.348  14.506   4.902  0.00  0.00     0.222 HD
ENDBRANCH   6  49
ENDBRANCH   5   6
ENDBRANCH   1   5
BRANCH   1  51
HETATM   51  O   UNK N   1      25.052  13.937   3.338  0.00  0.00    -0.307 OA
HETATM   52  H   UNK N   1      24.659  13.277   3.931  0.00  0.00     0.222 HD
ENDBRANCH   1  51
TORSDOF 20
ENDMDL
MODEL 8
REMARK VINA RESULT:      -6.5      2.094      3.481
REMARK  20 active torsions:
REMARK  status: ('A' for Active; 'I' for Inactive)
REMARK    1  A    between atoms: N_1  and  C_2 
REMARK    2  A    between atoms: C_8  and  N_7 
REMARK    3  A    between atoms: C_10  and  C_11 
REMARK    4  A    between atoms: C_11  and  O_12 
REMARK    5  A    between atoms: P_13  and  O_12 
REMARK    6  A    between atoms: P_13  and  O_14 
REMARK    7  A    between atoms: P_13  and  O_16 
REMARK    8  A    between atoms: P_17  and  O_16 
REMARK    9  A    between atoms: P_17  and  O_18 
REMARK   10  A    between atoms: P_17  and  O_20 
REMARK   11  A    between atoms: P_21  and  O_20 
REMARK   12  A    between atoms: P_21  and  O_22 
REMARK   13  A    between atoms: P_21  and  O_24 
REMARK   14  A    between atoms: P_25  and  O_24 
REMARK   15  A    between atoms: P_25  and  O_26 
REMARK   16  A    between atoms: P_25  and  O_28 
REMARK   17  A    between atoms: O_28  and  P_29 
REMARK   18  A    between atoms: P_29  and  O_30 
REMARK   19  A    between atoms: C_33  and  O_34 
REMARK   20  A    between atoms: C_35  and  O_36 
ROOT
HETATM    1  P   UNK N   1      34.166  11.800   5.925  0.00  0.00     0.399 P 
HETATM    2  O   UNK N   1      34.877  13.375   6.094  0.00  0.00    -0.307 OA
HETATM    3  O   UNK N   1      32.704  11.577   6.392  0.00  0.00    -0.631 OA
HETATM    4  H   UNK N   1      35.348  14.219   6.175  0.00  0.00     0.222 HD
ENDROOT
BRANCH   1   5
HETATM    5  O   UNK N   1      34.515  11.956   7.671  0.00  0.00    -0.195 OA
BRANCH   5   6
HETATM    6  P   UNK N   1      33.367  12.914   8.639  0.00  0.00     0.410 P 
HETATM    7  O   UNK N   1      32.309  11.975   9.275  0.00  0.00    -0.631 OA
BRANCH   6   8
HETATM    8  O   UNK N   1      34.162  13.704   9.966  0.00  0.00    -0.195 OA
BRANCH   8   9
HETATM    9  P   UNK N   1      35.252  14.923   9.382  0.00  0.00     0.410 P 
HETATM   10  O   UNK N   1      36.119  15.542  10.513  0.00  0.00    -0.631 OA
BRANCH   9  11
HETATM   11  O   UNK N   1      35.185  15.800   7.859  0.00  0.00    -0.195 OA
BRANCH  11  12
HETATM   12  P   UNK N   1      34.134  17.198   7.956  0.00  0.00     0.410 P 
HETATM   13  O   UNK N   1      34.918  18.513   7.707  0.00  0.00    -0.631 OA
BRANCH  12  14
HETATM   14  O   UNK N   1      32.684  17.177   6.971  0.00  0.00    -0.195 OA
BRANCH  14  15
HETATM   15  P   UNK N   1      33.087  16.658   5.353  0.00  0.00     0.401 P 
HETATM   16  O   UNK N   1      32.942  17.861   4.383  0.00  0.00    -0.631 OA
BRANCH  15  17
HETATM   17  O   UNK N   1      31.982  15.434   4.810  0.00  0.00    -0.294 OA
BRANCH  17  18
HETATM   18  C   UNK N   1      31.536  15.884   3.557  0.00  0.00     0.215 C 
BRANCH  18  19
HETATM   19  C   UNK N   1      30.014  15.752   3.381  0.00  0.00     0.180 C 
HETATM   20  O   UNK N   1      29.405  16.908   3.868  0.00  0.00    -0.353 OA
HETATM   21  C   UNK N   1      29.234  16.602   5.224  0.00  0.00     0.262 C 
HETATM   22  C   UNK N   1      28.697  15.183   5.329  0.00  0.00     0.198 C 
HETATM   23  C   UNK N   1      29.304  14.584   4.080  0.00  0.00     0.182 C 
BRANCH  21  24
HETATM   24  N   UNK N   1      28.496  17.659   5.889  0.00  0.00    -0.297 N 
HETATM   25  C   UNK N   1      28.485  17.905   7.221  0.00  0.00     0.188 A 
HETATM   26  N   UNK N   1      27.816  19.058   7.504  0.00  0.00    -0.346 N 
HETATM   27  C   UNK N   1      27.432  19.520   6.301  0.00  0.00     0.122 A 
ATOM     28  HN  UNK N   1      27.646  19.475   8.419  1.00  0.00     0.167 HD
HETATM   29  C   UNK N   1      26.770  20.689   5.965  0.00  0.00     0.131 A 
HETATM   30  C   UNK N   1      27.830  18.675   5.332  0.00  0.00     0.142 A 
HETATM   31  N   UNK N   1      26.534  20.936   4.643  0.00  0.00    -0.337 N 
HETATM   32  C   UNK N   1      26.947  20.053   3.673  0.00  0.00     0.183 A 
ATOM     33  HN  UNK N   1      26.044  21.788   4.370  1.00  0.00     0.168 HD
HETATM   34  N   UNK N   1      27.616  18.910   4.017  0.00  0.00    -0.336 N 
ATOM     35  HN  UNK N   1      27.943  18.256   3.306  1.00  0.00     0.168 HD
BRANCH  29  36
HETATM   36  N   UNK N   1      26.380  21.616   6.952  0.00  0.00    -0.383 N 
HETATM   37  H   UNK N   1      26.713  22.542   6.958  0.00  0.00     0.157 HD
HETATM   38  H   UNK N   1      25.756  21.328   7.657  0.00  0.00     0.157 HD
ENDBRANCH  29  36
ENDBRANCH  21  24
BRANCH  22  39
HETATM   39  O   UNK N   1      27.309  15.160   5.186  0.00  0.00    -0.388 OA
HETATM   40  H   UNK N   1      26.840  14.352   4.929  0.00  0.00     0.210 HD
ENDBRANCH  22  39
BRANCH  23  41
HETATM   41  O   UNK N   1      30.135  13.495   4.345  0.00  0.00    -0.390 OA
HETATM   42  H   UNK N   1      29.799  12.644   4.665  0.00  0.00     0.210 HD
ENDBRANCH  23  41
ENDBRANCH  18  19
ENDBRANCH  17  18
ENDBRANCH  15  17
BRANCH  15  43
HETATM   43  O   UNK N   1      34.693  16.021   5.202  0.00  0.00    -0.307 OA
HETATM   44  H   UNK N   1      35.221  15.442   5.774  0.00  0.00     0.222 HD
ENDBRANCH  15  43
ENDBRANCH  14  15
ENDBRANCH  12  14
BRANCH  12  45
HETATM   45  O   UNK N   1      33.611  17.299   9.610  0.00  0.00    -0.307 OA
HETATM   46  H   UNK N   1      32.862  17.483  10.197  0.00  0.00     0.222 HD
ENDBRANCH  12  45
ENDBRANCH  11  12
ENDBRANCH   9  11
BRANCH   9  47
HETATM   47  O   UNK N   1      36.423  13.789   8.828  0.00  0.00    -0.307 OA
HETATM   48  H   UNK N   1      36.668  13.007   8.310  0.00  0.00     0.222 HD
ENDBRANCH   9  47
ENDBRANCH   8   9
ENDBRANCH   6   8
BRANCH   6  49
HETATM   49  O   UNK N   1      32.493  13.990   7.596  0.00  0.00    -0.307 OA
HETATM   50  H   UNK N   1      31.860  13.774   6.893  0.00  0.00     0.222 HD
ENDBRANCH   6  49
ENDBRANCH   5   6
ENDBRANCH   1   5
BRANCH   1  51
HETATM   51  O   UNK N   1      33.245  13.086   5.208  0.00  0.00    -0.307 OA
HETATM   52  H   UNK N   1      32.756  13.000   4.375  0.00  0.00     0.222 HD
ENDBRANCH   1  51
TORSDOF 20
ENDMDL
MODEL 9
REMARK VINA RESULT:      -6.5      2.943      3.268
REMARK  20 active torsions:
REMARK  status: ('A' for Active; 'I' for Inactive)
REMARK    1  A    between atoms: N_1  and  C_2 
REMARK    2  A    between atoms: C_8  and  N_7 
REMARK    3  A    between atoms: C_10  and  C_11 
REMARK    4  A    between atoms: C_11  and  O_12 
REMARK    5  A    between atoms: P_13  and  O_12 
REMARK    6  A    between atoms: P_13  and  O_14 
REMARK    7  A    between atoms: P_13  and  O_16 
REMARK    8  A    between atoms: P_17  and  O_16 
REMARK    9  A    between atoms: P_17  and  O_18 
REMARK   10  A    between atoms: P_17  and  O_20 
REMARK   11  A    between atoms: P_21  and  O_20 
REMARK   12  A    between atoms: P_21  and  O_22 
REMARK   13  A    between atoms: P_21  and  O_24 
REMARK   14  A    between atoms: P_25  and  O_24 
REMARK   15  A    between atoms: P_25  and  O_26 
REMARK   16  A    between atoms: P_25  and  O_28 
REMARK   17  A    between atoms: O_28  and  P_29 
REMARK   18  A    between atoms: P_29  and  O_30 
REMARK   19  A    between atoms: C_33  and  O_34 
REMARK   20  A    between atoms: C_35  and  O_36 
ROOT
HETATM    1  P   UNK N   1      34.912  11.750  14.175  0.00  0.00     0.399 P 
HETATM    2  O   UNK N   1      33.838  11.327  12.879  0.00  0.00    -0.307 OA
HETATM    3  O   UNK N   1      34.339  12.458  15.430  0.00  0.00    -0.631 OA
HETATM    4  H   UNK N   1      33.306  11.078  12.107  0.00  0.00     0.222 HD
ENDROOT
BRANCH   1   5
HETATM    5  O   UNK N   1      34.558  13.298  13.355  0.00  0.00    -0.195 OA
BRANCH   5   6
HETATM    6  P   UNK N   1      35.402  13.605  11.817  0.00  0.00     0.410 P 
HETATM    7  O   UNK N   1      35.618  12.267  11.063  0.00  0.00    -0.631 OA
BRANCH   6   8
HETATM    8  O   UNK N   1      34.449  14.600  10.759  0.00  0.00    -0.195 OA
BRANCH   8   9
HETATM    9  P   UNK N   1      35.472  15.654   9.833  0.00  0.00     0.410 P 
HETATM   10  O   UNK N   1      36.446  16.475  10.722  0.00  0.00    -0.631 OA
BRANCH   9  11
HETATM   11  O   UNK N   1      35.249  16.204   8.177  0.00  0.00    -0.195 OA
BRANCH  11  12
HETATM   12  P   UNK N   1      34.222  17.619   8.092  0.00  0.00     0.410 P 
HETATM   13  O   UNK N   1      35.034  18.922   8.318  0.00  0.00    -0.631 OA
BRANCH  12  14
HETATM   14  O   UNK N   1      33.213  17.789   6.668  0.00  0.00    -0.195 OA
BRANCH  14  15
HETATM   15  P   UNK N   1      31.675  17.010   6.948  0.00  0.00     0.401 P 
HETATM   16  O   UNK N   1      31.924  15.570   7.470  0.00  0.00    -0.631 OA
BRANCH  15  17
HETATM   17  O   UNK N   1      30.784  16.864   5.466  0.00  0.00    -0.294 OA
BRANCH  17  18
HETATM   18  C   UNK N   1      29.487  16.500   5.860  0.00  0.00     0.215 C 
BRANCH  18  19
HETATM   19  C   UNK N   1      28.392  17.205   5.042  0.00  0.00     0.180 C 
HETATM   20  O   UNK N   1      27.162  16.994   5.665  0.00  0.00    -0.353 OA
HETATM   21  C   UNK N   1      26.749  15.783   5.097  0.00  0.00     0.262 C 
HETATM   22  C   UNK N   1      27.007  15.845   3.599  0.00  0.00     0.198 C 
HETATM   23  C   UNK N   1      28.195  16.780   3.580  0.00  0.00     0.182 C 
BRANCH  21  24
HETATM   24  N   UNK N   1      25.410  15.449   5.543  0.00  0.00    -0.297 N 
HETATM   25  C   UNK N   1      25.034  14.289   6.133  0.00  0.00     0.188 A 
HETATM   26  N   UNK N   1      23.743  14.353   6.565  0.00  0.00    -0.346 N 
HETATM   27  C   UNK N   1      23.345  15.594   6.237  0.00  0.00     0.122 A 
ATOM     28  HN  UNK N   1      23.203  13.625   7.033  1.00  0.00     0.167 HD
HETATM   29  C   UNK N   1      22.146  16.241   6.485  0.00  0.00     0.131 A 
HETATM   30  C   UNK N   1      24.342  16.249   5.612  0.00  0.00     0.142 A 
HETATM   31  N   UNK N   1      22.017  17.535   6.068  0.00  0.00    -0.337 N 
HETATM   32  C   UNK N   1      23.050  18.180   5.427  0.00  0.00     0.183 A 
ATOM     33  HN  UNK N   1      21.142  18.032   6.234  1.00  0.00     0.168 HD
HETATM   34  N   UNK N   1      24.235  17.534   5.205  0.00  0.00    -0.336 N 
ATOM     35  HN  UNK N   1      25.014  18.006   4.747  1.00  0.00     0.168 HD
BRANCH  29  36
HETATM   36  N   UNK N   1      21.100  15.598   7.175  0.00  0.00    -0.383 N 
HETATM   37  H   UNK N   1      20.514  16.082   7.802  0.00  0.00     0.157 HD
HETATM   38  H   UNK N   1      20.950  14.637   7.027  0.00  0.00     0.157 HD
ENDBRANCH  29  36
ENDBRANCH  21  24
BRANCH  22  39
HETATM   39  O   UNK N   1      25.954  16.474   2.935  0.00  0.00    -0.388 OA
HETATM   40  H   UNK N   1      25.182  15.977   2.623  0.00  0.00     0.210 HD
ENDBRANCH  22  39
BRANCH  23  41
HETATM   41  O   UNK N   1      29.329  16.212   3.000  0.00  0.00    -0.390 OA
HETATM   42  H   UNK N   1      29.894  15.575   3.465  0.00  0.00     0.210 HD
ENDBRANCH  23  41
ENDBRANCH  18  19
ENDBRANCH  17  18
ENDBRANCH  15  17
BRANCH  15  43
HETATM   43  O   UNK N   1      30.667  17.842   8.087  0.00  0.00    -0.307 OA
HETATM   44  H   UNK N   1      30.553  17.752   9.046  0.00  0.00     0.222 HD
ENDBRANCH  15  43
ENDBRANCH  14  15
ENDBRANCH  12  14
BRANCH  12  45
HETATM   45  O   UNK N   1      33.149  17.524   9.455  0.00  0.00    -0.307 OA
HETATM   46  H   UNK N   1      32.249  17.698   9.773  0.00  0.00     0.222 HD
ENDBRANCH  12  45
ENDBRANCH  11  12
ENDBRANCH   9  11
BRANCH   9  47
HETATM   47  O   UNK N   1      36.585  14.411   9.410  0.00  0.00    -0.307 OA
HETATM   48  H   UNK N   1      37.260  13.758   9.652  0.00  0.00     0.222 HD
ENDBRANCH   9  47
ENDBRANCH   8   9
ENDBRANCH   6   8
BRANCH   6  49
HETATM   49  O   UNK N   1      36.985  14.236  12.145  0.00  0.00    -0.307 OA
HETATM   50  H   UNK N   1      37.625  14.621  11.526  0.00  0.00     0.222 HD
ENDBRANCH   6  49
ENDBRANCH   5   6
ENDBRANCH   1   5
BRANCH   1  51
HETATM   51  O   UNK N   1      33.538  10.804  14.658  0.00  0.00    -0.307 OA
HETATM   52  H   UNK N   1      33.473   9.844  14.536  0.00  0.00     0.222 HD
ENDBRANCH   1  51
TORSDOF 20
ENDMDL
