MODEL 1
REMARK VINA RESULT:      -3.8      0.000      0.000
REMARK  3 active torsions:
REMARK  status: ('A' for Active; 'I' for Inactive)
REMARK    1  A    between atoms: C_2  and  N_4 
REMARK    2  A    between atoms: C_2  and  C_5 
REMARK    3  A    between atoms: C_5  and  O_6 
ROOT
HETATM    1  C   UNK N   1      32.659  16.735   8.713  0.00  0.00     0.049 C 
HETATM    2  C   UNK N   1      34.163  16.933   8.749  0.00  0.00     0.102 C 
HETATM    3  C   UNK N   1      34.840  15.685   8.212  0.00  0.00     0.049 C 
ENDROOT
BRANCH   2   4
HETATM    4  N   UNK N   1      34.576  17.131  10.128  0.00  0.00    -0.414 N 
HETATM    5  H   UNK N   1      35.461  16.800  10.513  0.00  0.00     0.151 HD
HETATM    6  H   UNK N   1      33.943  17.634  10.749  0.00  0.00     0.151 HD
ENDBRANCH   2   4
BRANCH   2   7
HETATM    7  C   UNK N   1      34.538  18.126   7.907  0.00  0.00     0.168 C 
HETATM    8  O   UNK N   1      35.053  19.104   8.424  0.00  0.00    -0.648 OA
BRANCH   7   9
HETATM    9  O   UNK N   1      34.317  18.118   6.576  0.00  0.00    -0.775 OA
HETATM   10  H   UNK N   1      33.541  17.736   6.217  0.00  0.00     0.167 HD
ENDBRANCH   7   9
ENDBRANCH   2   7
TORSDOF 3
ENDMDL
MODEL 2
REMARK VINA RESULT:      -3.8     14.798     15.540
REMARK  3 active torsions:
REMARK  status: ('A' for Active; 'I' for Inactive)
REMARK    1  A    between atoms: C_2  and  N_4 
REMARK    2  A    between atoms: C_2  and  C_5 
REMARK    3  A    between atoms: C_5  and  O_6 
ROOT
HETATM    1  C   UNK N   1      20.360  17.671   1.036  0.00  0.00     0.049 C 
HETATM    2  C   UNK N   1      20.263  18.844   1.994  0.00  0.00     0.102 C 
HETATM    3  C   UNK N   1      21.083  18.539   3.234  0.00  0.00     0.049 C 
ENDROOT
BRANCH   2   4
HETATM    4  N   UNK N   1      18.874  19.016   2.384  0.00  0.00    -0.414 N 
HETATM    5  H   UNK N   1      18.145  19.366   1.762  0.00  0.00     0.151 HD
HETATM    6  H   UNK N   1      18.611  18.771   3.338  0.00  0.00     0.151 HD
ENDBRANCH   2   4
BRANCH   2   7
HETATM    7  C   UNK N   1      20.783  20.091   1.324  0.00  0.00     0.168 C 
HETATM    8  O   UNK N   1      21.423  20.909   1.964  0.00  0.00    -0.648 OA
BRANCH   7   9
HETATM    9  O   UNK N   1      20.553  20.306   0.012  0.00  0.00    -0.775 OA
HETATM   10  H   UNK N   1      20.898  19.730  -0.641  0.00  0.00     0.167 HD
ENDBRANCH   7   9
ENDBRANCH   2   7
TORSDOF 3
ENDMDL
MODEL 3
REMARK VINA RESULT:      -3.7     12.217     12.952
REMARK  3 active torsions:
REMARK  status: ('A' for Active; 'I' for Inactive)
REMARK    1  A    between atoms: C_2  and  N_4 
REMARK    2  A    between atoms: C_2  and  C_5 
REMARK    3  A    between atoms: C_5  and  O_6 
ROOT
HETATM    1  C   UNK N   1      23.007  11.176   9.716  0.00  0.00     0.049 C 
HETATM    2  C   UNK N   1      22.718  12.274  10.722  0.00  0.00     0.102 C 
HETATM    3  C   UNK N   1      21.255  12.209  11.120  0.00  0.00     0.049 C 
ENDROOT
BRANCH   2   4
HETATM    4  N   UNK N   1      22.975  13.561  10.097  0.00  0.00    -0.414 N 
HETATM    5  H   UNK N   1      23.543  13.686   9.259  0.00  0.00     0.151 HD
HETATM    6  H   UNK N   1      22.562  14.390  10.523  0.00  0.00     0.151 HD
ENDBRANCH   2   4
BRANCH   2   7
HETATM    7  C   UNK N   1      23.592  12.093  11.937  0.00  0.00     0.168 C 
HETATM    8  O   UNK N   1      23.092  11.831  13.018  0.00  0.00    -0.648 OA
BRANCH   7   9
HETATM    9  O   UNK N   1      24.933  12.208  11.835  0.00  0.00    -0.775 OA
HETATM   10  H   UNK N   1      25.440  12.585  12.526  0.00  0.00     0.167 HD
ENDBRANCH   7   9
ENDBRANCH   2   7
TORSDOF 3
ENDMDL
MODEL 4
REMARK VINA RESULT:      -3.5      3.237      3.809
REMARK  3 active torsions:
REMARK  status: ('A' for Active; 'I' for Inactive)
REMARK    1  A    between atoms: C_2  and  N_4 
REMARK    2  A    between atoms: C_2  and  C_5 
REMARK    3  A    between atoms: C_5  and  O_6 
ROOT
HETATM    1  C   UNK N   1      35.259  14.000   9.659  0.00  0.00     0.049 C 
HETATM    2  C   UNK N   1      34.910  14.857  10.862  0.00  0.00     0.102 C 
HETATM    3  C   UNK N   1      35.209  14.076  12.129  0.00  0.00     0.049 C 
ENDROOT
BRANCH   2   4
HETATM    4  N   UNK N   1      33.490  15.161  10.824  0.00  0.00    -0.414 N 
HETATM    5  H   UNK N   1      33.107  16.106  10.817  0.00  0.00     0.151 HD
HETATM    6  H   UNK N   1      32.834  14.380  10.805  0.00  0.00     0.151 HD
ENDBRANCH   2   4
BRANCH   2   7
HETATM    7  C   UNK N   1      35.724  16.126  10.833  0.00  0.00     0.168 C 
HETATM    8  O   UNK N   1      35.168  17.209  10.757  0.00  0.00    -0.648 OA
BRANCH   7   9
HETATM    9  O   UNK N   1      37.070  16.074  10.902  0.00  0.00    -0.775 OA
HETATM   10  H   UNK N   1      37.522  16.263  11.701  0.00  0.00     0.167 HD
ENDBRANCH   7   9
ENDBRANCH   2   7
TORSDOF 3
ENDMDL
MODEL 5
REMARK VINA RESULT:      -3.4     11.719     12.515
REMARK  3 active torsions:
REMARK  status: ('A' for Active; 'I' for Inactive)
REMARK    1  A    between atoms: C_2  and  N_4 
REMARK    2  A    between atoms: C_2  and  C_5 
REMARK    3  A    between atoms: C_5  and  O_6 
ROOT
HETATM    1  C   UNK N   1      44.560  23.631   1.955  0.00  0.00     0.049 C 
HETATM    2  C   UNK N   1      43.826  23.019   3.134  0.00  0.00     0.102 C 
HETATM    3  C   UNK N   1      42.499  22.461   2.655  0.00  0.00     0.049 C 
ENDROOT
BRANCH   2   4
HETATM    4  N   UNK N   1      43.568  24.058   4.117  0.00  0.00    -0.414 N 
HETATM    5  H   UNK N   1      42.684  24.560   4.199  0.00  0.00     0.151 HD
HETATM    6  H   UNK N   1      44.318  24.301   4.764  0.00  0.00     0.151 HD
ENDBRANCH   2   4
BRANCH   2   7
HETATM    7  C   UNK N   1      44.663  21.918   3.736  0.00  0.00     0.168 C 
HETATM    8  O   UNK N   1      44.264  20.766   3.719  0.00  0.00    -0.648 OA
BRANCH   7   9
HETATM    9  O   UNK N   1      45.861  22.198   4.290  0.00  0.00    -0.775 OA
HETATM   10  H   UNK N   1      45.994  22.981   4.787  0.00  0.00     0.167 HD
ENDBRANCH   7   9
ENDBRANCH   2   7
TORSDOF 3
ENDMDL
MODEL 6
REMARK VINA RESULT:      -3.3     11.690     12.486
REMARK  3 active torsions:
REMARK  status: ('A' for Active; 'I' for Inactive)
REMARK    1  A    between atoms: C_2  and  N_4 
REMARK    2  A    between atoms: C_2  and  C_5 
REMARK    3  A    between atoms: C_5  and  O_6 
ROOT
HETATM    1  C   UNK N   1      22.296  13.401   9.973  0.00  0.00     0.049 C 
HETATM    2  C   UNK N   1      23.450  12.424  10.103  0.00  0.00     0.102 C 
HETATM    3  C   UNK N   1      24.732  13.111   9.671  0.00  0.00     0.049 C 
ENDROOT
BRANCH   2   4
HETATM    4  N   UNK N   1      23.207  11.293   9.224  0.00  0.00    -0.414 N 
HETATM    5  H   UNK N   1      22.344  11.151   8.700  0.00  0.00     0.151 HD
HETATM    6  H   UNK N   1      23.946  10.597   9.124  0.00  0.00     0.151 HD
ENDBRANCH   2   4
BRANCH   2   7
HETATM    7  C   UNK N   1      23.567  11.965  11.535  0.00  0.00     0.168 C 
HETATM    8  O   UNK N   1      24.654  11.950  12.087  0.00  0.00    -0.648 OA
BRANCH   7   9
HETATM    9  O   UNK N   1      22.469  11.577  12.218  0.00  0.00    -0.775 OA
HETATM   10  H   UNK N   1      22.064  12.143  12.845  0.00  0.00     0.167 HD
ENDBRANCH   7   9
ENDBRANCH   2   7
TORSDOF 3
ENDMDL
MODEL 7
REMARK VINA RESULT:      -3.3      1.788      2.324
REMARK  3 active torsions:
REMARK  status: ('A' for Active; 'I' for Inactive)
REMARK    1  A    between atoms: C_2  and  N_4 
REMARK    2  A    between atoms: C_2  and  C_5 
REMARK    3  A    between atoms: C_5  and  O_6 
ROOT
HETATM    1  C   UNK N   1      33.945  15.784   8.182  0.00  0.00     0.049 C 
HETATM    2  C   UNK N   1      33.778  17.278   7.974  0.00  0.00     0.102 C 
HETATM    3  C   UNK N   1      32.380  17.683   8.403  0.00  0.00     0.049 C 
ENDROOT
BRANCH   2   4
HETATM    4  N   UNK N   1      33.938  17.574   6.561  0.00  0.00    -0.414 N 
HETATM    5  H   UNK N   1      33.450  18.328   6.076  0.00  0.00     0.151 HD
HETATM    6  H   UNK N   1      34.577  16.993   6.020  0.00  0.00     0.151 HD
ENDBRANCH   2   4
BRANCH   2   7
HETATM    7  C   UNK N   1      34.805  18.021   8.790  0.00  0.00     0.168 C 
HETATM    8  O   UNK N   1      35.242  17.532   9.819  0.00  0.00    -0.648 OA
BRANCH   7   9
HETATM    9  O   UNK N   1      35.254  19.227   8.385  0.00  0.00    -0.775 OA
HETATM   10  H   UNK N   1      34.936  20.018   8.773  0.00  0.00     0.167 HD
ENDBRANCH   7   9
ENDBRANCH   2   7
TORSDOF 3
ENDMDL
MODEL 8
REMARK VINA RESULT:      -3.3     12.801     13.462
REMARK  3 active torsions:
REMARK  status: ('A' for Active; 'I' for Inactive)
REMARK    1  A    between atoms: C_2  and  N_4 
REMARK    2  A    between atoms: C_2  and  C_5 
REMARK    3  A    between atoms: C_5  and  O_6 
ROOT
HETATM    1  C   UNK N   1      30.743  20.999  -4.587  0.00  0.00     0.049 C 
HETATM    2  C   UNK N   1      30.843  22.393  -3.995  0.00  0.00     0.102 C 
HETATM    3  C   UNK N   1      29.493  23.077  -4.110  0.00  0.00     0.049 C 
ENDROOT
BRANCH   2   4
HETATM    4  N   UNK N   1      31.819  23.155  -4.755  0.00  0.00    -0.414 N 
HETATM    5  H   UNK N   1      31.578  23.844  -5.468  0.00  0.00     0.151 HD
HETATM    6  H   UNK N   1      32.808  22.990  -4.565  0.00  0.00     0.151 HD
ENDBRANCH   2   4
BRANCH   2   7
HETATM    7  C   UNK N   1      31.255  22.301  -2.548  0.00  0.00     0.168 C 
HETATM    8  O   UNK N   1      30.700  22.989  -1.708  0.00  0.00    -0.648 OA
BRANCH   7   9
HETATM    9  O   UNK N   1      32.232  21.451  -2.170  0.00  0.00    -0.775 OA
HETATM   10  H   UNK N   1      32.089  20.525  -2.152  0.00  0.00     0.167 HD
ENDBRANCH   7   9
ENDBRANCH   2   7
TORSDOF 3
ENDMDL
MODEL 9
REMARK VINA RESULT:      -3.2      1.720      2.166
REMARK  3 active torsions:
REMARK  status: ('A' for Active; 'I' for Inactive)
REMARK    1  A    between atoms: C_2  and  N_4 
REMARK    2  A    between atoms: C_2  and  C_5 
REMARK    3  A    between atoms: C_5  and  O_6 
ROOT
HETATM    1  C   UNK N   1      32.348  17.198   6.627  0.00  0.00     0.049 C 
HETATM    2  C   UNK N   1      32.746  17.174   8.092  0.00  0.00     0.102 C 
HETATM    3  C   UNK N   1      32.732  15.739   8.585  0.00  0.00     0.049 C 
ENDROOT
BRANCH   2   4
HETATM    4  N   UNK N   1      31.772  17.939   8.853  0.00  0.00    -0.414 N 
HETATM    5  H   UNK N   1      31.420  17.664   9.770  0.00  0.00     0.151 HD
HETATM    6  H   UNK N   1      31.419  18.804   8.446  0.00  0.00     0.151 HD
ENDBRANCH   2   4
BRANCH   2   7
HETATM    7  C   UNK N   1      34.124  17.763   8.253  0.00  0.00     0.168 C 
HETATM    8  O   UNK N   1      34.658  18.338   7.320  0.00  0.00    -0.648 OA
BRANCH   7   9
HETATM    9  O   UNK N   1      34.772  17.667   9.433  0.00  0.00    -0.775 OA
HETATM   10  H   UNK N   1      34.323  17.407  10.213  0.00  0.00     0.167 HD
ENDBRANCH   7   9
ENDBRANCH   2   7
TORSDOF 3
ENDMDL
