MODEL 1
REMARK VINA RESULT:      -5.9      0.000      0.000
REMARK  8 active torsions:
REMARK  status: ('A' for Active; 'I' for Inactive)
REMARK    1  A    between atoms: N_17  and  C_4 
REMARK    2  A    between atoms: N_17  and  C_5 
REMARK    3  A    between atoms: O_18  and  C_7 
REMARK    4  A    between atoms: C_8  and  N_14 
REMARK    5  A    between atoms: C_9  and  C_13 
REMARK    6  A    between atoms: C_10  and  N_15 
REMARK    7  A    between atoms: C_11  and  C_12 
REMARK       I    between atoms: N_17  and  C_12 
REMARK    8  A    between atoms: O_21  and  C_13 
ROOT
HETATM    1  C   UNK N   1      29.922  22.027  -4.628  0.00  0.00     0.069 C 
HETATM    2  C   UNK N   1      29.282  22.488  -5.937  0.00  0.00     0.102 C 
HETATM    3  C   UNK N   1      30.086  23.222  -3.685  0.00  0.00     0.222 C 
HETATM    4  C   UNK N   1      27.991  23.287  -5.635  0.00  0.00     0.143 C 
HETATM    5  C   UNK N   1      28.295  24.400  -4.587  0.00  0.00     0.239 C 
HETATM    6  O   UNK N   1      28.811  23.783  -3.417  0.00  0.00    -0.358 OA
ENDROOT
BRANCH   5   7
HETATM    7  C   UNK N   1      27.054  25.225  -4.225  0.00  0.00     0.251 C 
HETATM    8  N   UNK N   1      26.898  26.517  -4.660  0.00  0.00    -0.351 N 
HETATM    9  O   UNK N   1      26.178  24.713  -3.541  0.00  0.00    -0.270 OA
BRANCH   8  10
HETATM   10  C   UNK N   1      27.932  27.185  -5.413  0.00  0.00     0.121 C 
HETATM   11  C   UNK N   1      27.423  27.516  -6.810  0.00  0.00     0.026 C 
ENDBRANCH   8  10
BRANCH   8  12
HETATM   12  C   UNK N   1      25.677  27.253  -4.380  0.00  0.00     0.121 C 
HETATM   13  C   UNK N   1      25.960  28.537  -3.617  0.00  0.00     0.026 C 
ENDBRANCH   8  12
ENDBRANCH   5   7
BRANCH   4  14
HETATM   14  N   UNK N   1      27.430  23.849  -6.853  0.00  0.00    -0.365 N 
HETATM   15  C   UNK N   1      26.173  23.802  -7.146  0.00  0.00     0.107 C 
HETATM   16  C   UNK N   1      25.694  24.404  -8.420  0.00  0.00     0.097 C 
ATOM     17  HN  UNK N   1      28.062  24.304  -7.512  1.00  0.00     0.161 HD
BRANCH  15  18
HETATM   18  O   UNK N   1      25.282  23.237  -6.306  0.00  0.00    -0.350 OA
HETATM   19  H   UNK N   1      25.153  22.624  -5.610  0.00  0.00     0.219 HD
ENDBRANCH  15  18
ENDBRANCH   4  14
BRANCH   2  20
HETATM   20  N   UNK N   1      30.232  23.308  -6.676  0.00  0.00    -0.424 N 
HETATM   21  H   UNK N   1      30.961  23.661  -7.296  0.00  0.00     0.150 HD
HETATM   22  H   UNK N   1      29.975  24.204  -6.260  0.00  0.00     0.150 HD
ENDBRANCH   2  20
BRANCH   3  23
HETATM   23  C   UNK N   1      30.742  22.773  -2.410  0.00  0.00     0.170 C 
HETATM   24  O   UNK N   1      30.278  23.090  -1.327  0.00  0.00    -0.648 OA
BRANCH  23  25
HETATM   25  O   UNK N   1      31.867  22.034  -2.461  0.00  0.00    -0.774 OA
HETATM   26  H   UNK N   1      31.825  21.097  -2.447  0.00  0.00     0.167 HD
ENDBRANCH  23  25
ENDBRANCH   3  23
TORSDOF 8
ENDMDL
MODEL 2
REMARK VINA RESULT:      -5.6     12.871     15.760
REMARK  8 active torsions:
REMARK  status: ('A' for Active; 'I' for Inactive)
REMARK    1  A    between atoms: N_17  and  C_4 
REMARK    2  A    between atoms: N_17  and  C_5 
REMARK    3  A    between atoms: O_18  and  C_7 
REMARK    4  A    between atoms: C_8  and  N_14 
REMARK    5  A    between atoms: C_9  and  C_13 
REMARK    6  A    between atoms: C_10  and  N_15 
REMARK    7  A    between atoms: C_11  and  C_12 
REMARK       I    between atoms: N_17  and  C_12 
REMARK    8  A    between atoms: O_21  and  C_13 
ROOT
HETATM    1  C   UNK N   1      29.130  17.858   6.939  0.00  0.00     0.069 C 
HETATM    2  C   UNK N   1      29.879  17.075   5.862  0.00  0.00     0.102 C 
HETATM    3  C   UNK N   1      29.579  17.389   8.325  0.00  0.00     0.222 C 
HETATM    4  C   UNK N   1      31.402  17.140   6.131  0.00  0.00     0.143 C 
HETATM    5  C   UNK N   1      31.693  16.732   7.607  0.00  0.00     0.239 C 
HETATM    6  O   UNK N   1      30.974  17.610   8.462  0.00  0.00    -0.358 OA
ENDROOT
BRANCH   5   7
HETATM    7  C   UNK N   1      33.185  16.790   7.953  0.00  0.00     0.251 C 
HETATM    8  N   UNK N   1      33.750  15.913   8.845  0.00  0.00    -0.351 N 
HETATM    9  O   UNK N   1      33.889  17.631   7.412  0.00  0.00    -0.270 OA
BRANCH   8  10
HETATM   10  C   UNK N   1      32.949  14.947   9.557  0.00  0.00     0.121 C 
HETATM   11  C   UNK N   1      33.222  13.549   9.015  0.00  0.00     0.026 C 
ENDBRANCH   8  10
BRANCH   8  12
HETATM   12  C   UNK N   1      35.181  15.927   9.094  0.00  0.00     0.121 C 
HETATM   13  C   UNK N   1      35.500  16.410  10.500  0.00  0.00     0.026 C 
ENDBRANCH   8  12
ENDBRANCH   5   7
BRANCH   4  14
HETATM   14  N   UNK N   1      32.132  16.297   5.198  0.00  0.00    -0.365 N 
HETATM   15  C   UNK N   1      32.398  16.644   3.983  0.00  0.00     0.107 C 
HETATM   16  C   UNK N   1      33.151  15.710   3.102  0.00  0.00     0.097 C 
ATOM     17  HN  UNK N   1      32.450  15.383   5.519  1.00  0.00     0.161 HD
BRANCH  15  18
HETATM   18  O   UNK N   1      32.028  17.849   3.505  0.00  0.00    -0.350 OA
HETATM   19  H   UNK N   1      31.475  18.596   3.627  0.00  0.00     0.219 HD
ENDBRANCH  15  18
ENDBRANCH   4  14
BRANCH   2  20
HETATM   20  N   UNK N   1      29.417  15.694   5.860  0.00  0.00    -0.424 N 
HETATM   21  H   UNK N   1      28.923  14.815   6.024  0.00  0.00     0.150 HD
HETATM   22  H   UNK N   1      30.103  15.332   5.198  0.00  0.00     0.150 HD
ENDBRANCH   2  20
BRANCH   3  23
HETATM   23  C   UNK N   1      28.821  18.139   9.383  0.00  0.00     0.170 C 
HETATM   24  O   UNK N   1      29.414  18.772  10.241  0.00  0.00    -0.648 OA
BRANCH  23  25
HETATM   25  O   UNK N   1      27.475  18.094   9.400  0.00  0.00    -0.774 OA
HETATM   26  H   UNK N   1      27.025  17.288   9.567  0.00  0.00     0.167 HD
ENDBRANCH  23  25
ENDBRANCH   3  23
TORSDOF 8
ENDMDL
MODEL 3
REMARK VINA RESULT:      -5.5     16.165     19.615
REMARK  8 active torsions:
REMARK  status: ('A' for Active; 'I' for Inactive)
REMARK    1  A    between atoms: N_17  and  C_4 
REMARK    2  A    between atoms: N_17  and  C_5 
REMARK    3  A    between atoms: O_18  and  C_7 
REMARK    4  A    between atoms: C_8  and  N_14 
REMARK    5  A    between atoms: C_9  and  C_13 
REMARK    6  A    between atoms: C_10  and  N_15 
REMARK    7  A    between atoms: C_11  and  C_12 
REMARK       I    between atoms: N_17  and  C_12 
REMARK    8  A    between atoms: O_21  and  C_13 
ROOT
HETATM    1  C   UNK N   1      32.956  16.122   8.025  0.00  0.00     0.069 C 
HETATM    2  C   UNK N   1      32.577  14.861   8.801  0.00  0.00     0.102 C 
HETATM    3  C   UNK N   1      34.179  16.777   8.670  0.00  0.00     0.222 C 
HETATM    4  C   UNK N   1      33.820  13.951   8.959  0.00  0.00     0.143 C 
HETATM    5  C   UNK N   1      35.009  14.781   9.532  0.00  0.00     0.239 C 
HETATM    6  O   UNK N   1      35.264  15.863   8.647  0.00  0.00    -0.358 OA
ENDROOT
BRANCH   5   7
HETATM    7  C   UNK N   1      36.285  13.947   9.700  0.00  0.00     0.251 C 
HETATM    8  N   UNK N   1      36.820  13.696  10.939  0.00  0.00    -0.351 N 
HETATM    9  O   UNK N   1      36.830  13.486   8.707  0.00  0.00    -0.270 OA
BRANCH   8  10
HETATM   10  C   UNK N   1      36.251  14.273  12.133  0.00  0.00     0.121 C 
HETATM   11  C   UNK N   1      35.343  13.258  12.815  0.00  0.00     0.026 C 
ENDBRANCH   8  10
BRANCH   8  12
HETATM   12  C   UNK N   1      37.979  12.833  11.085  0.00  0.00     0.121 C 
HETATM   13  C   UNK N   1      37.590  11.364  11.057  0.00  0.00     0.026 C 
ENDBRANCH   8  12
ENDBRANCH   5   7
BRANCH   4  14
HETATM   14  N   UNK N   1      33.522  12.806   9.804  0.00  0.00    -0.365 N 
HETATM   15  C   UNK N   1      33.859  11.596   9.507  0.00  0.00     0.107 C 
HETATM   16  C   UNK N   1      33.507  10.487  10.437  0.00  0.00     0.097 C 
ATOM     17  HN  UNK N   1      33.021  12.967  10.678  1.00  0.00     0.161 HD
BRANCH  15  18
HETATM   18  O   UNK N   1      34.545  11.319   8.380  0.00  0.00    -0.350 OA
HETATM   19  H   UNK N   1      34.694  11.553   7.485  0.00  0.00     0.219 HD
ENDBRANCH  15  18
ENDBRANCH   4  14
BRANCH   2  20
HETATM   20  N   UNK N   1      32.047  15.237  10.104  0.00  0.00    -0.424 N 
HETATM   21  H   UNK N   1      31.754  15.731  10.948  0.00  0.00     0.150 HD
HETATM   22  H   UNK N   1      31.737  14.308  10.387  0.00  0.00     0.150 HD
ENDBRANCH   2  20
BRANCH   3  23
HETATM   23  C   UNK N   1      34.533  18.032   7.925  0.00  0.00     0.170 C 
HETATM   24  O   UNK N   1      34.266  18.147   6.739  0.00  0.00    -0.648 OA
BRANCH  23  25
HETATM   25  O   UNK N   1      35.172  19.032   8.563  0.00  0.00    -0.774 OA
HETATM   26  H   UNK N   1      35.543  18.897   9.413  0.00  0.00     0.167 HD
ENDBRANCH  23  25
ENDBRANCH   3  23
TORSDOF 8
ENDMDL
MODEL 4
REMARK VINA RESULT:      -5.4      2.157      5.610
REMARK  8 active torsions:
REMARK  status: ('A' for Active; 'I' for Inactive)
REMARK    1  A    between atoms: N_17  and  C_4 
REMARK    2  A    between atoms: N_17  and  C_5 
REMARK    3  A    between atoms: O_18  and  C_7 
REMARK    4  A    between atoms: C_8  and  N_14 
REMARK    5  A    between atoms: C_9  and  C_13 
REMARK    6  A    between atoms: C_10  and  N_15 
REMARK    7  A    between atoms: C_11  and  C_12 
REMARK       I    between atoms: N_17  and  C_12 
REMARK    8  A    between atoms: O_21  and  C_13 
ROOT
HETATM    1  C   UNK N   1      25.565  25.908  -7.443  0.00  0.00     0.069 C 
HETATM    2  C   UNK N   1      26.207  26.957  -6.537  0.00  0.00     0.102 C 
HETATM    3  C   UNK N   1      26.412  24.633  -7.437  0.00  0.00     0.222 C 
HETATM    4  C   UNK N   1      26.487  26.343  -5.143  0.00  0.00     0.143 C 
HETATM    5  C   UNK N   1      27.267  25.004  -5.306  0.00  0.00     0.239 C 
HETATM    6  O   UNK N   1      26.490  24.130  -6.112  0.00  0.00    -0.358 OA
ENDROOT
BRANCH   5   7
HETATM    7  C   UNK N   1      27.566  24.327  -3.962  0.00  0.00     0.251 C 
HETATM    8  N   UNK N   1      28.749  23.669  -3.737  0.00  0.00    -0.351 N 
HETATM    9  O   UNK N   1      26.733  24.387  -3.068  0.00  0.00    -0.270 OA
BRANCH   8  10
HETATM   10  C   UNK N   1      29.732  23.515  -4.782  0.00  0.00     0.121 C 
HETATM   11  C   UNK N   1      29.454  22.241  -5.569  0.00  0.00     0.026 C 
ENDBRANCH   8  10
BRANCH   8  12
HETATM   12  C   UNK N   1      29.049  23.109  -2.431  0.00  0.00     0.121 C 
HETATM   13  C   UNK N   1      30.538  22.861  -2.257  0.00  0.00     0.026 C 
ENDBRANCH   8  12
ENDBRANCH   5   7
BRANCH   4  14
HETATM   14  N   UNK N   1      27.216  27.278  -4.300  0.00  0.00    -0.365 N 
HETATM   15  C   UNK N   1      26.646  28.058  -3.444  0.00  0.00     0.107 C 
HETATM   16  C   UNK N   1      27.478  28.984  -2.627  0.00  0.00     0.097 C 
ATOM     17  HN  UNK N   1      28.231  27.320  -4.389  1.00  0.00     0.161 HD
BRANCH  15  18
HETATM   18  O   UNK N   1      25.310  28.034  -3.259  0.00  0.00    -0.350 OA
HETATM   19  H   UNK N   1      24.586  28.386  -2.780  0.00  0.00     0.219 HD
ENDBRANCH  15  18
ENDBRANCH   4  14
BRANCH   2  20
HETATM   20  N   UNK N   1      27.443  27.430  -7.146  0.00  0.00    -0.424 N 
HETATM   21  H   UNK N   1      28.162  27.781  -7.779  0.00  0.00     0.150 HD
HETATM   22  H   UNK N   1      28.031  27.349  -6.317  0.00  0.00     0.150 HD
ENDBRANCH   2  20
BRANCH   3  23
HETATM   23  C   UNK N   1      25.796  23.612  -8.351  0.00  0.00     0.170 C 
HETATM   24  O   UNK N   1      24.593  23.607  -8.555  0.00  0.00    -0.648 OA
BRANCH  23  25
HETATM   25  O   UNK N   1      26.574  22.679  -8.933  0.00  0.00    -0.774 OA
HETATM   26  H   UNK N   1      26.485  22.484  -9.846  0.00  0.00     0.167 HD
ENDBRANCH  23  25
ENDBRANCH   3  23
TORSDOF 8
ENDMDL
MODEL 5
REMARK VINA RESULT:      -5.3     10.969     13.022
REMARK  8 active torsions:
REMARK  status: ('A' for Active; 'I' for Inactive)
REMARK    1  A    between atoms: N_17  and  C_4 
REMARK    2  A    between atoms: N_17  and  C_5 
REMARK    3  A    between atoms: O_18  and  C_7 
REMARK    4  A    between atoms: C_8  and  N_14 
REMARK    5  A    between atoms: C_9  and  C_13 
REMARK    6  A    between atoms: C_10  and  N_15 
REMARK    7  A    between atoms: C_11  and  C_12 
REMARK       I    between atoms: N_17  and  C_12 
REMARK    8  A    between atoms: O_21  and  C_13 
ROOT
HETATM    1  C   UNK N   1      21.414  18.239   3.857  0.00  0.00     0.069 C 
HETATM    2  C   UNK N   1      22.022  17.412   4.989  0.00  0.00     0.102 C 
HETATM    3  C   UNK N   1      22.197  19.543   3.693  0.00  0.00     0.222 C 
HETATM    4  C   UNK N   1      23.546  17.255   4.763  0.00  0.00     0.143 C 
HETATM    5  C   UNK N   1      24.186  18.654   4.511  0.00  0.00     0.239 C 
HETATM    6  O   UNK N   1      23.549  19.240   3.384  0.00  0.00    -0.358 OA
ENDROOT
BRANCH   5   7
HETATM    7  C   UNK N   1      25.697  18.576   4.261  0.00  0.00     0.251 C 
HETATM    8  N   UNK N   1      26.582  19.353   4.966  0.00  0.00    -0.351 N 
HETATM    9  O   UNK N   1      26.121  17.795   3.421  0.00  0.00    -0.270 OA
BRANCH   8  10
HETATM   10  C   UNK N   1      26.125  20.335   5.919  0.00  0.00     0.121 C 
HETATM   11  C   UNK N   1      27.102  21.503   5.966  0.00  0.00     0.026 C 
ENDBRANCH   8  10
BRANCH   8  12
HETATM   12  C   UNK N   1      28.014  19.203   4.776  0.00  0.00     0.121 C 
HETATM   13  C   UNK N   1      28.611  18.220   5.770  0.00  0.00     0.026 C 
ENDBRANCH   8  12
ENDBRANCH   5   7
BRANCH   4  14
HETATM   14  N   UNK N   1      24.173  16.584   5.890  0.00  0.00    -0.365 N 
HETATM   15  C   UNK N   1      24.943  15.556   5.767  0.00  0.00     0.107 C 
HETATM   16  C   UNK N   1      25.538  14.935   6.982  0.00  0.00     0.097 C 
ATOM     17  HN  UNK N   1      23.995  16.944   6.827  1.00  0.00     0.161 HD
BRANCH  15  18
HETATM   18  O   UNK N   1      25.239  15.047   4.554  0.00  0.00    -0.350 OA
HETATM   19  H   UNK N   1      25.550  14.301   4.080  0.00  0.00     0.219 HD
ENDBRANCH  15  18
ENDBRANCH   4  14
BRANCH   2  20
HETATM   20  N   UNK N   1      21.757  18.067   6.262  0.00  0.00    -0.424 N 
HETATM   21  H   UNK N   1      21.705  18.333   7.246  0.00  0.00     0.150 HD
HETATM   22  H   UNK N   1      21.216  18.849   5.892  0.00  0.00     0.150 HD
ENDBRANCH   2  20
BRANCH   3  23
HETATM   23  C   UNK N   1      21.581  20.369   2.600  0.00  0.00     0.170 C 
HETATM   24  O   UNK N   1      21.012  19.833   1.662  0.00  0.00    -0.648 OA
BRANCH  23  25
HETATM   25  O   UNK N   1      21.678  21.712   2.640  0.00  0.00    -0.774 OA
HETATM   26  H   UNK N   1      20.910  22.245   2.716  0.00  0.00     0.167 HD
ENDBRANCH  23  25
ENDBRANCH   3  23
TORSDOF 8
ENDMDL
MODEL 6
REMARK VINA RESULT:      -5.2     13.379     16.507
REMARK  8 active torsions:
REMARK  status: ('A' for Active; 'I' for Inactive)
REMARK    1  A    between atoms: N_17  and  C_4 
REMARK    2  A    between atoms: N_17  and  C_5 
REMARK    3  A    between atoms: O_18  and  C_7 
REMARK    4  A    between atoms: C_8  and  N_14 
REMARK    5  A    between atoms: C_9  and  C_13 
REMARK    6  A    between atoms: C_10  and  N_15 
REMARK    7  A    between atoms: C_11  and  C_12 
REMARK       I    between atoms: N_17  and  C_12 
REMARK    8  A    between atoms: O_21  and  C_13 
ROOT
HETATM    1  C   UNK N   1      34.368  14.858  10.299  0.00  0.00     0.069 C 
HETATM    2  C   UNK N   1      32.927  15.014   9.816  0.00  0.00     0.102 C 
HETATM    3  C   UNK N   1      35.286  14.588   9.105  0.00  0.00     0.222 C 
HETATM    4  C   UNK N   1      32.868  16.059   8.675  0.00  0.00     0.143 C 
HETATM    5  C   UNK N   1      33.926  15.706   7.585  0.00  0.00     0.239 C 
HETATM    6  O   UNK N   1      35.206  15.677   8.199  0.00  0.00    -0.358 OA
ENDROOT
BRANCH   5   7
HETATM    7  C   UNK N   1      33.938  16.711   6.426  0.00  0.00     0.251 C 
HETATM    8  N   UNK N   1      33.449  16.383   5.186  0.00  0.00    -0.351 N 
HETATM    9  O   UNK N   1      34.383  17.834   6.617  0.00  0.00    -0.270 OA
BRANCH   8  10
HETATM   10  C   UNK N   1      32.975  15.052   4.895  0.00  0.00     0.121 C 
HETATM   11  C   UNK N   1      33.880  14.396   3.860  0.00  0.00     0.026 C 
ENDBRANCH   8  10
BRANCH   8  12
HETATM   12  C   UNK N   1      33.389  17.375   4.126  0.00  0.00     0.121 C 
HETATM   13  C   UNK N   1      31.962  17.819   3.854  0.00  0.00     0.026 C 
ENDBRANCH   8  12
ENDBRANCH   5   7
BRANCH   4  14
HETATM   14  N   UNK N   1      31.532  16.135   8.107  0.00  0.00    -0.365 N 
HETATM   15  C   UNK N   1      30.701  17.088   8.367  0.00  0.00     0.107 C 
HETATM   16  C   UNK N   1      29.352  17.077   7.737  0.00  0.00     0.097 C 
ATOM     17  HN  UNK N   1      31.235  15.396   7.469  1.00  0.00     0.161 HD
BRANCH  15  18
HETATM   18  O   UNK N   1      31.041  18.107   9.181  0.00  0.00    -0.350 OA
HETATM   19  H   UNK N   1      30.829  18.972   9.472  0.00  0.00     0.219 HD
ENDBRANCH  15  18
ENDBRANCH   4  14
BRANCH   2  20
HETATM   20  N   UNK N   1      32.429  13.725   9.357  0.00  0.00    -0.424 N 
HETATM   21  H   UNK N   1      32.290  12.825   8.895  0.00  0.00     0.150 HD
HETATM   22  H   UNK N   1      31.578  13.711   9.920  0.00  0.00     0.150 HD
ENDBRANCH   2  20
BRANCH   3  23
HETATM   23  C   UNK N   1      36.698  14.405   9.584  0.00  0.00     0.170 C 
HETATM   24  O   UNK N   1      37.337  13.412   9.273  0.00  0.00    -0.648 OA
BRANCH  23  25
HETATM   25  O   UNK N   1      37.258  15.332  10.384  0.00  0.00    -0.774 OA
HETATM   26  H   UNK N   1      37.545  15.108  11.249  0.00  0.00     0.167 HD
ENDBRANCH  23  25
ENDBRANCH   3  23
TORSDOF 8
ENDMDL
MODEL 7
REMARK VINA RESULT:      -5.2     14.776     17.807
REMARK  8 active torsions:
REMARK  status: ('A' for Active; 'I' for Inactive)
REMARK    1  A    between atoms: N_17  and  C_4 
REMARK    2  A    between atoms: N_17  and  C_5 
REMARK    3  A    between atoms: O_18  and  C_7 
REMARK    4  A    between atoms: C_8  and  N_14 
REMARK    5  A    between atoms: C_9  and  C_13 
REMARK    6  A    between atoms: C_10  and  N_15 
REMARK    7  A    between atoms: C_11  and  C_12 
REMARK       I    between atoms: N_17  and  C_12 
REMARK    8  A    between atoms: O_21  and  C_13 
ROOT
HETATM    1  C   UNK N   1      36.278  15.459  10.798  0.00  0.00     0.069 C 
HETATM    2  C   UNK N   1      34.829  15.933  10.701  0.00  0.00     0.102 C 
HETATM    3  C   UNK N   1      36.518  14.323   9.801  0.00  0.00     0.222 C 
HETATM    4  C   UNK N   1      34.481  16.250   9.226  0.00  0.00     0.143 C 
HETATM    5  C   UNK N   1      34.873  15.042   8.322  0.00  0.00     0.239 C 
HETATM    6  O   UNK N   1      36.262  14.794   8.487  0.00  0.00    -0.358 OA
ENDROOT
BRANCH   5   7
HETATM    7  C   UNK N   1      34.572  15.292   6.839  0.00  0.00     0.251 C 
HETATM    8  N   UNK N   1      33.866  14.387   6.087  0.00  0.00    -0.351 N 
HETATM    9  O   UNK N   1      34.963  16.328   6.319  0.00  0.00    -0.270 OA
BRANCH   8  10
HETATM   10  C   UNK N   1      33.442  13.122   6.639  0.00  0.00     0.121 C 
HETATM   11  C   UNK N   1      33.874  11.988   5.719  0.00  0.00     0.026 C 
ENDBRANCH   8  10
BRANCH   8  12
HETATM   12  C   UNK N   1      33.516  14.680   4.708  0.00  0.00     0.121 C 
HETATM   13  C   UNK N   1      32.087  15.183   4.587  0.00  0.00     0.026 C 
ENDBRANCH   8  12
ENDBRANCH   5   7
BRANCH   4  14
HETATM   14  N   UNK N   1      33.072  16.580   9.083  0.00  0.00    -0.365 N 
HETATM   15  C   UNK N   1      32.647  17.656   8.512  0.00  0.00     0.107 C 
HETATM   16  C   UNK N   1      31.182  17.906   8.416  0.00  0.00     0.097 C 
ATOM     17  HN  UNK N   1      32.382  15.926   9.454  1.00  0.00     0.161 HD
BRANCH  15  18
HETATM   18  O   UNK N   1      33.506  18.549   7.978  0.00  0.00    -0.350 OA
HETATM   19  H   UNK N   1      34.404  18.793   7.871  0.00  0.00     0.219 HD
ENDBRANCH  15  18
ENDBRANCH   4  14
BRANCH   2  20
HETATM   20  N   UNK N   1      33.947  14.900  11.225  0.00  0.00    -0.424 N 
HETATM   21  H   UNK N   1      33.448  14.228  11.809  0.00  0.00     0.150 HD
HETATM   22  H   UNK N   1      33.466  14.689  10.351  0.00  0.00     0.150 HD
ENDBRANCH   2  20
BRANCH   3  23
HETATM   23  C   UNK N   1      37.935  13.838   9.919  0.00  0.00     0.170 C 
HETATM   24  O   UNK N   1      38.669  13.820   8.944  0.00  0.00    -0.648 OA
BRANCH  23  25
HETATM   25  O   UNK N   1      38.394  13.395  11.105  0.00  0.00    -0.774 OA
HETATM   26  H   UNK N   1      38.960  12.649  11.151  0.00  0.00     0.167 HD
ENDBRANCH  23  25
ENDBRANCH   3  23
TORSDOF 8
ENDMDL
MODEL 8
REMARK VINA RESULT:      -5.1     12.529     15.359
REMARK  8 active torsions:
REMARK  status: ('A' for Active; 'I' for Inactive)
REMARK    1  A    between atoms: N_17  and  C_4 
REMARK    2  A    between atoms: N_17  and  C_5 
REMARK    3  A    between atoms: O_18  and  C_7 
REMARK    4  A    between atoms: C_8  and  N_14 
REMARK    5  A    between atoms: C_9  and  C_13 
REMARK    6  A    between atoms: C_10  and  N_15 
REMARK    7  A    between atoms: C_11  and  C_12 
REMARK       I    between atoms: N_17  and  C_12 
REMARK    8  A    between atoms: O_21  and  C_13 
ROOT
HETATM    1  C   UNK N   1      30.078  17.483   9.188  0.00  0.00     0.069 C 
HETATM    2  C   UNK N   1      31.430  16.803   8.977  0.00  0.00     0.102 C 
HETATM    3  C   UNK N   1      29.521  17.954   7.842  0.00  0.00     0.222 C 
HETATM    4  C   UNK N   1      31.302  15.712   7.885  0.00  0.00     0.143 C 
HETATM    5  C   UNK N   1      30.629  16.317   6.616  0.00  0.00     0.239 C 
HETATM    6  O   UNK N   1      29.359  16.834   6.987  0.00  0.00    -0.358 OA
ENDROOT
BRANCH   5   7
HETATM    7  C   UNK N   1      30.452  15.286   5.494  0.00  0.00     0.251 C 
HETATM    8  N   UNK N   1      30.583  15.634   4.172  0.00  0.00    -0.351 N 
HETATM    9  O   UNK N   1      30.201  14.126   5.786  0.00  0.00    -0.270 OA
BRANCH   8  10
HETATM   10  C   UNK N   1      30.813  17.003   3.776  0.00  0.00     0.121 C 
HETATM   11  C   UNK N   1      32.232  17.154   3.243  0.00  0.00     0.026 C 
ENDBRANCH   8  10
BRANCH   8  12
HETATM   12  C   UNK N   1      30.497  14.628   3.128  0.00  0.00     0.121 C 
HETATM   13  C   UNK N   1      29.183  14.717   2.370  0.00  0.00     0.026 C 
ENDBRANCH   8  12
ENDBRANCH   5   7
BRANCH   4  14
HETATM   14  N   UNK N   1      32.599  15.137   7.570  0.00  0.00    -0.365 N 
HETATM   15  C   UNK N   1      33.052  14.060   8.119  0.00  0.00     0.107 C 
HETATM   16  C   UNK N   1      34.396  13.548   7.732  0.00  0.00     0.097 C 
ATOM     17  HN  UNK N   1      33.183  15.608   6.879  1.00  0.00     0.161 HD
BRANCH  15  18
HETATM   18  O   UNK N   1      32.320  13.375   9.021  0.00  0.00    -0.350 OA
HETATM   19  H   UNK N   1      32.071  13.298   9.921  0.00  0.00     0.219 HD
ENDBRANCH  15  18
ENDBRANCH   4  14
BRANCH   2  20
HETATM   20  N   UNK N   1      32.418  17.801   8.591  0.00  0.00    -0.424 N 
HETATM   21  H   UNK N   1      33.173  18.487   8.566  0.00  0.00     0.150 HD
HETATM   22  H   UNK N   1      32.164  17.856   7.605  0.00  0.00     0.150 HD
ENDBRANCH   2  20
BRANCH   3  23
HETATM   23  C   UNK N   1      28.207  18.649   8.054  0.00  0.00     0.170 C 
HETATM   24  O   UNK N   1      27.801  19.471   7.248  0.00  0.00    -0.648 OA
BRANCH  23  25
HETATM   25  O   UNK N   1      27.479  18.382   9.156  0.00  0.00    -0.774 OA
HETATM   26  H   UNK N   1      27.740  18.713   9.994  0.00  0.00     0.167 HD
ENDBRANCH  23  25
ENDBRANCH   3  23
TORSDOF 8
ENDMDL
MODEL 9
REMARK VINA RESULT:      -5.0     11.447     13.880
REMARK  8 active torsions:
REMARK  status: ('A' for Active; 'I' for Inactive)
REMARK    1  A    between atoms: N_17  and  C_4 
REMARK    2  A    between atoms: N_17  and  C_5 
REMARK    3  A    between atoms: O_18  and  C_7 
REMARK    4  A    between atoms: C_8  and  N_14 
REMARK    5  A    between atoms: C_9  and  C_13 
REMARK    6  A    between atoms: C_10  and  N_15 
REMARK    7  A    between atoms: C_11  and  C_12 
REMARK       I    between atoms: N_17  and  C_12 
REMARK    8  A    between atoms: O_21  and  C_13 
ROOT
HETATM    1  C   UNK N   1      29.994  18.524   8.718  0.00  0.00     0.069 C 
HETATM    2  C   UNK N   1      28.609  18.987   8.268  0.00  0.00     0.102 C 
HETATM    3  C   UNK N   1      30.208  17.065   8.307  0.00  0.00     0.222 C 
HETATM    4  C   UNK N   1      28.418  18.679   6.763  0.00  0.00     0.143 C 
HETATM    5  C   UNK N   1      28.769  17.186   6.484  0.00  0.00     0.239 C 
HETATM    6  O   UNK N   1      30.109  16.958   6.896  0.00  0.00    -0.358 OA
ENDROOT
BRANCH   5   7
HETATM    7  C   UNK N   1      28.619  16.810   5.004  0.00  0.00     0.251 C 
HETATM    8  N   UNK N   1      27.826  15.763   4.607  0.00  0.00    -0.351 N 
HETATM    9  O   UNK N   1      29.211  17.468   4.161  0.00  0.00    -0.270 OA
BRANCH   8  10
HETATM   10  C   UNK N   1      27.161  14.917   5.569  0.00  0.00     0.121 C 
HETATM   11  C   UNK N   1      27.169  13.474   5.081  0.00  0.00     0.026 C 
ENDBRANCH   8  10
BRANCH   8  12
HETATM   12  C   UNK N   1      27.628  15.476   3.196  0.00  0.00     0.121 C 
HETATM   13  C   UNK N   1      26.327  16.069   2.681  0.00  0.00     0.026 C 
ENDBRANCH   8  12
ENDBRANCH   5   7
BRANCH   4  14
HETATM   14  N   UNK N   1      27.063  18.990   6.335  0.00  0.00    -0.365 N 
HETATM   15  C   UNK N   1      26.791  19.701   5.293  0.00  0.00     0.107 C 
HETATM   16  C   UNK N   1      25.371  19.968   4.937  0.00  0.00     0.097 C 
ATOM     17  HN  UNK N   1      26.287  18.628   6.889  1.00  0.00     0.161 HD
BRANCH  15  18
HETATM   18  O   UNK N   1      27.772  20.188   4.505  0.00  0.00    -0.350 OA
HETATM   19  H   UNK N   1      28.038  20.885   3.939  0.00  0.00     0.219 HD
ENDBRANCH  15  18
ENDBRANCH   4  14
BRANCH   2  20
HETATM   20  N   UNK N   1      27.592  18.313   9.063  0.00  0.00    -0.424 N 
HETATM   21  H   UNK N   1      27.002  17.633   9.544  0.00  0.00     0.150 HD
HETATM   22  H   UNK N   1      27.094  19.150   9.366  0.00  0.00     0.150 HD
ENDBRANCH   2  20
BRANCH   3  23
HETATM   23  C   UNK N   1      31.558  16.601   8.776  0.00  0.00     0.170 C 
HETATM   24  O   UNK N   1      32.577  17.027   8.257  0.00  0.00    -0.648 OA
BRANCH  23  25
HETATM   25  O   UNK N   1      31.646  15.688   9.763  0.00  0.00    -0.774 OA
HETATM   26  H   UNK N   1      32.407  15.147   9.848  0.00  0.00     0.167 HD
ENDBRANCH  23  25
ENDBRANCH   3  23
TORSDOF 8
ENDMDL
