MODEL 1
REMARK VINA RESULT:      -4.0      0.000      0.000
REMARK  5 active torsions:
REMARK  status: ('A' for Active; 'I' for Inactive)
REMARK    1  A    between atoms: N_1  and  C_2 
REMARK    2  A    between atoms: C_3  and  O_4 
REMARK    3  A    between atoms: O_4  and  P_5 
REMARK    4  A    between atoms: P_5  and  O_6 
REMARK    5  A    between atoms: P_5  and  O_7 
ROOT
HETATM    1  O   UNK N   1      34.707  16.518   8.845  0.00  0.00    -0.266 OA
ENDROOT
BRANCH   1   2
HETATM    2  C   UNK N   1      35.164  16.432  10.123  0.00  0.00     0.164 C 
HETATM    3  C   UNK N   1      36.072  15.533  10.505  0.00  0.00     0.105 C 
BRANCH   3   4
HETATM    4  N   UNK N   1      36.475  15.469  11.857  0.00  0.00    -0.406 N 
HETATM    5  H   UNK N   1      37.077  14.750  12.157  0.00  0.00     0.155 HD
HETATM    6  H   UNK N   1      36.153  16.141  12.499  0.00  0.00     0.155 HD
ENDBRANCH   3   4
ENDBRANCH   1   2
BRANCH   1   7
HETATM    7  P   UNK N   1      34.289  17.996   8.064  0.00  0.00     0.395 P 
HETATM    8  O   UNK N   1      34.481  17.784   6.539  0.00  0.00    -0.631 OA
BRANCH   7   9
HETATM    9  O   UNK N   1      35.326  19.301   8.551  0.00  0.00    -0.307 OA
HETATM   10  H   UNK N   1      35.905  19.352   9.328  0.00  0.00     0.222 HD
ENDBRANCH   7   9
BRANCH   7  11
HETATM   11  O   UNK N   1      32.617  18.381   8.324  0.00  0.00    -0.307 OA
HETATM   12  H   UNK N   1      32.094  18.779   7.610  0.00  0.00     0.222 HD
ENDBRANCH   7  11
ENDBRANCH   1   7
TORSDOF 5
ENDMDL
MODEL 2
REMARK VINA RESULT:      -3.9      0.210      1.694
REMARK  5 active torsions:
REMARK  status: ('A' for Active; 'I' for Inactive)
REMARK    1  A    between atoms: N_1  and  C_2 
REMARK    2  A    between atoms: C_3  and  O_4 
REMARK    3  A    between atoms: O_4  and  P_5 
REMARK    4  A    between atoms: P_5  and  O_6 
REMARK    5  A    between atoms: P_5  and  O_7 
ROOT
HETATM    1  O   UNK N   1      34.428  16.603   9.016  0.00  0.00    -0.266 OA
ENDROOT
BRANCH   1   2
HETATM    2  C   UNK N   1      35.195  16.547  10.138  0.00  0.00     0.164 C 
HETATM    3  C   UNK N   1      35.904  15.468  10.473  0.00  0.00     0.105 C 
BRANCH   3   4
HETATM    4  N   UNK N   1      36.649  15.459  11.673  0.00  0.00    -0.406 N 
HETATM    5  H   UNK N   1      37.632  15.484  11.643  0.00  0.00     0.155 HD
HETATM    6  H   UNK N   1      36.184  15.427  12.540  0.00  0.00     0.155 HD
ENDBRANCH   3   4
ENDBRANCH   1   2
BRANCH   1   7
HETATM    7  P   UNK N   1      34.252  18.007   8.034  0.00  0.00     0.395 P 
HETATM    8  O   UNK N   1      32.804  18.530   8.229  0.00  0.00    -0.631 OA
BRANCH   7   9
HETATM    9  O   UNK N   1      34.462  17.648   6.348  0.00  0.00    -0.307 OA
HETATM   10  H   UNK N   1      34.804  16.835   5.943  0.00  0.00     0.222 HD
ENDBRANCH   7   9
BRANCH   7  11
HETATM   11  O   UNK N   1      35.327  19.265   8.555  0.00  0.00    -0.307 OA
HETATM   12  H   UNK N   1      36.279  19.091   8.628  0.00  0.00     0.222 HD
ENDBRANCH   7  11
ENDBRANCH   1   7
TORSDOF 5
ENDMDL
MODEL 3
REMARK VINA RESULT:      -3.9      0.218      1.663
REMARK  5 active torsions:
REMARK  status: ('A' for Active; 'I' for Inactive)
REMARK    1  A    between atoms: N_1  and  C_2 
REMARK    2  A    between atoms: C_3  and  O_4 
REMARK    3  A    between atoms: O_4  and  P_5 
REMARK    4  A    between atoms: P_5  and  O_6 
REMARK    5  A    between atoms: P_5  and  O_7 
ROOT
HETATM    1  O   UNK N   1      34.788  16.546   8.708  0.00  0.00    -0.266 OA
ENDROOT
BRANCH   1   2
HETATM    2  C   UNK N   1      35.098  16.452  10.029  0.00  0.00     0.164 C 
HETATM    3  C   UNK N   1      36.051  15.641  10.490  0.00  0.00     0.105 C 
BRANCH   3   4
HETATM    4  N   UNK N   1      36.297  15.559  11.878  0.00  0.00    -0.406 N 
HETATM    5  H   UNK N   1      35.878  16.205  12.491  0.00  0.00     0.155 HD
HETATM    6  H   UNK N   1      36.887  14.855  12.232  0.00  0.00     0.155 HD
ENDBRANCH   3   4
ENDBRANCH   1   2
BRANCH   1   7
HETATM    7  P   UNK N   1      34.175  17.971   7.958  0.00  0.00     0.395 P 
HETATM    8  O   UNK N   1      35.064  19.157   8.420  0.00  0.00    -0.631 OA
BRANCH   7   9
HETATM    9  O   UNK N   1      32.544  18.311   8.447  0.00  0.00    -0.307 OA
HETATM   10  H   UNK N   1      31.729  18.221   7.928  0.00  0.00     0.222 HD
ENDBRANCH   7   9
BRANCH   7  11
HETATM   11  O   UNK N   1      34.313  17.868   6.231  0.00  0.00    -0.307 OA
HETATM   12  H   UNK N   1      33.971  17.091   5.762  0.00  0.00     0.222 HD
ENDBRANCH   7  11
ENDBRANCH   1   7
TORSDOF 5
ENDMDL
MODEL 4
REMARK VINA RESULT:      -3.8     15.726     16.475
REMARK  5 active torsions:
REMARK  status: ('A' for Active; 'I' for Inactive)
REMARK    1  A    between atoms: N_1  and  C_2 
REMARK    2  A    between atoms: C_3  and  O_4 
REMARK    3  A    between atoms: O_4  and  P_5 
REMARK    4  A    between atoms: P_5  and  O_6 
REMARK    5  A    between atoms: P_5  and  O_7 
ROOT
HETATM    1  O   UNK N   1      21.072  18.608   2.553  0.00  0.00    -0.266 OA
ENDROOT
BRANCH   1   2
HETATM    2  C   UNK N   1      20.084  17.840   2.021  0.00  0.00     0.164 C 
HETATM    3  C   UNK N   1      20.081  17.452   0.745  0.00  0.00     0.105 C 
BRANCH   3   4
HETATM    4  N   UNK N   1      19.004  16.688   0.242  0.00  0.00    -0.406 N 
HETATM    5  H   UNK N   1      18.948  15.726   0.441  0.00  0.00     0.155 HD
HETATM    6  H   UNK N   1      18.311  17.118  -0.307  0.00  0.00     0.155 HD
ENDBRANCH   3   4
ENDBRANCH   1   2
BRANCH   1   7
HETATM    7  P   UNK N   1      21.070  20.331   2.541  0.00  0.00     0.395 P 
HETATM    8  O   UNK N   1      20.232  20.802   3.760  0.00  0.00    -0.631 OA
BRANCH   7   9
HETATM    9  O   UNK N   1      20.323  20.967   1.109  0.00  0.00    -0.307 OA
HETATM   10  H   UNK N   1      20.749  21.259   0.286  0.00  0.00     0.222 HD
ENDBRANCH   7   9
BRANCH   7  11
HETATM   11  O   UNK N   1      22.676  20.953   2.751  0.00  0.00    -0.307 OA
HETATM   12  H   UNK N   1      22.808  21.858   3.073  0.00  0.00     0.222 HD
ENDBRANCH   7  11
ENDBRANCH   1   7
TORSDOF 5
ENDMDL
MODEL 5
REMARK VINA RESULT:      -3.8      2.240      2.857
REMARK  5 active torsions:
REMARK  status: ('A' for Active; 'I' for Inactive)
REMARK    1  A    between atoms: N_1  and  C_2 
REMARK    2  A    between atoms: C_3  and  O_4 
REMARK    3  A    between atoms: O_4  and  P_5 
REMARK    4  A    between atoms: P_5  and  O_6 
REMARK    5  A    between atoms: P_5  and  O_7 
ROOT
HETATM    1  O   UNK N   1      34.600  16.550   9.020  0.00  0.00    -0.266 OA
ENDROOT
BRANCH   1   2
HETATM    2  C   UNK N   1      33.655  15.636   9.366  0.00  0.00     0.164 C 
HETATM    3  C   UNK N   1      33.437  14.524   8.664  0.00  0.00     0.105 C 
BRANCH   3   4
HETATM    4  N   UNK N   1      32.411  13.633   9.052  0.00  0.00    -0.406 N 
HETATM    5  H   UNK N   1      32.337  12.751   8.623  0.00  0.00     0.155 HD
HETATM    6  H   UNK N   1      31.771  13.896   9.752  0.00  0.00     0.155 HD
ENDBRANCH   3   4
ENDBRANCH   1   2
BRANCH   1   7
HETATM    7  P   UNK N   1      34.291  17.943   8.055  0.00  0.00     0.395 P 
HETATM    8  O   UNK N   1      32.819  18.365   8.309  0.00  0.00    -0.631 OA
BRANCH   7   9
HETATM    9  O   UNK N   1      34.459  17.607   6.360  0.00  0.00    -0.307 OA
HETATM   10  H   UNK N   1      34.314  16.767   5.895  0.00  0.00     0.222 HD
ENDBRANCH   7   9
BRANCH   7  11
HETATM   11  O   UNK N   1      35.297  19.270   8.543  0.00  0.00    -0.307 OA
HETATM   12  H   UNK N   1      35.514  19.973   7.911  0.00  0.00     0.222 HD
ENDBRANCH   7  11
ENDBRANCH   1   7
TORSDOF 5
ENDMDL
MODEL 6
REMARK VINA RESULT:      -3.7      4.388      4.871
REMARK  5 active torsions:
REMARK  status: ('A' for Active; 'I' for Inactive)
REMARK    1  A    between atoms: N_1  and  C_2 
REMARK    2  A    between atoms: C_3  and  O_4 
REMARK    3  A    between atoms: O_4  and  P_5 
REMARK    4  A    between atoms: P_5  and  O_6 
REMARK    5  A    between atoms: P_5  and  O_7 
ROOT
HETATM    1  O   UNK N   1      34.279  17.936   6.228  0.00  0.00    -0.266 OA
ENDROOT
BRANCH   1   2
HETATM    2  C   UNK N   1      33.437  17.165   5.487  0.00  0.00     0.164 C 
HETATM    3  C   UNK N   1      32.819  17.618   4.396  0.00  0.00     0.105 C 
BRANCH   3   4
HETATM    4  N   UNK N   1      31.924  16.781   3.694  0.00  0.00    -0.406 N 
HETATM    5  H   UNK N   1      30.988  16.705   3.988  0.00  0.00     0.155 HD
HETATM    6  H   UNK N   1      32.236  16.273   2.911  0.00  0.00     0.155 HD
ENDBRANCH   3   4
ENDBRANCH   1   2
BRANCH   1   7
HETATM    7  P   UNK N   1      34.259  18.011   7.949  0.00  0.00     0.395 P 
HETATM    8  O   UNK N   1      32.808  18.352   8.381  0.00  0.00    -0.631 OA
BRANCH   7   9
HETATM    9  O   UNK N   1      35.299  19.262   8.555  0.00  0.00    -0.307 OA
HETATM   10  H   UNK N   1      35.130  19.889   9.275  0.00  0.00     0.222 HD
ENDBRANCH   7   9
BRANCH   7  11
HETATM   11  O   UNK N   1      34.651  16.468   8.640  0.00  0.00    -0.307 OA
HETATM   12  H   UNK N   1      33.951  15.912   9.016  0.00  0.00     0.222 HD
ENDBRANCH   7  11
ENDBRANCH   1   7
TORSDOF 5
ENDMDL
MODEL 7
REMARK VINA RESULT:      -3.6      3.247      3.761
REMARK  5 active torsions:
REMARK  status: ('A' for Active; 'I' for Inactive)
REMARK    1  A    between atoms: N_1  and  C_2 
REMARK    2  A    between atoms: C_3  and  O_4 
REMARK    3  A    between atoms: O_4  and  P_5 
REMARK    4  A    between atoms: P_5  and  O_6 
REMARK    5  A    between atoms: P_5  and  O_7 
ROOT
HETATM    1  O   UNK N   1      34.841  14.770  12.060  0.00  0.00    -0.266 OA
ENDROOT
BRANCH   1   2
HETATM    2  C   UNK N   1      35.594  13.940  12.832  0.00  0.00     0.164 C 
HETATM    3  C   UNK N   1      36.322  14.377  13.860  0.00  0.00     0.105 C 
BRANCH   3   4
HETATM    4  N   UNK N   1      37.116  13.470  14.598  0.00  0.00    -0.406 N 
HETATM    5  H   UNK N   1      36.694  12.861  15.246  0.00  0.00     0.155 HD
HETATM    6  H   UNK N   1      38.090  13.447  14.463  0.00  0.00     0.155 HD
ENDBRANCH   3   4
ENDBRANCH   1   2
BRANCH   1   7
HETATM    7  P   UNK N   1      35.440  15.625  10.691  0.00  0.00     0.395 P 
HETATM    8  O   UNK N   1      35.287  14.694   9.459  0.00  0.00    -0.631 OA
BRANCH   7   9
HETATM    9  O   UNK N   1      37.125  16.012  10.855  0.00  0.00    -0.307 OA
HETATM   10  H   UNK N   1      37.550  16.584  11.514  0.00  0.00     0.222 HD
ENDBRANCH   7   9
BRANCH   7  11
HETATM   11  O   UNK N   1      34.490  17.044  10.383  0.00  0.00    -0.307 OA
HETATM   12  H   UNK N   1      34.920  17.911  10.311  0.00  0.00     0.222 HD
ENDBRANCH   7  11
ENDBRANCH   1   7
TORSDOF 5
ENDMDL
MODEL 8
REMARK VINA RESULT:      -3.6      3.906      4.380
REMARK  5 active torsions:
REMARK  status: ('A' for Active; 'I' for Inactive)
REMARK    1  A    between atoms: N_1  and  C_2 
REMARK    2  A    between atoms: C_3  and  O_4 
REMARK    3  A    between atoms: O_4  and  P_5 
REMARK    4  A    between atoms: P_5  and  O_6 
REMARK    5  A    between atoms: P_5  and  O_7 
ROOT
HETATM    1  O   UNK N   1      32.654  18.137   8.577  0.00  0.00    -0.266 OA
ENDROOT
BRANCH   1   2
HETATM    2  C   UNK N   1      31.565  17.575   7.989  0.00  0.00     0.164 C 
HETATM    3  C   UNK N   1      30.319  17.818   8.398  0.00  0.00     0.105 C 
BRANCH   3   4
HETATM    4  N   UNK N   1      29.231  17.170   7.771  0.00  0.00    -0.406 N 
HETATM    5  H   UNK N   1      28.321  17.531   7.869  0.00  0.00     0.155 HD
HETATM    6  H   UNK N   1      29.384  16.359   7.236  0.00  0.00     0.155 HD
ENDBRANCH   3   4
ENDBRANCH   1   2
BRANCH   1   7
HETATM    7  P   UNK N   1      34.267  17.958   7.998  0.00  0.00     0.395 P 
HETATM    8  O   UNK N   1      34.817  16.621   8.564  0.00  0.00    -0.631 OA
BRANCH   7   9
HETATM    9  O   UNK N   1      35.302  19.235   8.557  0.00  0.00    -0.307 OA
HETATM   10  H   UNK N   1      35.283  20.174   8.315  0.00  0.00     0.222 HD
ENDBRANCH   7   9
BRANCH   7  11
HETATM   11  O   UNK N   1      34.291  17.831   6.267  0.00  0.00    -0.307 OA
HETATM   12  H   UNK N   1      33.467  17.912   5.763  0.00  0.00     0.222 HD
ENDBRANCH   7  11
ENDBRANCH   1   7
TORSDOF 5
ENDMDL
MODEL 9
REMARK VINA RESULT:      -3.5     13.472     14.294
REMARK  5 active torsions:
REMARK  status: ('A' for Active; 'I' for Inactive)
REMARK    1  A    between atoms: N_1  and  C_2 
REMARK    2  A    between atoms: C_3  and  O_4 
REMARK    3  A    between atoms: O_4  and  P_5 
REMARK    4  A    between atoms: P_5  and  O_6 
REMARK    5  A    between atoms: P_5  and  O_7 
ROOT
HETATM    1  O   UNK N   1      22.814  21.197   2.769  0.00  0.00    -0.266 OA
ENDROOT
BRANCH   1   2
HETATM    2  C   UNK N   1      24.008  20.557   2.656  0.00  0.00     0.164 C 
HETATM    3  C   UNK N   1      24.739  20.202   3.714  0.00  0.00     0.105 C 
BRANCH   3   4
HETATM    4  N   UNK N   1      25.992  19.576   3.528  0.00  0.00    -0.406 N 
HETATM    5  H   UNK N   1      26.335  19.422   2.618  0.00  0.00     0.155 HD
HETATM    6  H   UNK N   1      26.521  19.293   4.307  0.00  0.00     0.155 HD
ENDBRANCH   3   4
ENDBRANCH   1   2
BRANCH   1   7
HETATM    7  P   UNK N   1      21.283  20.423   2.613  0.00  0.00     0.395 P 
HETATM    8  O   UNK N   1      21.491  18.917   2.929  0.00  0.00    -0.631 OA
BRANCH   7   9
HETATM    9  O   UNK N   1      20.659  20.542   0.997  0.00  0.00    -0.307 OA
HETATM   10  H   UNK N   1      20.539  21.339   0.455  0.00  0.00     0.222 HD
ENDBRANCH   7   9
BRANCH   7  11
HETATM   11  O   UNK N   1      20.155  21.041   3.778  0.00  0.00    -0.307 OA
HETATM   12  H   UNK N   1      19.211  20.835   3.696  0.00  0.00     0.222 HD
ENDBRANCH   7  11
ENDBRANCH   1   7
TORSDOF 5
ENDMDL
