MODEL 1
REMARK VINA RESULT:      -3.1      0.000      0.000
REMARK  3 active torsions:
REMARK  status: ('A' for Active; 'I' for Inactive)
REMARK    1  A    between atoms: C_2  and  Se_3 
REMARK    2  A    between atoms: Se_3  and  C_4 
REMARK    3  A    between atoms: C_4  and  N_5 
ROOT
HETATM    1  C   UNK N   1      44.061  22.483   3.912  0.00  0.00     0.136 C 
HETATM    2  N   UNK N   1      43.577  23.663   4.035  0.00  0.00    -0.383 N 
ATOM      3  HN  UNK N   1      44.184  24.438   4.306  1.00  0.00     0.157 HD
HETATM    4  H   UNK N   1      42.621  23.824   3.867  0.00  0.00     0.157 HD
ENDROOT
BRANCH   1   5
HETATM    5 Se   UNK N   1      42.939  20.997   3.400  0.00  0.00     0.000 Se
BRANCH   5   6
HETATM    6  C   UNK N   1      41.714  22.046   2.308  0.00  0.00    -0.005 C 
HETATM    7  C   UNK N   1      40.357  21.373   2.304  0.00  0.00     0.005 C 
ENDBRANCH   5   6
ENDBRANCH   1   5
BRANCH   1   8
HETATM    8  N   UNK N   1      45.433  22.261   4.154  0.00  0.00    -0.383 N 
HETATM    9  H   UNK N   1      46.107  22.849   3.744  0.00  0.00     0.157 HD
HETATM   10  H   UNK N   1      45.717  21.518   4.733  0.00  0.00     0.157 HD
ENDBRANCH   1   8
TORSDOF 3
ENDMDL
MODEL 2
REMARK VINA RESULT:      -3.1     22.679     23.535
REMARK  3 active torsions:
REMARK  status: ('A' for Active; 'I' for Inactive)
REMARK    1  A    between atoms: C_2  and  Se_3 
REMARK    2  A    between atoms: Se_3  and  C_4 
REMARK    3  A    between atoms: C_4  and  N_5 
ROOT
HETATM    1  C   UNK N   1      23.952  12.197  11.297  0.00  0.00     0.136 C 
HETATM    2  N   UNK N   1      23.573  12.129  12.519  0.00  0.00    -0.383 N 
ATOM      3  HN  UNK N   1      24.216  12.386  13.269  1.00  0.00     0.157 HD
HETATM    4  H   UNK N   1      22.661  11.828  12.736  0.00  0.00     0.157 HD
ENDROOT
BRANCH   1   5
HETATM    5 Se   UNK N   1      22.759  11.717   9.857  0.00  0.00     0.000 Se
BRANCH   5   6
HETATM    6  C   UNK N   1      21.185  12.580  10.614  0.00  0.00    -0.005 C 
HETATM    7  C   UNK N   1      20.900  13.851   9.840  0.00  0.00     0.005 C 
ENDBRANCH   5   6
ENDBRANCH   1   5
BRANCH   1   8
HETATM    8  N   UNK N   1      25.261  12.629  10.994  0.00  0.00    -0.383 N 
HETATM    9  H   UNK N   1      25.791  13.105  11.673  0.00  0.00     0.157 HD
HETATM   10  H   UNK N   1      25.644  12.453  10.105  0.00  0.00     0.157 HD
ENDBRANCH   1   8
TORSDOF 3
ENDMDL
MODEL 3
REMARK VINA RESULT:      -2.9     14.024     14.982
REMARK  3 active torsions:
REMARK  status: ('A' for Active; 'I' for Inactive)
REMARK    1  A    between atoms: C_2  and  Se_3 
REMARK    2  A    between atoms: Se_3  and  C_4 
REMARK    3  A    between atoms: C_4  and  N_5 
ROOT
HETATM    1  C   UNK N   1      29.093  18.256   9.105  0.00  0.00     0.136 C 
HETATM    2  N   UNK N   1      29.777  18.597  10.134  0.00  0.00    -0.383 N 
ATOM      3  HN  UNK N   1      29.315  19.035  10.932  1.00  0.00     0.157 HD
HETATM    4  H   UNK N   1      30.748  18.436  10.156  0.00  0.00     0.157 HD
ENDROOT
BRANCH   1   5
HETATM    5 Se   UNK N   1      29.937  17.425   7.580  0.00  0.00     0.000 Se
BRANCH   5   6
HETATM    6  C   UNK N   1      31.577  16.936   8.510  0.00  0.00    -0.005 C 
HETATM    7  C   UNK N   1      32.669  17.916   8.133  0.00  0.00     0.005 C 
ENDBRANCH   5   6
ENDBRANCH   1   5
BRANCH   1   8
HETATM    8  N   UNK N   1      27.702  18.490   9.082  0.00  0.00    -0.383 N 
HETATM    9  H   UNK N   1      27.309  19.179   9.665  0.00  0.00     0.157 HD
HETATM   10  H   UNK N   1      27.124  17.965   8.484  0.00  0.00     0.157 HD
ENDBRANCH   1   8
TORSDOF 3
ENDMDL
MODEL 4
REMARK VINA RESULT:      -2.9      2.107      2.527
REMARK  3 active torsions:
REMARK  status: ('A' for Active; 'I' for Inactive)
REMARK    1  A    between atoms: C_2  and  Se_3 
REMARK    2  A    between atoms: Se_3  and  C_4 
REMARK    3  A    between atoms: C_4  and  N_5 
ROOT
HETATM    1  C   UNK N   1      44.129  22.476   3.910  0.00  0.00     0.136 C 
HETATM    2  N   UNK N   1      43.597  23.638   4.015  0.00  0.00    -0.383 N 
ATOM      3  HN  UNK N   1      44.168  24.437   4.292  1.00  0.00     0.157 HD
HETATM    4  H   UNK N   1      42.638  23.759   3.829  0.00  0.00     0.157 HD
ENDROOT
BRANCH   1   5
HETATM    5 Se   UNK N   1      43.076  20.944   3.389  0.00  0.00     0.000 Se
BRANCH   5   6
HETATM    6  C   UNK N   1      44.548  19.972   2.561  0.00  0.00    -0.005 C 
HETATM    7  C   UNK N   1      44.513  18.531   3.030  0.00  0.00     0.005 C 
ENDBRANCH   5   6
ENDBRANCH   1   5
BRANCH   1   8
HETATM    8  N   UNK N   1      45.504  22.310   4.179  0.00  0.00    -0.383 N 
HETATM    9  H   UNK N   1      45.798  21.670   4.866  0.00  0.00     0.157 HD
HETATM   10  H   UNK N   1      46.170  22.835   3.679  0.00  0.00     0.157 HD
ENDBRANCH   1   8
TORSDOF 3
ENDMDL
MODEL 5
REMARK VINA RESULT:      -2.9      1.640      2.119
REMARK  3 active torsions:
REMARK  status: ('A' for Active; 'I' for Inactive)
REMARK    1  A    between atoms: C_2  and  Se_3 
REMARK    2  A    between atoms: Se_3  and  C_4 
REMARK    3  A    between atoms: C_4  and  N_5 
ROOT
HETATM    1  C   UNK N   1      44.439  22.520   3.565  0.00  0.00     0.136 C 
HETATM    2  N   UNK N   1      45.572  22.351   4.140  0.00  0.00    -0.383 N 
ATOM      3  HN  UNK N   1      45.877  22.999   4.867  1.00  0.00     0.157 HD
HETATM    4  H   UNK N   1      46.148  21.596   3.880  0.00  0.00     0.157 HD
ENDROOT
BRANCH   1   5
HETATM    5 Se   UNK N   1      43.832  21.313   2.186  0.00  0.00     0.000 Se
BRANCH   5   6
HETATM    6  C   UNK N   1      42.486  20.429   3.283  0.00  0.00    -0.005 C 
HETATM    7  C   UNK N   1      42.256  19.029   2.749  0.00  0.00     0.005 C 
ENDBRANCH   5   6
ENDBRANCH   1   5
BRANCH   1   8
HETATM    8  N   UNK N   1      43.618  23.605   3.943  0.00  0.00    -0.383 N 
HETATM    9  H   UNK N   1      43.790  24.502   3.578  0.00  0.00     0.157 HD
HETATM   10  H   UNK N   1      42.875  23.464   4.573  0.00  0.00     0.157 HD
ENDBRANCH   1   8
TORSDOF 3
ENDMDL
MODEL 6
REMARK VINA RESULT:      -2.9     21.332     22.144
REMARK  3 active torsions:
REMARK  status: ('A' for Active; 'I' for Inactive)
REMARK    1  A    between atoms: C_2  and  Se_3 
REMARK    2  A    between atoms: Se_3  and  C_4 
REMARK    3  A    between atoms: C_4  and  N_5 
ROOT
HETATM    1  C   UNK N   1      20.486  19.845   1.347  0.00  0.00     0.136 C 
HETATM    2  N   UNK N   1      20.286  18.638   0.967  0.00  0.00    -0.383 N 
ATOM      3  HN  UNK N   1      20.189  18.424  -0.026  1.00  0.00     0.157 HD
HETATM    4  H   UNK N   1      20.228  17.915   1.634  0.00  0.00     0.157 HD
ENDROOT
BRANCH   1   5
HETATM    5 Se   UNK N   1      20.675  20.283   3.218  0.00  0.00     0.000 Se
BRANCH   5   6
HETATM    6  C   UNK N   1      22.439  19.483   3.425  0.00  0.00    -0.005 C 
HETATM    7  C   UNK N   1      23.486  20.464   2.938  0.00  0.00     0.005 C 
ENDBRANCH   5   6
ENDBRANCH   1   5
BRANCH   1   8
HETATM    8  N   UNK N   1      20.569  20.875   0.385  0.00  0.00    -0.383 N 
HETATM    9  H   UNK N   1      19.943  21.634   0.421  0.00  0.00     0.157 HD
HETATM   10  H   UNK N   1      21.252  20.835  -0.322  0.00  0.00     0.157 HD
ENDBRANCH   1   8
TORSDOF 3
ENDMDL
MODEL 7
REMARK VINA RESULT:      -2.8     16.335     16.594
REMARK  3 active torsions:
REMARK  status: ('A' for Active; 'I' for Inactive)
REMARK    1  A    between atoms: C_2  and  Se_3 
REMARK    2  A    between atoms: Se_3  and  C_4 
REMARK    3  A    between atoms: C_4  and  N_5 
ROOT
HETATM    1  C   UNK N   1      36.752  13.913  14.649  0.00  0.00     0.136 C 
HETATM    2  N   UNK N   1      36.728  14.116  13.384  0.00  0.00    -0.383 N 
ATOM      3  HN  UNK N   1      37.095  14.987  13.000  1.00  0.00     0.157 HD
HETATM    4  H   UNK N   1      36.355  13.432  12.783  0.00  0.00     0.157 HD
ENDROOT
BRANCH   1   5
HETATM    5 Se   UNK N   1      36.064  12.276  15.408  0.00  0.00     0.000 Se
BRANCH   5   6
HETATM    6  C   UNK N   1      34.668  13.126  16.467  0.00  0.00    -0.005 C 
HETATM    7  C   UNK N   1      35.117  13.193  17.913  0.00  0.00     0.005 C 
ENDBRANCH   5   6
ENDBRANCH   1   5
BRANCH   1   8
HETATM    8  N   UNK N   1      37.288  14.899  15.505  0.00  0.00    -0.383 N 
HETATM    9  H   UNK N   1      36.690  15.434  16.075  0.00  0.00     0.157 HD
HETATM   10  H   UNK N   1      38.260  15.051  15.532  0.00  0.00     0.157 HD
ENDBRANCH   1   8
TORSDOF 3
ENDMDL
MODEL 8
REMARK VINA RESULT:      -2.7     22.344     23.038
REMARK  3 active torsions:
REMARK  status: ('A' for Active; 'I' for Inactive)
REMARK    1  A    between atoms: C_2  and  Se_3 
REMARK    2  A    between atoms: Se_3  and  C_4 
REMARK    3  A    between atoms: C_4  and  N_5 
ROOT
HETATM    1  C   UNK N   1      19.822  17.974   1.935  0.00  0.00     0.136 C 
HETATM    2  N   UNK N   1      18.719  18.502   2.316  0.00  0.00    -0.383 N 
ATOM      3  HN  UNK N   1      18.009  18.755   1.627  1.00  0.00     0.157 HD
HETATM    4  H   UNK N   1      18.555  18.663   3.273  0.00  0.00     0.157 HD
ENDROOT
BRANCH   1   5
HETATM    5 Se   UNK N   1      21.184  17.483   3.212  0.00  0.00     0.000 Se
BRANCH   5   6
HETATM    6  C   UNK N   1      21.444  19.280   3.917  0.00  0.00    -0.005 C 
HETATM    7  C   UNK N   1      21.939  20.180   2.803  0.00  0.00     0.005 C 
ENDBRANCH   5   6
ENDBRANCH   1   5
BRANCH   1   8
HETATM    8  N   UNK N   1      20.050  17.745   0.560  0.00  0.00    -0.383 N 
HETATM    9  H   UNK N   1      20.953  17.518   0.242  0.00  0.00     0.157 HD
HETATM   10  H   UNK N   1      19.306  17.813  -0.079  0.00  0.00     0.157 HD
ENDBRANCH   1   8
TORSDOF 3
ENDMDL
MODEL 9
REMARK VINA RESULT:      -2.7     10.943     11.374
REMARK  3 active torsions:
REMARK  status: ('A' for Active; 'I' for Inactive)
REMARK    1  A    between atoms: C_2  and  Se_3 
REMARK    2  A    between atoms: Se_3  and  C_4 
REMARK    3  A    between atoms: C_4  and  N_5 
ROOT
HETATM    1  C   UNK N   1      33.883  17.661   8.568  0.00  0.00     0.136 C 
HETATM    2  N   UNK N   1      34.716  18.619   8.397  0.00  0.00    -0.383 N 
ATOM      3  HN  UNK N   1      35.453  18.784   9.083  1.00  0.00     0.157 HD
HETATM    4  H   UNK N   1      34.645  19.198   7.603  0.00  0.00     0.157 HD
ENDROOT
BRANCH   1   5
HETATM    5 Se   UNK N   1      32.477  17.324   7.288  0.00  0.00     0.000 Se
BRANCH   5   6
HETATM    6  C   UNK N   1      33.638  17.313   5.724  0.00  0.00    -0.005 C 
HETATM    7  C   UNK N   1      32.804  17.587   4.489  0.00  0.00     0.005 C 
ENDBRANCH   5   6
ENDBRANCH   1   5
BRANCH   1   8
HETATM    8  N   UNK N   1      33.991  16.836   9.708  0.00  0.00    -0.383 N 
HETATM    9  H   UNK N   1      34.867  16.697  10.134  0.00  0.00     0.157 HD
HETATM   10  H   UNK N   1      33.190  16.401  10.078  0.00  0.00     0.157 HD
ENDBRANCH   1   8
TORSDOF 3
ENDMDL
