MODEL 1
REMARK VINA RESULT:      -8.1      0.000      0.000
REMARK  8 active torsions:
REMARK  status: ('A' for Active; 'I' for Inactive)
REMARK    1  A    between atoms: N_1  and  C_2 
REMARK    2  A    between atoms: C_2  and  C_5 
REMARK    3  A    between atoms: C_8  and  O_9 
REMARK    4  A    between atoms: C_10  and  C_11 
REMARK    5  A    between atoms: C_11  and  N_12 
REMARK    6  A    between atoms: C_15  and  N_16 
REMARK    7  A    between atoms: N_16  and  S_17 
REMARK    8  A    between atoms: S_17  and  C_20 
ROOT
HETATM    1  N   UNK N   1      29.660  16.935   7.165  0.00  0.00    -0.346 N 
HETATM    2  C   UNK N   1      29.086  17.754   8.194  0.00  0.00     0.129 A 
HETATM    3  C   UNK N   1      30.272  18.122   9.110  0.00  0.00     0.055 A 
HETATM    4  C   UNK N   1      31.530  17.504   8.471  0.00  0.00     0.186 A 
HETATM    5  C   UNK N   1      30.985  16.810   7.284  0.00  0.00     0.243 A 
HETATM    6  O   UNK N   1      31.663  16.149   6.509  0.00  0.00    -0.271 OA
ENDROOT
BRANCH   1   7
HETATM    7  C   UNK N   1      28.845  16.295   6.158  0.00  0.00     0.167 C 
BRANCH   7   8
HETATM    8  C   UNK N   1      27.944  17.271   5.440  0.00  0.00    -0.006 A 
HETATM    9  C   UNK N   1      28.453  18.270   4.578  0.00  0.00     0.073 A 
HETATM   10  C   UNK N   1      27.581  19.119   3.900  0.00  0.00     0.038 A 
HETATM   11  C   UNK N   1      26.203  18.974   4.043  0.00  0.00     0.018 A 
HETATM   12  C   UNK N   1      25.679  17.982   4.878  0.00  0.00     0.008 A 
HETATM   13  C   UNK N   1      26.556  17.136   5.580  0.00  0.00     0.026 A 
BRANCH   9  14
HETATM   14  O   UNK N   1      29.774  18.420   4.391  0.00  0.00    -0.360 OA
HETATM   15  H   UNK N   1      30.310  18.836   5.037  0.00  0.00     0.217 HD
ENDBRANCH   9  14
BRANCH  12  16
HETATM   16  C   UNK N   1      24.213  17.816   4.980  0.00  0.00     0.102 C 
HETATM   17  N   UNK N   1      23.712  16.883   5.705  0.00  0.00    -0.385 N 
HETATM   18  H   UNK N   1      22.833  16.485   5.513  0.00  0.00     0.157 HD
ATOM     19  HN  UNK N   1      24.243  16.543   6.507  1.00  0.00     0.157 HD
BRANCH  16  20
HETATM   20  N   UNK N   1      23.351  18.654   4.235  0.00  0.00    -0.385 N 
HETATM   21  H   UNK N   1      22.368  18.611   4.263  0.00  0.00     0.157 HD
HETATM   22  H   UNK N   1      23.763  19.328   3.647  0.00  0.00     0.157 HD
ENDBRANCH  16  20
ENDBRANCH  12  16
ENDBRANCH   7   8
ENDBRANCH   1   7
BRANCH   4  23
HETATM   23  N   UNK N   1      32.562  18.505   8.174  0.00  0.00    -0.301 N 
HETATM   24  H   UNK N   1      32.330  19.479   7.978  0.00  0.00     0.173 HD
BRANCH  23  25
HETATM   25  S   UNK N   1      34.246  17.914   8.173  0.00  0.00     0.266 S 
HETATM   26  O   UNK N   1      34.655  17.579   6.732  0.00  0.00    -0.200 OA
HETATM   27  O   UNK N   1      35.089  19.173   8.427  0.00  0.00    -0.200 OA
BRANCH  25  28
HETATM   28  C   UNK N   1      34.690  16.621   9.311  0.00  0.00     0.123 A 
HETATM   29  C   UNK N   1      35.404  16.791  10.506  0.00  0.00     0.063 A 
HETATM   30  C   UNK N   1      35.528  15.566  11.213  0.00  0.00     0.051 A 
HETATM   31  C   UNK N   1      34.928  14.478  10.590  0.00  0.00     0.033 A 
HETATM   32  N   UNK N   1      36.158  15.419  12.406  0.00  0.00    -0.365 N 
HETATM   33  S   UNK N   1      34.254  15.017   9.185  0.00  0.00    -0.074 SA
HETATM   34  C   UNK N   1      34.946  13.213  11.156  0.00  0.00     0.022 A 
HETATM   35  C   UNK N   1      35.599  13.070  12.391  0.00  0.00     0.018 A 
HETATM   36  C   UNK N   1      36.202  14.191  13.003  0.00  0.00     0.088 A 
ATOM     37  HN  UNK N   1      36.596  16.223  12.855  1.00  0.00     0.165 HD
ENDBRANCH  25  28
ENDBRANCH  23  25
ENDBRANCH   4  23
TORSDOF 8
ENDMDL
MODEL 2
REMARK VINA RESULT:      -7.8      2.764      3.851
REMARK  8 active torsions:
REMARK  status: ('A' for Active; 'I' for Inactive)
REMARK    1  A    between atoms: N_1  and  C_2 
REMARK    2  A    between atoms: C_2  and  C_5 
REMARK    3  A    between atoms: C_8  and  O_9 
REMARK    4  A    between atoms: C_10  and  C_11 
REMARK    5  A    between atoms: C_11  and  N_12 
REMARK    6  A    between atoms: C_15  and  N_16 
REMARK    7  A    between atoms: N_16  and  S_17 
REMARK    8  A    between atoms: S_17  and  C_20 
ROOT
HETATM    1  N   UNK N   1      32.303  16.177   7.476  0.00  0.00    -0.346 N 
HETATM    2  C   UNK N   1      33.074  17.268   6.951  0.00  0.00     0.129 A 
HETATM    3  C   UNK N   1      34.337  17.318   7.836  0.00  0.00     0.055 A 
HETATM    4  C   UNK N   1      34.227  16.143   8.827  0.00  0.00     0.186 A 
HETATM    5  C   UNK N   1      32.922  15.541   8.475  0.00  0.00     0.243 A 
HETATM    6  O   UNK N   1      32.431  14.586   9.061  0.00  0.00    -0.271 OA
ENDROOT
BRANCH   1   7
HETATM    7  C   UNK N   1      30.981  15.870   6.980  0.00  0.00     0.167 C 
BRANCH   7   8
HETATM    8  C   UNK N   1      29.987  16.971   7.269  0.00  0.00    -0.006 A 
HETATM    9  C   UNK N   1      29.699  17.395   8.587  0.00  0.00     0.073 A 
HETATM   10  C   UNK N   1      28.811  18.447   8.803  0.00  0.00     0.038 A 
HETATM   11  C   UNK N   1      28.221  19.104   7.726  0.00  0.00     0.018 A 
HETATM   12  C   UNK N   1      28.506  18.711   6.414  0.00  0.00     0.008 A 
HETATM   13  C   UNK N   1      29.387  17.637   6.192  0.00  0.00     0.026 A 
BRANCH   9  14
HETATM   14  O   UNK N   1      30.270  16.806   9.649  0.00  0.00    -0.360 OA
HETATM   15  H   UNK N   1      29.753  16.364  10.293  0.00  0.00     0.217 HD
ENDBRANCH   9  14
BRANCH  12  16
HETATM   16  C   UNK N   1      27.906  19.451   5.284  0.00  0.00     0.102 C 
HETATM   17  N   UNK N   1      28.222  19.163   4.075  0.00  0.00    -0.385 N 
HETATM   18  H   UNK N   1      28.182  19.828   3.351  0.00  0.00     0.157 HD
ATOM     19  HN  UNK N   1      28.524  18.214   3.858  1.00  0.00     0.157 HD
BRANCH  16  20
HETATM   20  N   UNK N   1      27.015  20.523   5.532  0.00  0.00    -0.385 N 
HETATM   21  H   UNK N   1      26.261  20.768   4.950  0.00  0.00     0.157 HD
HETATM   22  H   UNK N   1      27.161  21.061   6.344  0.00  0.00     0.157 HD
ENDBRANCH  16  20
ENDBRANCH  12  16
ENDBRANCH   7   8
ENDBRANCH   1   7
BRANCH   4  23
HETATM   23  N   UNK N   1      35.368  15.223   8.741  0.00  0.00    -0.301 N 
HETATM   24  H   UNK N   1      35.581  14.704   7.890  0.00  0.00     0.173 HD
BRANCH  23  25
HETATM   25  S   UNK N   1      36.357  15.066  10.219  0.00  0.00     0.266 S 
HETATM   26  O   UNK N   1      37.815  14.807   9.815  0.00  0.00    -0.200 OA
HETATM   27  O   UNK N   1      36.458  16.500  10.760  0.00  0.00    -0.200 OA
BRANCH  25  28
HETATM   28  C   UNK N   1      35.807  13.951  11.491  0.00  0.00     0.123 A 
HETATM   29  C   UNK N   1      35.833  14.205  12.870  0.00  0.00     0.063 A 
HETATM   30  C   UNK N   1      35.258  13.135  13.604  0.00  0.00     0.051 A 
HETATM   31  C   UNK N   1      34.795  12.083  12.822  0.00  0.00     0.033 A 
HETATM   32  N   UNK N   1      35.132  13.100  14.954  0.00  0.00    -0.365 N 
HETATM   33  S   UNK N   1      35.094  12.464  11.245  0.00  0.00    -0.074 SA
HETATM   34  C   UNK N   1      34.194  10.968  13.383  0.00  0.00     0.022 A 
HETATM   35  C   UNK N   1      34.067  10.940  14.780  0.00  0.00     0.018 A 
HETATM   36  C   UNK N   1      34.545  12.020  15.553  0.00  0.00     0.088 A 
ATOM     37  HN  UNK N   1      35.474  13.876  15.520  1.00  0.00     0.165 HD
ENDBRANCH  25  28
ENDBRANCH  23  25
ENDBRANCH   4  23
TORSDOF 8
ENDMDL
MODEL 3
REMARK VINA RESULT:      -7.8      1.767      1.951
REMARK  8 active torsions:
REMARK  status: ('A' for Active; 'I' for Inactive)
REMARK    1  A    between atoms: N_1  and  C_2 
REMARK    2  A    between atoms: C_2  and  C_5 
REMARK    3  A    between atoms: C_8  and  O_9 
REMARK    4  A    between atoms: C_10  and  C_11 
REMARK    5  A    between atoms: C_11  and  N_12 
REMARK    6  A    between atoms: C_15  and  N_16 
REMARK    7  A    between atoms: N_16  and  S_17 
REMARK    8  A    between atoms: S_17  and  C_20 
ROOT
HETATM    1  N   UNK N   1      29.636  16.851   7.184  0.00  0.00    -0.346 N 
HETATM    2  C   UNK N   1      29.170  17.280   8.471  0.00  0.00     0.129 A 
HETATM    3  C   UNK N   1      30.452  17.473   9.309  0.00  0.00     0.055 A 
HETATM    4  C   UNK N   1      31.639  17.183   8.371  0.00  0.00     0.186 A 
HETATM    5  C   UNK N   1      30.970  16.816   7.103  0.00  0.00     0.243 A 
HETATM    6  O   UNK N   1      31.567  16.472   6.091  0.00  0.00    -0.271 OA
ENDROOT
BRANCH   1   7
HETATM    7  C   UNK N   1      28.723  16.458   6.135  0.00  0.00     0.167 C 
BRANCH   7   8
HETATM    8  C   UNK N   1      27.994  17.638   5.536  0.00  0.00    -0.006 A 
HETATM    9  C   UNK N   1      27.488  17.616   4.215  0.00  0.00     0.073 A 
HETATM   10  C   UNK N   1      26.780  18.710   3.721  0.00  0.00     0.038 A 
HETATM   11  C   UNK N   1      26.544  19.820   4.529  0.00  0.00     0.018 A 
HETATM   12  C   UNK N   1      27.022  19.854   5.843  0.00  0.00     0.008 A 
HETATM   13  C   UNK N   1      27.754  18.761   6.339  0.00  0.00     0.026 A 
BRANCH   9  14
HETATM   14  O   UNK N   1      27.669  16.552   3.417  0.00  0.00    -0.360 OA
HETATM   15  H   UNK N   1      27.236  16.490   2.589  0.00  0.00     0.217 HD
ENDBRANCH   9  14
BRANCH  12  16
HETATM   16  C   UNK N   1      26.721  21.022   6.698  0.00  0.00     0.102 C 
HETATM   17  N   UNK N   1      27.144  22.190   6.377  0.00  0.00    -0.385 N 
HETATM   18  H   UNK N   1      27.321  22.885   7.050  0.00  0.00     0.157 HD
ATOM     19  HN  UNK N   1      27.303  22.404   5.393  1.00  0.00     0.157 HD
BRANCH  16  20
HETATM   20  N   UNK N   1      26.006  20.850   7.906  0.00  0.00    -0.385 N 
HETATM   21  H   UNK N   1      25.280  20.200   8.038  0.00  0.00     0.157 HD
HETATM   22  H   UNK N   1      26.252  21.422   8.669  0.00  0.00     0.157 HD
ENDBRANCH  16  20
ENDBRANCH  12  16
ENDBRANCH   7   8
ENDBRANCH   1   7
BRANCH   4  23
HETATM   23  N   UNK N   1      32.567  18.316   8.267  0.00  0.00    -0.301 N 
HETATM   24  H   UNK N   1      32.241  19.283   8.264  0.00  0.00     0.173 HD
BRANCH  23  25
HETATM   25  S   UNK N   1      34.298  17.899   8.142  0.00  0.00     0.266 S 
HETATM   26  O   UNK N   1      34.652  17.683   6.664  0.00  0.00    -0.200 OA
HETATM   27  O   UNK N   1      35.026  19.222   8.423  0.00  0.00    -0.200 OA
BRANCH  25  28
HETATM   28  C   UNK N   1      34.932  16.600   9.178  0.00  0.00     0.123 A 
HETATM   29  C   UNK N   1      35.304  16.734  10.524  0.00  0.00     0.063 A 
HETATM   30  C   UNK N   1      35.704  15.488  11.076  0.00  0.00     0.051 A 
HETATM   31  C   UNK N   1      35.642  14.419  10.190  0.00  0.00     0.033 A 
HETATM   32  N   UNK N   1      36.106  15.302  12.358  0.00  0.00    -0.365 N 
HETATM   33  S   UNK N   1      35.104  15.000   8.743  0.00  0.00    -0.074 SA
HETATM   34  C   UNK N   1      35.984  13.133  10.576  0.00  0.00     0.022 A 
HETATM   35  C   UNK N   1      36.399  12.948  11.904  0.00  0.00     0.018 A 
HETATM   36  C   UNK N   1      36.454  14.051  12.785  0.00  0.00     0.088 A 
ATOM     37  HN  UNK N   1      36.148  16.092  13.001  1.00  0.00     0.165 HD
ENDBRANCH  25  28
ENDBRANCH  23  25
ENDBRANCH   4  23
TORSDOF 8
ENDMDL
MODEL 4
REMARK VINA RESULT:      -7.8      5.629     12.037
REMARK  8 active torsions:
REMARK  status: ('A' for Active; 'I' for Inactive)
REMARK    1  A    between atoms: N_1  and  C_2 
REMARK    2  A    between atoms: C_2  and  C_5 
REMARK    3  A    between atoms: C_8  and  O_9 
REMARK    4  A    between atoms: C_10  and  C_11 
REMARK    5  A    between atoms: C_11  and  N_12 
REMARK    6  A    between atoms: C_15  and  N_16 
REMARK    7  A    between atoms: N_16  and  S_17 
REMARK    8  A    between atoms: S_17  and  C_20 
ROOT
HETATM    1  N   UNK N   1      26.499  18.730   4.106  0.00  0.00    -0.346 N 
HETATM    2  C   UNK N   1      26.093  17.421   3.678  0.00  0.00     0.129 A 
HETATM    3  C   UNK N   1      24.575  17.372   3.956  0.00  0.00     0.055 A 
HETATM    4  C   UNK N   1      24.181  18.759   4.497  0.00  0.00     0.186 A 
HETATM    5  C   UNK N   1      25.474  19.476   4.529  0.00  0.00     0.243 A 
HETATM    6  O   UNK N   1      25.610  20.621   4.939  0.00  0.00    -0.271 OA
ENDROOT
BRANCH   1   7
HETATM    7  C   UNK N   1      27.887  19.133   4.109  0.00  0.00     0.167 C 
BRANCH   7   8
HETATM    8  C   UNK N   1      28.697  18.401   5.153  0.00  0.00    -0.006 A 
HETATM    9  C   UNK N   1      29.788  17.569   4.811  0.00  0.00     0.073 A 
HETATM   10  C   UNK N   1      30.536  16.951   5.811  0.00  0.00     0.038 A 
HETATM   11  C   UNK N   1      30.233  17.168   7.153  0.00  0.00     0.018 A 
HETATM   12  C   UNK N   1      29.168  18.000   7.513  0.00  0.00     0.008 A 
HETATM   13  C   UNK N   1      28.398  18.610   6.507  0.00  0.00     0.026 A 
BRANCH   9  14
HETATM   14  O   UNK N   1      30.129  17.361   3.529  0.00  0.00    -0.360 OA
HETATM   15  H   UNK N   1      30.058  18.045   2.893  0.00  0.00     0.217 HD
ENDBRANCH   9  14
BRANCH  12  16
HETATM   16  C   UNK N   1      28.892  18.253   8.943  0.00  0.00     0.102 C 
HETATM   17  N   UNK N   1      27.690  18.217   9.391  0.00  0.00    -0.385 N 
HETATM   18  H   UNK N   1      27.409  18.736  10.178  0.00  0.00     0.157 HD
ATOM     19  HN  UNK N   1      27.004  17.632   8.915  1.00  0.00     0.157 HD
BRANCH  16  20
HETATM   20  N   UNK N   1      29.950  18.589   9.821  0.00  0.00    -0.385 N 
HETATM   21  H   UNK N   1      30.074  18.206  10.718  0.00  0.00     0.157 HD
HETATM   22  H   UNK N   1      30.607  19.254   9.512  0.00  0.00     0.157 HD
ENDBRANCH  16  20
ENDBRANCH  12  16
ENDBRANCH   7   8
ENDBRANCH   1   7
BRANCH   4  23
HETATM   23  N   UNK N   1      23.142  19.407   3.687  0.00  0.00    -0.301 N 
HETATM   24  H   UNK N   1      23.368  20.084   2.959  0.00  0.00     0.173 HD
BRANCH  23  25
HETATM   25  S   UNK N   1      21.459  18.940   4.057  0.00  0.00     0.266 S 
HETATM   26  O   UNK N   1      21.347  18.628   5.555  0.00  0.00    -0.200 OA
HETATM   27  O   UNK N   1      20.674  20.258   3.976  0.00  0.00    -0.200 OA
BRANCH  25  28
HETATM   28  C   UNK N   1      20.688  17.688   3.054  0.00  0.00     0.123 A 
HETATM   29  C   UNK N   1      19.949  17.916   1.885  0.00  0.00     0.063 A 
HETATM   30  C   UNK N   1      19.532  16.696   1.290  0.00  0.00     0.051 A 
HETATM   31  C   UNK N   1      19.936  15.555   1.973  0.00  0.00     0.033 A 
HETATM   32  N   UNK N   1      18.811  16.598   0.145  0.00  0.00    -0.365 N 
HETATM   33  S   UNK N   1      20.795  16.042   3.295  0.00  0.00    -0.074 SA
HETATM   34  C   UNK N   1      19.624  14.284   1.518  0.00  0.00     0.022 A 
HETATM   35  C   UNK N   1      18.878  14.191   0.332  0.00  0.00     0.018 A 
HETATM   36  C   UNK N   1      18.479  15.365  -0.343  0.00  0.00     0.088 A 
ATOM     37  HN  UNK N   1      18.519  17.440  -0.349  1.00  0.00     0.165 HD
ENDBRANCH  25  28
ENDBRANCH  23  25
ENDBRANCH   4  23
TORSDOF 8
ENDMDL
MODEL 5
REMARK VINA RESULT:      -7.8      3.639      5.930
REMARK  8 active torsions:
REMARK  status: ('A' for Active; 'I' for Inactive)
REMARK    1  A    between atoms: N_1  and  C_2 
REMARK    2  A    between atoms: C_2  and  C_5 
REMARK    3  A    between atoms: C_8  and  O_9 
REMARK    4  A    between atoms: C_10  and  C_11 
REMARK    5  A    between atoms: C_11  and  N_12 
REMARK    6  A    between atoms: C_15  and  N_16 
REMARK    7  A    between atoms: N_16  and  S_17 
REMARK    8  A    between atoms: S_17  and  C_20 
ROOT
HETATM    1  N   UNK N   1      34.609  16.358   8.693  0.00  0.00    -0.346 N 
HETATM    2  C   UNK N   1      34.583  15.113   7.980  0.00  0.00     0.129 A 
HETATM    3  C   UNK N   1      35.277  14.106   8.922  0.00  0.00     0.055 A 
HETATM    4  C   UNK N   1      35.620  14.874  10.212  0.00  0.00     0.186 A 
HETATM    5  C   UNK N   1      35.144  16.243   9.913  0.00  0.00     0.243 A 
HETATM    6  O   UNK N   1      35.263  17.189  10.680  0.00  0.00    -0.271 OA
ENDROOT
BRANCH   1   7
HETATM    7  C   UNK N   1      34.144  17.588   8.096  0.00  0.00     0.167 C 
BRANCH   7   8
HETATM    8  C   UNK N   1      32.710  17.496   7.630  0.00  0.00    -0.006 A 
HETATM    9  C   UNK N   1      32.372  17.277   6.274  0.00  0.00     0.073 A 
HETATM   10  C   UNK N   1      31.037  17.151   5.898  0.00  0.00     0.038 A 
HETATM   11  C   UNK N   1      30.027  17.212   6.856  0.00  0.00     0.018 A 
HETATM   12  C   UNK N   1      30.341  17.412   8.204  0.00  0.00     0.008 A 
HETATM   13  C   UNK N   1      31.686  17.559   8.585  0.00  0.00     0.026 A 
BRANCH   9  14
HETATM   14  O   UNK N   1      33.320  17.181   5.328  0.00  0.00    -0.360 OA
HETATM   15  H   UNK N   1      33.978  17.841   5.234  0.00  0.00     0.217 HD
ENDBRANCH   9  14
BRANCH  12  16
HETATM   16  C   UNK N   1      29.256  17.428   9.210  0.00  0.00     0.102 C 
HETATM   17  N   UNK N   1      29.517  17.238  10.451  0.00  0.00    -0.385 N 
HETATM   18  H   UNK N   1      28.856  16.857  11.073  0.00  0.00     0.157 HD
ATOM     19  HN  UNK N   1      30.440  17.491  10.806  1.00  0.00     0.157 HD
BRANCH  16  20
HETATM   20  N   UNK N   1      27.913  17.602   8.801  0.00  0.00    -0.385 N 
HETATM   21  H   UNK N   1      27.449  18.468   8.761  0.00  0.00     0.157 HD
HETATM   22  H   UNK N   1      27.407  16.798   8.539  0.00  0.00     0.157 HD
ENDBRANCH  16  20
ENDBRANCH  12  16
ENDBRANCH   7   8
ENDBRANCH   1   7
BRANCH   4  23
HETATM   23  N   UNK N   1      35.020  14.266  11.407  0.00  0.00    -0.301 N 
HETATM   24  H   UNK N   1      34.155  14.619  11.817  0.00  0.00     0.173 HD
BRANCH  23  25
HETATM   25  S   UNK N   1      35.898  12.875  12.099  0.00  0.00     0.266 S 
HETATM   26  O   UNK N   1      35.552  11.617  11.291  0.00  0.00    -0.200 OA
HETATM   27  O   UNK N   1      37.357  13.099  11.675  0.00  0.00    -0.200 OA
BRANCH  25  28
HETATM   28  C   UNK N   1      35.789  12.593  13.853  0.00  0.00     0.123 A 
HETATM   29  C   UNK N   1      35.647  13.585  14.834  0.00  0.00     0.063 A 
HETATM   30  C   UNK N   1      35.521  13.016  16.129  0.00  0.00     0.051 A 
HETATM   31  C   UNK N   1      35.561  11.628  16.155  0.00  0.00     0.033 A 
HETATM   32  N   UNK N   1      35.359  13.725  17.274  0.00  0.00    -0.365 N 
HETATM   33  S   UNK N   1      35.751  11.104  14.602  0.00  0.00    -0.074 SA
HETATM   34  C   UNK N   1      35.438  10.917  17.338  0.00  0.00     0.022 A 
HETATM   35  C   UNK N   1      35.270  11.657  18.518  0.00  0.00     0.018 A 
HETATM   36  C   UNK N   1      35.233  13.068  18.466  0.00  0.00     0.088 A 
ATOM     37  HN  UNK N   1      35.332  14.744  17.246  1.00  0.00     0.165 HD
ENDBRANCH  25  28
ENDBRANCH  23  25
ENDBRANCH   4  23
TORSDOF 8
ENDMDL
MODEL 6
REMARK VINA RESULT:      -7.8      2.695      4.132
REMARK  8 active torsions:
REMARK  status: ('A' for Active; 'I' for Inactive)
REMARK    1  A    between atoms: N_1  and  C_2 
REMARK    2  A    between atoms: C_2  and  C_5 
REMARK    3  A    between atoms: C_8  and  O_9 
REMARK    4  A    between atoms: C_10  and  C_11 
REMARK    5  A    between atoms: C_11  and  N_12 
REMARK    6  A    between atoms: C_15  and  N_16 
REMARK    7  A    between atoms: N_16  and  S_17 
REMARK    8  A    between atoms: S_17  and  C_20 
ROOT
HETATM    1  N   UNK N   1      33.068  16.226   6.208  0.00  0.00    -0.346 N 
HETATM    2  C   UNK N   1      32.745  14.842   6.411  0.00  0.00     0.129 A 
HETATM    3  C   UNK N   1      33.805  14.334   7.411  0.00  0.00     0.055 A 
HETATM    4  C   UNK N   1      34.677  15.548   7.783  0.00  0.00     0.186 A 
HETATM    5  C   UNK N   1      34.094  16.632   6.961  0.00  0.00     0.243 A 
HETATM    6  O   UNK N   1      34.528  17.776   6.933  0.00  0.00    -0.271 OA
ENDROOT
BRANCH   1   7
HETATM    7  C   UNK N   1      32.362  17.039   5.243  0.00  0.00     0.167 C 
BRANCH   7   8
HETATM    8  C   UNK N   1      30.925  17.282   5.637  0.00  0.00    -0.006 A 
HETATM    9  C   UNK N   1      29.873  17.267   4.691  0.00  0.00     0.073 A 
HETATM   10  C   UNK N   1      28.556  17.449   5.108  0.00  0.00     0.038 A 
HETATM   11  C   UNK N   1      28.262  17.621   6.458  0.00  0.00     0.018 A 
HETATM   12  C   UNK N   1      29.286  17.622   7.412  0.00  0.00     0.008 A 
HETATM   13  C   UNK N   1      30.618  17.458   6.994  0.00  0.00     0.026 A 
BRANCH   9  14
HETATM   14  O   UNK N   1      30.115  17.075   3.385  0.00  0.00    -0.360 OA
HETATM   15  H   UNK N   1      30.515  17.743   2.864  0.00  0.00     0.217 HD
ENDBRANCH   9  14
BRANCH  12  16
HETATM   16  C   UNK N   1      28.947  17.759   8.845  0.00  0.00     0.102 C 
HETATM   17  N   UNK N   1      27.834  18.286   9.203  0.00  0.00    -0.385 N 
HETATM   18  H   UNK N   1      27.727  18.749  10.065  0.00  0.00     0.157 HD
ATOM     19  HN  UNK N   1      27.034  18.225   8.573  1.00  0.00     0.157 HD
BRANCH  16  20
HETATM   20  N   UNK N   1      29.874  17.357   9.834  0.00  0.00    -0.385 N 
HETATM   21  H   UNK N   1      30.842  17.262   9.687  0.00  0.00     0.157 HD
HETATM   22  H   UNK N   1      29.526  17.156  10.734  0.00  0.00     0.157 HD
ENDBRANCH  16  20
ENDBRANCH  12  16
ENDBRANCH   7   8
ENDBRANCH   1   7
BRANCH   4  23
HETATM   23  N   UNK N   1      34.687  15.815   9.227  0.00  0.00    -0.301 N 
HETATM   24  H   UNK N   1      33.993  16.416   9.671  0.00  0.00     0.173 HD
BRANCH  23  25
HETATM   25  S   UNK N   1      35.990  15.025  10.157  0.00  0.00     0.266 S 
HETATM   26  O   UNK N   1      37.035  14.472   9.179  0.00  0.00    -0.200 OA
HETATM   27  O   UNK N   1      36.768  16.192  10.783  0.00  0.00    -0.200 OA
BRANCH  25  28
HETATM   28  C   UNK N   1      35.539  13.833  11.399  0.00  0.00     0.123 A 
HETATM   29  C   UNK N   1      35.574  14.041  12.785  0.00  0.00     0.063 A 
HETATM   30  C   UNK N   1      35.085  12.910  13.490  0.00  0.00     0.051 A 
HETATM   31  C   UNK N   1      34.679  11.857  12.680  0.00  0.00     0.033 A 
HETATM   32  N   UNK N   1      34.987  12.821  14.840  0.00  0.00    -0.365 N 
HETATM   33  S   UNK N   1      34.923  12.311  11.112  0.00  0.00    -0.074 SA
HETATM   34  C   UNK N   1      34.164  10.685  13.210  0.00  0.00     0.022 A 
HETATM   35  C   UNK N   1      34.066  10.601  14.608  0.00  0.00     0.018 A 
HETATM   36  C   UNK N   1      34.485  11.685  15.410  0.00  0.00     0.088 A 
ATOM     37  HN  UNK N   1      35.287  13.599  15.427  1.00  0.00     0.165 HD
ENDBRANCH  25  28
ENDBRANCH  23  25
ENDBRANCH   4  23
TORSDOF 8
ENDMDL
MODEL 7
REMARK VINA RESULT:      -7.7      5.576     10.510
REMARK  8 active torsions:
REMARK  status: ('A' for Active; 'I' for Inactive)
REMARK    1  A    between atoms: N_1  and  C_2 
REMARK    2  A    between atoms: C_2  and  C_5 
REMARK    3  A    between atoms: C_8  and  O_9 
REMARK    4  A    between atoms: C_10  and  C_11 
REMARK    5  A    between atoms: C_11  and  N_12 
REMARK    6  A    between atoms: C_15  and  N_16 
REMARK    7  A    between atoms: N_16  and  S_17 
REMARK    8  A    between atoms: S_17  and  C_20 
ROOT
HETATM    1  N   UNK N   1      26.513  18.691   4.054  0.00  0.00    -0.346 N 
HETATM    2  C   UNK N   1      26.118  17.368   3.661  0.00  0.00     0.129 A 
HETATM    3  C   UNK N   1      24.598  17.317   3.927  0.00  0.00     0.055 A 
HETATM    4  C   UNK N   1      24.191  18.717   4.425  0.00  0.00     0.186 A 
HETATM    5  C   UNK N   1      25.480  19.443   4.446  0.00  0.00     0.243 A 
HETATM    6  O   UNK N   1      25.605  20.600   4.824  0.00  0.00    -0.271 OA
ENDROOT
BRANCH   1   7
HETATM    7  C   UNK N   1      27.898  19.102   4.057  0.00  0.00     0.167 C 
BRANCH   7   8
HETATM    8  C   UNK N   1      28.708  18.388   5.112  0.00  0.00    -0.006 A 
HETATM    9  C   UNK N   1      29.825  17.583   4.786  0.00  0.00     0.073 A 
HETATM   10  C   UNK N   1      30.572  16.981   5.797  0.00  0.00     0.038 A 
HETATM   11  C   UNK N   1      30.241  17.187   7.134  0.00  0.00     0.018 A 
HETATM   12  C   UNK N   1      29.151  17.993   7.478  0.00  0.00     0.008 A 
HETATM   13  C   UNK N   1      28.383  18.586   6.461  0.00  0.00     0.026 A 
BRANCH   9  14
HETATM   14  O   UNK N   1      30.192  17.386   3.510  0.00  0.00    -0.360 OA
HETATM   15  H   UNK N   1      29.990  18.016   2.846  0.00  0.00     0.217 HD
ENDBRANCH   9  14
BRANCH  12  16
HETATM   16  C   UNK N   1      28.846  18.235   8.905  0.00  0.00     0.102 C 
HETATM   17  N   UNK N   1      27.630  18.302   9.308  0.00  0.00    -0.385 N 
HETATM   18  H   UNK N   1      27.369  18.825  10.099  0.00  0.00     0.157 HD
ATOM     19  HN  UNK N   1      26.911  17.795   8.792  1.00  0.00     0.157 HD
BRANCH  16  20
HETATM   20  N   UNK N   1      29.896  18.449   9.828  0.00  0.00    -0.385 N 
HETATM   21  H   UNK N   1      30.554  17.767  10.093  0.00  0.00     0.157 HD
HETATM   22  H   UNK N   1      29.974  19.342  10.235  0.00  0.00     0.157 HD
ENDBRANCH  16  20
ENDBRANCH  12  16
ENDBRANCH   7   8
ENDBRANCH   1   7
BRANCH   4  23
HETATM   23  N   UNK N   1      23.155  19.335   3.588  0.00  0.00    -0.301 N 
HETATM   24  H   UNK N   1      23.383  19.994   2.843  0.00  0.00     0.173 HD
BRANCH  23  25
HETATM   25  S   UNK N   1      21.472  18.866   3.954  0.00  0.00     0.266 S 
HETATM   26  O   UNK N   1      20.633  20.136   4.147  0.00  0.00    -0.200 OA
HETATM   27  O   UNK N   1      20.921  18.356   2.614  0.00  0.00    -0.200 OA
BRANCH  25  28
HETATM   28  C   UNK N   1      21.188  17.674   5.244  0.00  0.00     0.123 A 
HETATM   29  C   UNK N   1      21.221  16.280   5.093  0.00  0.00     0.063 A 
HETATM   30  C   UNK N   1      21.020  15.620   6.334  0.00  0.00     0.051 A 
HETATM   31  C   UNK N   1      20.839  16.472   7.417  0.00  0.00     0.033 A 
HETATM   32  N   UNK N   1      21.012  14.274   6.504  0.00  0.00    -0.365 N 
HETATM   33  S   UNK N   1      20.922  18.020   6.853  0.00  0.00    -0.074 SA
HETATM   34  C   UNK N   1      20.644  15.988   8.700  0.00  0.00     0.022 A 
HETATM   35  C   UNK N   1      20.637  14.595   8.868  0.00  0.00     0.018 A 
HETATM   36  C   UNK N   1      20.823  13.750   7.752  0.00  0.00     0.088 A 
ATOM     37  HN  UNK N   1      21.145  13.657   5.704  1.00  0.00     0.165 HD
ENDBRANCH  25  28
ENDBRANCH  23  25
ENDBRANCH   4  23
TORSDOF 8
ENDMDL
MODEL 8
REMARK VINA RESULT:      -7.7      4.010      6.385
REMARK  8 active torsions:
REMARK  status: ('A' for Active; 'I' for Inactive)
REMARK    1  A    between atoms: N_1  and  C_2 
REMARK    2  A    between atoms: C_2  and  C_5 
REMARK    3  A    between atoms: C_8  and  O_9 
REMARK    4  A    between atoms: C_10  and  C_11 
REMARK    5  A    between atoms: C_11  and  N_12 
REMARK    6  A    between atoms: C_15  and  N_16 
REMARK    7  A    between atoms: N_16  and  S_17 
REMARK    8  A    between atoms: S_17  and  C_20 
ROOT
HETATM    1  N   UNK N   1      34.869  16.399   8.740  0.00  0.00    -0.346 N 
HETATM    2  C   UNK N   1      35.022  15.170   8.015  0.00  0.00     0.129 A 
HETATM    3  C   UNK N   1      35.684  14.201   9.019  0.00  0.00     0.055 A 
HETATM    4  C   UNK N   1      35.816  14.968  10.348  0.00  0.00     0.186 A 
HETATM    5  C   UNK N   1      35.270  16.301  10.011  0.00  0.00     0.243 A 
HETATM    6  O   UNK N   1      35.226  17.239  10.797  0.00  0.00    -0.271 OA
ENDROOT
BRANCH   1   7
HETATM    7  C   UNK N   1      34.378  17.601   8.106  0.00  0.00     0.167 C 
BRANCH   7   8
HETATM    8  C   UNK N   1      33.155  17.345   7.257  0.00  0.00    -0.006 A 
HETATM    9  C   UNK N   1      31.846  17.391   7.791  0.00  0.00     0.073 A 
HETATM   10  C   UNK N   1      30.746  17.195   6.959  0.00  0.00     0.038 A 
HETATM   11  C   UNK N   1      30.923  16.979   5.595  0.00  0.00     0.018 A 
HETATM   12  C   UNK N   1      32.209  16.947   5.044  0.00  0.00     0.008 A 
HETATM   13  C   UNK N   1      33.323  17.124   5.883  0.00  0.00     0.026 A 
BRANCH   9  14
HETATM   14  O   UNK N   1      31.634  17.626   9.095  0.00  0.00    -0.360 OA
HETATM   15  H   UNK N   1      30.777  17.555   9.466  0.00  0.00     0.217 HD
ENDBRANCH   9  14
BRANCH  12  16
HETATM   16  C   UNK N   1      32.373  16.762   3.586  0.00  0.00     0.102 C 
HETATM   17  N   UNK N   1      33.419  16.188   3.117  0.00  0.00    -0.385 N 
HETATM   18  H   UNK N   1      33.763  16.382   2.215  0.00  0.00     0.157 HD
ATOM     19  HN  UNK N   1      33.912  15.509   3.697  1.00  0.00     0.157 HD
BRANCH  16  20
HETATM   20  N   UNK N   1      31.398  17.266   2.694  0.00  0.00    -0.385 N 
HETATM   21  H   UNK N   1      30.435  17.073   2.752  0.00  0.00     0.157 HD
HETATM   22  H   UNK N   1      31.704  17.850   1.962  0.00  0.00     0.157 HD
ENDBRANCH  16  20
ENDBRANCH  12  16
ENDBRANCH   7   8
ENDBRANCH   1   7
BRANCH   4  23
HETATM   23  N   UNK N   1      35.136  14.292  11.460  0.00  0.00    -0.301 N 
HETATM   24  H   UNK N   1      34.230  14.605  11.810  0.00  0.00     0.173 HD
BRANCH  23  25
HETATM   25  S   UNK N   1      35.992  12.893  12.165  0.00  0.00     0.266 S 
HETATM   26  O   UNK N   1      35.635  11.636  11.361  0.00  0.00    -0.200 OA
HETATM   27  O   UNK N   1      37.456  13.097  11.748  0.00  0.00    -0.200 OA
BRANCH  25  28
HETATM   28  C   UNK N   1      35.870  12.622  13.919  0.00  0.00     0.123 A 
HETATM   29  C   UNK N   1      35.658  13.614  14.888  0.00  0.00     0.063 A 
HETATM   30  C   UNK N   1      35.542  13.051  16.186  0.00  0.00     0.051 A 
HETATM   31  C   UNK N   1      35.657  11.667  16.227  0.00  0.00     0.033 A 
HETATM   32  N   UNK N   1      35.323  13.760  17.322  0.00  0.00    -0.365 N 
HETATM   33  S   UNK N   1      35.901  11.141  14.682  0.00  0.00    -0.074 SA
HETATM   34  C   UNK N   1      35.553  10.961  17.415  0.00  0.00     0.022 A 
HETATM   35  C   UNK N   1      35.326  11.702  18.585  0.00  0.00     0.018 A 
HETATM   36  C   UNK N   1      35.213  13.108  18.518  0.00  0.00     0.088 A 
ATOM     37  HN  UNK N   1      35.240  14.775  17.283  1.00  0.00     0.165 HD
ENDBRANCH  25  28
ENDBRANCH  23  25
ENDBRANCH   4  23
TORSDOF 8
ENDMDL
MODEL 9
REMARK VINA RESULT:      -7.6      3.739     10.809
REMARK  8 active torsions:
REMARK  status: ('A' for Active; 'I' for Inactive)
REMARK    1  A    between atoms: N_1  and  C_2 
REMARK    2  A    between atoms: C_2  and  C_5 
REMARK    3  A    between atoms: C_8  and  O_9 
REMARK    4  A    between atoms: C_10  and  C_11 
REMARK    5  A    between atoms: C_11  and  N_12 
REMARK    6  A    between atoms: C_15  and  N_16 
REMARK    7  A    between atoms: N_16  and  S_17 
REMARK    8  A    between atoms: S_17  and  C_20 
ROOT
HETATM    1  N   UNK N   1      29.796  16.729   6.488  0.00  0.00    -0.346 N 
HETATM    2  C   UNK N   1      29.235  17.190   7.727  0.00  0.00     0.129 A 
HETATM    3  C   UNK N   1      28.262  18.318   7.321  0.00  0.00     0.055 A 
HETATM    4  C   UNK N   1      28.286  18.388   5.783  0.00  0.00     0.186 A 
HETATM    5  C   UNK N   1      29.276  17.349   5.424  0.00  0.00     0.243 A 
HETATM    6  O   UNK N   1      29.622  17.104   4.276  0.00  0.00    -0.271 OA
ENDROOT
BRANCH   1   7
HETATM    7  C   UNK N   1      30.845  15.737   6.450  0.00  0.00     0.167 C 
BRANCH   7   8
HETATM    8  C   UNK N   1      32.155  16.262   6.989  0.00  0.00    -0.006 A 
HETATM    9  C   UNK N   1      32.953  17.176   6.262  0.00  0.00     0.073 A 
HETATM   10  C   UNK N   1      34.131  17.671   6.819  0.00  0.00     0.038 A 
HETATM   11  C   UNK N   1      34.516  17.292   8.103  0.00  0.00     0.018 A 
HETATM   12  C   UNK N   1      33.732  16.402   8.844  0.00  0.00     0.008 A 
HETATM   13  C   UNK N   1      32.553  15.885   8.278  0.00  0.00     0.026 A 
BRANCH   9  14
HETATM   14  O   UNK N   1      32.599  17.588   5.035  0.00  0.00    -0.360 OA
HETATM   15  H   UNK N   1      31.830  17.254   4.616  0.00  0.00     0.217 HD
ENDBRANCH   9  14
BRANCH  12  16
HETATM   16  C   UNK N   1      34.136  16.048  10.222  0.00  0.00     0.102 C 
HETATM   17  N   UNK N   1      33.628  15.026  10.807  0.00  0.00    -0.385 N 
HETATM   18  H   UNK N   1      33.545  14.970  11.786  0.00  0.00     0.157 HD
ATOM     19  HN  UNK N   1      33.300  14.245  10.239  1.00  0.00     0.157 HD
BRANCH  16  20
HETATM   20  N   UNK N   1      35.048  16.869  10.926  0.00  0.00    -0.385 N 
HETATM   21  H   UNK N   1      34.864  17.793  11.210  0.00  0.00     0.157 HD
HETATM   22  H   UNK N   1      35.929  16.489  11.148  0.00  0.00     0.157 HD
ENDBRANCH  16  20
ENDBRANCH  12  16
ENDBRANCH   7   8
ENDBRANCH   1   7
BRANCH   4  23
HETATM   23  N   UNK N   1      26.957  18.199   5.188  0.00  0.00    -0.301 N 
HETATM   24  H   UNK N   1      26.524  17.278   5.114  0.00  0.00     0.173 HD
BRANCH  23  25
HETATM   25  S   UNK N   1      26.147  19.676   4.598  0.00  0.00     0.266 S 
HETATM   26  O   UNK N   1      26.384  20.809   5.606  0.00  0.00    -0.200 OA
HETATM   27  O   UNK N   1      27.022  20.144   3.426  0.00  0.00    -0.200 OA
BRANCH  25  28
HETATM   28  C   UNK N   1      24.441  19.566   4.104  0.00  0.00     0.123 A 
HETATM   29  C   UNK N   1      23.809  20.383   3.155  0.00  0.00     0.063 A 
HETATM   30  C   UNK N   1      22.463  19.985   2.946  0.00  0.00     0.051 A 
HETATM   31  C   UNK N   1      22.060  18.892   3.704  0.00  0.00     0.033 A 
HETATM   32  N   UNK N   1      21.605  20.578   2.079  0.00  0.00    -0.365 N 
HETATM   33  S   UNK N   1      23.346  18.422   4.625  0.00  0.00    -0.074 SA
HETATM   34  C   UNK N   1      20.781  18.369   3.607  0.00  0.00     0.022 A 
HETATM   35  C   UNK N   1      19.899  18.989   2.708  0.00  0.00     0.018 A 
HETATM   36  C   UNK N   1      20.332  20.098   1.949  0.00  0.00     0.088 A 
ATOM     37  HN  UNK N   1      21.909  21.380   1.527  1.00  0.00     0.165 HD
ENDBRANCH  25  28
ENDBRANCH  23  25
ENDBRANCH   4  23
TORSDOF 8
ENDMDL
