REMARK  9 active torsions:
REMARK  status: ('A' for Active; 'I' for Inactive)
REMARK    1  A    between atoms: C_15  and  O_16 
REMARK    2  A    between atoms: C_17  and  O_18 
REMARK    3  A    between atoms: C_20  and  C_21 
REMARK    4  A    between atoms: C_20  and  C_22 
REMARK    5  A    between atoms: C_27  and  C_21 
REMARK       I    between atoms: C_22  and  N_29 
REMARK    6  A    between atoms: C_24  and  C_27 
REMARK    7  A    between atoms: C_25  and  O_26 
REMARK    8  A    between atoms: N_29  and  C_30 
REMARK    9  A    between atoms: C_30  and  C_31 
ROOT
HETATM    1  C   UNK N   1      -3.449  -0.423   0.751  0.00  0.00     0.012 C 
HETATM    2  C   UNK N   1      -4.729  -1.122   0.290  0.00  0.00     0.032 C 
HETATM    3  C   UNK N   1      -3.338  -3.018  -0.632  0.00  0.00     0.037 C 
HETATM    4  C   UNK N   1      -0.854  -2.737  -0.974  0.00  0.00     0.037 C 
HETATM    5  C   UNK N   1      -2.258  -0.780  -0.156  0.00  0.00    -0.036 C 
HETATM    6  C   UNK N   1      -1.132   1.433   0.375  0.00  0.00     0.038 C 
HETATM    7  C   UNK N   1       2.843  -0.041  -0.583  0.00  0.00     0.006 C 
HETATM    8  C   UNK N   1       3.673   1.204  -0.222  0.00  0.00     0.006 C 
HETATM    9  C   UNK N   1      -2.559  -0.290  -1.583  0.00  0.00     0.016 C 
HETATM   10  C   UNK N   1      -0.971  -0.101   0.372  0.00  0.00     0.003 C 
HETATM   11  C   UNK N   1       0.269  -0.528  -0.474  0.00  0.00     0.024 C 
HETATM   12  C   UNK N   1       1.501   0.209   0.088  0.00  0.00     0.003 C 
HETATM   13  C   UNK N   1       1.344   1.737   0.015  0.00  0.00    -0.010 C 
HETATM   14  C   UNK N   1       1.150   2.210  -1.442  0.00  0.00     0.018 C 
HETATM   15  C   UNK N   1      -4.535  -2.636   0.245  0.00  0.00     0.118 C 
HETATM   16  C   UNK N   1       0.430  -2.063  -0.466  0.00  0.00     0.123 C 
HETATM   17  C   UNK N   1      -2.069  -2.320  -0.132  0.00  0.00    -0.001 C 
HETATM   18  C   UNK N   1       2.730   2.149   0.542  0.00  0.00     0.000 C 
HETATM   19  C   UNK N   1       0.126   2.153   0.865  0.00  0.00     0.127 C 
ENDROOT
BRANCH  18  20
HETATM   20  C   UNK N   1       3.162   3.635   0.500  0.00  0.00    -0.013 C 
HETATM   21  C   UNK N   1       2.377   4.535   1.432  0.00  0.00     0.010 C 
BRANCH  20  22
HETATM   22  C   UNK N   1       3.341   4.297  -0.872  0.00  0.00     0.014 C 
BRANCH  22  23
HETATM   23  C   UNK N   1       4.654   3.900  -1.556  0.00  0.00     0.103 C 
BRANCH  23  24
HETATM   24  C   UNK N   1       5.776   3.787  -0.568  0.00  0.00     0.218 C 
HETATM   25  N   UNK N   1       6.306   2.569  -0.323  0.00  0.00    -0.351 N 
HETATM   26  H   UNK N   1       6.029   1.811  -0.887  0.00  0.00     0.163 HD
HETATM   27  O   UNK N   1       6.135   4.768   0.070  0.00  0.00    -0.274 OA
BRANCH  25  28
HETATM   28  C   UNK N   1       7.259   2.333   0.730  0.00  0.00     0.235 C 
BRANCH  28  29
HETATM   29  C   UNK N   1       8.504   1.753   0.165  0.00  0.00     0.191 C 
HETATM   30  O   UNK N   1       9.318   2.513  -0.590  0.00  0.00    -0.647 OA
HETATM   31  O   UNK N   1       8.795   0.592   0.397  0.00  0.00    -0.647 OA
ENDBRANCH  28  29
ENDBRANCH  25  28
ENDBRANCH  23  24
ENDBRANCH  22  23
ENDBRANCH  20  22
ENDBRANCH  18  20
BRANCH  19  32
HETATM   32  O   UNK N   1      -0.103   3.526   0.791  0.00  0.00    -0.395 OA
HETATM   33  H   UNK N   1       0.645   4.142   0.739  0.00  0.00     0.210 HD
ENDBRANCH  19  32
BRANCH  16  34
HETATM   34  O   UNK N   1       0.743  -2.541   0.811  0.00  0.00    -0.395 OA
HETATM   35  H   UNK N   1       0.564  -2.894   1.697  0.00  0.00     0.210 HD
ENDBRANCH  16  34
BRANCH  15  36
HETATM   36  O   UNK N   1      -5.690  -3.229  -0.260  0.00  0.00    -0.396 OA
HETATM   37  H   UNK N   1      -6.450  -2.740  -0.611  0.00  0.00     0.210 HD
ENDBRANCH  15  36
TORSDOF 9
