MODEL 1
REMARK VINA RESULT:      -8.4      0.000      0.000
REMARK  13 active torsions:
REMARK  status: ('A' for Active; 'I' for Inactive)
REMARK    1  A    between atoms: C_2  and  C_4 
REMARK    2  A    between atoms: C_4  and  C_5 
REMARK    3  A    between atoms: C_5  and  N_6 
REMARK    4  A    between atoms: C_5  and  C_11 
REMARK       I    between atoms: N_6  and  C_7 
REMARK       I    between atoms: C_7  and  N_8 
REMARK       I    between atoms: C_11  and  N_13 
REMARK    5  A    between atoms: N_13  and  C_14 
REMARK    6  A    between atoms: C_14  and  C_15 
REMARK       I    between atoms: C_15  and  N_17 
REMARK    7  A    between atoms: C_20  and  C_23 
REMARK    8  A    between atoms: C_25  and  C_30 
REMARK    9  A    between atoms: C_33  and  O_34 
REMARK   10  A    between atoms: O_34  and  C_35 
REMARK   11  A    between atoms: C_35  and  C_36 
REMARK   12  A    between atoms: C_39  and  C_41 
REMARK   13  A    between atoms: C_41  and  O_42 
ROOT
HETATM    1  C   UNK N   1      31.765  14.633   4.232  0.00  0.00     0.237 C 
HETATM    2  O   UNK N   1      31.591  13.422   4.245  0.00  0.00    -0.272 OA
HETATM    3  N   UNK N   1      30.807  15.444   3.694  0.00  0.00    -0.351 N 
HETATM    4  C   UNK N   1      29.499  14.904   3.474  0.00  0.00     0.126 C 
HETATM    5  C   UNK N   1      28.701  15.400   4.678  0.00  0.00     0.030 C 
HETATM    6  C   UNK N   1      28.667  16.953   4.685  0.00  0.00     0.040 C 
HETATM    7  C   UNK N   1      30.033  17.611   4.551  0.00  0.00     0.030 C 
HETATM    8  C   UNK N   1      30.952  16.881   3.574  0.00  0.00     0.126 C 
ENDROOT
BRANCH   6   9
HETATM    9  C   UNK N   1      27.545  17.451   3.830  0.00  0.00     0.034 A 
HETATM   10  C   UNK N   1      26.489  16.635   3.548  0.00  0.00     0.059 A 
HETATM   11  C   UNK N   1      25.388  17.454   3.559  0.00  0.00     0.062 A 
HETATM   12  N   UNK N   1      25.800  18.734   3.722  0.00  0.00    -0.298 N 
HETATM   13  N   UNK N   1      27.106  18.721   3.871  0.00  0.00    -0.300 N 
ATOM     14  HN  UNK N   1      25.202  19.561   3.728  1.00  0.00     0.187 HD
HETATM   15  C   UNK N   1      27.863  19.870   4.347  0.00  0.00     0.177 C 
BRANCH  11  16
HETATM   16  C   UNK N   1      24.226  16.898   4.299  0.00  0.00     0.016 A 
HETATM   17  C   UNK N   1      24.451  15.697   4.989  0.00  0.00     0.018 A 
HETATM   18  C   UNK N   1      23.620  15.275   5.999  0.00  0.00     0.039 A 
HETATM   19  C   UNK N   1      22.536  16.037   6.392  0.00  0.00     0.092 A 
HETATM   20  C   UNK N   1      22.233  17.243   5.674  0.00  0.00     0.090 A 
HETATM   21 Cl   UNK N   1      20.891  18.307   6.113  0.00  0.00    -0.080 Cl
HETATM   22  C   UNK N   1      23.077  17.662   4.616  0.00  0.00     0.071 A 
HETATM   23 Cl   UNK N   1      22.734  19.193   3.794  0.00  0.00    -0.081 Cl
BRANCH  19  24
HETATM   24  O   UNK N   1      21.851  15.562   7.466  0.00  0.00    -0.343 OA
BRANCH  24  25
HETATM   25  C   UNK N   1      21.288  14.324   7.602  0.00  0.00     0.240 C 
BRANCH  25  26
HETATM   26  C   UNK N   1      21.860  13.661   8.798  0.00  0.00     0.078 A 
HETATM   27  C   UNK N   1      21.171  12.955   9.765  0.00  0.00     0.038 A 
HETATM   28  C   UNK N   1      22.142  12.500  10.646  0.00  0.00     0.047 A 
HETATM   29  C   UNK N   1      23.342  12.978  10.148  0.00  0.00     0.148 A 
HETATM   30  O   UNK N   1      23.136  13.660   9.058  0.00  0.00    -0.306 OA
BRANCH  29  31
HETATM   31  C   UNK N   1      24.679  12.749  10.699  0.00  0.00     0.201 C 
HETATM   32  O   UNK N   1      25.655  13.217  10.133  0.00  0.00    -0.645 OA
BRANCH  31  33
HETATM   33  O   UNK N   1      24.841  12.000  11.804  0.00  0.00    -0.771 OA
HETATM   34  H   UNK N   1      25.267  11.169  11.885  0.00  0.00     0.167 HD
ENDBRANCH  31  33
ENDBRANCH  29  31
ENDBRANCH  25  26
ENDBRANCH  24  25
ENDBRANCH  19  24
ENDBRANCH  11  16
ENDBRANCH   6   9
BRANCH   1  35
HETATM   35  C   UNK N   1      32.929  15.166   5.015  0.00  0.00     0.225 C 
BRANCH  35  36
HETATM   36  N   UNK N   1      32.643  15.650   6.338  0.00  0.00    -0.351 N 
HETATM   37  C   UNK N   1      32.879  16.943   6.674  0.00  0.00     0.241 C 
HETATM   38  O   UNK N   1      33.498  17.677   5.911  0.00  0.00    -0.271 OA
HETATM   39  H   UNK N   1      32.270  15.033   7.009  0.00  0.00     0.163 HD
BRANCH  37  40
HETATM   40  C   UNK N   1      32.339  17.482   7.976  0.00  0.00     0.192 C 
BRANCH  40  41
HETATM   41  C   UNK N   1      30.966  16.894   8.291  0.00  0.00     0.039 C 
BRANCH  41  42
HETATM   42  C   UNK N   1      29.892  17.962   8.269  0.00  0.00    -0.020 C 
HETATM   43  C   UNK N   1      28.528  17.314   8.405  0.00  0.00     0.009 C 
HETATM   44  C   UNK N   1      30.110  18.905   9.434  0.00  0.00     0.009 C 
ENDBRANCH  41  42
ENDBRANCH  40  41
BRANCH  40  45
HETATM   45  N   UNK N   1      33.220  17.090   9.057  0.00  0.00    -0.214 N 
HETATM   46  C   UNK N   1      34.532  17.594   9.272  0.00  0.00     0.666 C 
HETATM   47  N   UNK N   1      35.323  17.044  10.302  0.00  0.00    -0.235 N 
HETATM   48  N   UNK N   1      34.983  18.579   8.587  0.00  0.00    -0.235 N 
HETATM   49  H   UNK N   1      36.264  16.772  10.199  0.00  0.00     0.174 HD
HETATM   50  H   UNK N   1      34.906  16.921  11.185  0.00  0.00     0.174 HD
HETATM   51  H   UNK N   1      34.612  19.277   8.000  0.00  0.00     0.174 HD
ATOM     52  HN  UNK N   1      35.997  18.660   8.670  1.00  0.00     0.174 HD
HETATM   53  H   UNK N   1      32.882  16.420   9.694  0.00  0.00     0.178 HD
ENDBRANCH  40  45
ENDBRANCH  37  40
ENDBRANCH  35  36
ENDBRANCH   1  35
TORSDOF 13
ENDMDL
MODEL 2
REMARK VINA RESULT:      -8.1      3.750      6.228
REMARK  13 active torsions:
REMARK  status: ('A' for Active; 'I' for Inactive)
REMARK    1  A    between atoms: C_2  and  C_4 
REMARK    2  A    between atoms: C_4  and  C_5 
REMARK    3  A    between atoms: C_5  and  N_6 
REMARK    4  A    between atoms: C_5  and  C_11 
REMARK       I    between atoms: N_6  and  C_7 
REMARK       I    between atoms: C_7  and  N_8 
REMARK       I    between atoms: C_11  and  N_13 
REMARK    5  A    between atoms: N_13  and  C_14 
REMARK    6  A    between atoms: C_14  and  C_15 
REMARK       I    between atoms: C_15  and  N_17 
REMARK    7  A    between atoms: C_20  and  C_23 
REMARK    8  A    between atoms: C_25  and  C_30 
REMARK    9  A    between atoms: C_33  and  O_34 
REMARK   10  A    between atoms: O_34  and  C_35 
REMARK   11  A    between atoms: C_35  and  C_36 
REMARK   12  A    between atoms: C_39  and  C_41 
REMARK   13  A    between atoms: C_41  and  O_42 
ROOT
HETATM    1  C   UNK N   1      33.778  15.739   5.408  0.00  0.00     0.237 C 
HETATM    2  O   UNK N   1      33.446  14.970   4.516  0.00  0.00    -0.272 OA
HETATM    3  N   UNK N   1      32.884  16.661   5.867  0.00  0.00    -0.351 N 
HETATM    4  C   UNK N   1      31.499  16.490   5.546  0.00  0.00     0.126 C 
HETATM    5  C   UNK N   1      30.915  15.857   6.809  0.00  0.00     0.030 C 
HETATM    6  C   UNK N   1      31.090  16.824   8.012  0.00  0.00     0.040 C 
HETATM    7  C   UNK N   1      32.509  17.346   8.196  0.00  0.00     0.030 C 
HETATM    8  C   UNK N   1      33.205  17.655   6.873  0.00  0.00     0.126 C 
ENDROOT
BRANCH   6   9
HETATM    9  C   UNK N   1      29.956  17.797   8.065  0.00  0.00     0.034 A 
HETATM   10  C   UNK N   1      29.477  18.350   6.914  0.00  0.00     0.059 A 
HETATM   11  C   UNK N   1      28.120  18.436   7.093  0.00  0.00     0.062 A 
HETATM   12  N   UNK N   1      27.823  18.058   8.358  0.00  0.00    -0.298 N 
HETATM   13  N   UNK N   1      28.942  17.687   8.941  0.00  0.00    -0.300 N 
ATOM     14  HN  UNK N   1      26.896  18.060   8.784  1.00  0.00     0.187 HD
HETATM   15  C   UNK N   1      28.978  16.958  10.200  0.00  0.00     0.177 C 
BRANCH  11  16
HETATM   16  C   UNK N   1      27.325  17.977   5.924  0.00  0.00     0.016 A 
HETATM   17  C   UNK N   1      26.830  16.667   5.990  0.00  0.00     0.018 A 
HETATM   18  C   UNK N   1      25.792  16.243   5.195  0.00  0.00     0.039 A 
HETATM   19  C   UNK N   1      25.175  17.109   4.311  0.00  0.00     0.092 A 
HETATM   20  C   UNK N   1      25.688  18.442   4.167  0.00  0.00     0.090 A 
HETATM   21 Cl   UNK N   1      24.956  19.639   3.090  0.00  0.00    -0.080 Cl
HETATM   22  C   UNK N   1      26.776  18.867   4.969  0.00  0.00     0.071 A 
HETATM   23 Cl   UNK N   1      27.344  20.540   4.836  0.00  0.00    -0.081 Cl
BRANCH  19  24
HETATM   24  O   UNK N   1      24.099  16.600   3.656  0.00  0.00    -0.343 OA
BRANCH  24  25
HETATM   25  C   UNK N   1      22.892  16.255   4.197  0.00  0.00     0.240 C 
BRANCH  25  26
HETATM   26  C   UNK N   1      21.822  17.033   3.531  0.00  0.00     0.078 A 
HETATM   27  C   UNK N   1      20.626  16.547   3.037  0.00  0.00     0.038 A 
HETATM   28  C   UNK N   1      19.954  17.659   2.549  0.00  0.00     0.047 A 
HETATM   29  C   UNK N   1      20.803  18.729   2.774  0.00  0.00     0.148 A 
HETATM   30  O   UNK N   1      21.895  18.321   3.354  0.00  0.00    -0.306 OA
BRANCH  29  31
HETATM   31  C   UNK N   1      20.547  20.138   2.468  0.00  0.00     0.201 C 
HETATM   32  O   UNK N   1      20.592  20.970   3.360  0.00  0.00    -0.645 OA
BRANCH  31  33
HETATM   33  O   UNK N   1      20.233  20.516   1.215  0.00  0.00    -0.771 OA
HETATM   34  H   UNK N   1      20.577  20.190   0.407  0.00  0.00     0.167 HD
ENDBRANCH  31  33
ENDBRANCH  29  31
ENDBRANCH  25  26
ENDBRANCH  24  25
ENDBRANCH  19  24
ENDBRANCH  11  16
ENDBRANCH   6   9
BRANCH   1  35
HETATM   35  C   UNK N   1      35.085  15.467   6.095  0.00  0.00     0.225 C 
BRANCH  35  36
HETATM   36  N   UNK N   1      35.011  15.074   7.476  0.00  0.00    -0.351 N 
HETATM   37  C   UNK N   1      35.354  13.819   7.863  0.00  0.00     0.241 C 
HETATM   38  O   UNK N   1      35.567  12.950   7.025  0.00  0.00    -0.271 OA
HETATM   39  H   UNK N   1      34.708  15.725   8.150  0.00  0.00     0.163 HD
BRANCH  37  40
HETATM   40  C   UNK N   1      35.508  13.511   9.332  0.00  0.00     0.192 C 
BRANCH  40  41
HETATM   41  C   UNK N   1      36.706  12.598   9.583  0.00  0.00     0.039 C 
BRANCH  41  42
HETATM   42  C   UNK N   1      37.588  13.139  10.689  0.00  0.00    -0.020 C 
HETATM   43  C   UNK N   1      37.504  12.227  11.898  0.00  0.00     0.009 C 
HETATM   44  C   UNK N   1      39.021  13.183  10.201  0.00  0.00     0.009 C 
ENDBRANCH  41  42
ENDBRANCH  40  41
BRANCH  40  45
HETATM   45  N   UNK N   1      35.764  14.742  10.054  0.00  0.00    -0.214 N 
HETATM   46  C   UNK N   1      34.783  15.514  10.734  0.00  0.00     0.666 C 
HETATM   47  N   UNK N   1      35.150  16.751  11.303  0.00  0.00    -0.235 N 
HETATM   48  N   UNK N   1      33.588  15.077  10.889  0.00  0.00    -0.235 N 
HETATM   49  H   UNK N   1      34.640  17.587  11.199  0.00  0.00     0.174 HD
HETATM   50  H   UNK N   1      35.974  16.781  11.841  0.00  0.00     0.174 HD
HETATM   51  H   UNK N   1      33.123  14.212  10.817  0.00  0.00     0.174 HD
ATOM     52  HN  UNK N   1      32.948  15.825  11.159  1.00  0.00     0.174 HD
HETATM   53  H   UNK N   1      36.692  15.069  10.074  0.00  0.00     0.178 HD
ENDBRANCH  40  45
ENDBRANCH  37  40
ENDBRANCH  35  36
ENDBRANCH   1  35
TORSDOF 13
ENDMDL
MODEL 3
REMARK VINA RESULT:      -8.1      1.680      1.994
REMARK  13 active torsions:
REMARK  status: ('A' for Active; 'I' for Inactive)
REMARK    1  A    between atoms: C_2  and  C_4 
REMARK    2  A    between atoms: C_4  and  C_5 
REMARK    3  A    between atoms: C_5  and  N_6 
REMARK    4  A    between atoms: C_5  and  C_11 
REMARK       I    between atoms: N_6  and  C_7 
REMARK       I    between atoms: C_7  and  N_8 
REMARK       I    between atoms: C_11  and  N_13 
REMARK    5  A    between atoms: N_13  and  C_14 
REMARK    6  A    between atoms: C_14  and  C_15 
REMARK       I    between atoms: C_15  and  N_17 
REMARK    7  A    between atoms: C_20  and  C_23 
REMARK    8  A    between atoms: C_25  and  C_30 
REMARK    9  A    between atoms: C_33  and  O_34 
REMARK   10  A    between atoms: O_34  and  C_35 
REMARK   11  A    between atoms: C_35  and  C_36 
REMARK   12  A    between atoms: C_39  and  C_41 
REMARK   13  A    between atoms: C_41  and  O_42 
ROOT
HETATM    1  C   UNK N   1      30.319  13.674   4.439  0.00  0.00     0.237 C 
HETATM    2  O   UNK N   1      29.812  12.673   4.927  0.00  0.00    -0.272 OA
HETATM    3  N   UNK N   1      29.534  14.753   4.151  0.00  0.00    -0.351 N 
HETATM    4  C   UNK N   1      28.226  14.820   4.730  0.00  0.00     0.126 C 
HETATM    5  C   UNK N   1      28.411  15.754   5.925  0.00  0.00     0.030 C 
HETATM    6  C   UNK N   1      28.873  17.153   5.433  0.00  0.00     0.040 C 
HETATM    7  C   UNK N   1      30.072  17.124   4.495  0.00  0.00     0.030 C 
HETATM    8  C   UNK N   1      30.031  15.956   3.513  0.00  0.00     0.126 C 
ENDROOT
BRANCH   6   9
HETATM    9  C   UNK N   1      27.691  17.988   5.059  0.00  0.00     0.034 A 
HETATM   10  C   UNK N   1      26.671  17.442   4.336  0.00  0.00     0.059 A 
HETATM   11  C   UNK N   1      25.528  18.005   4.843  0.00  0.00     0.062 A 
HETATM   12  N   UNK N   1      25.873  18.945   5.754  0.00  0.00    -0.298 N 
HETATM   13  N   UNK N   1      27.183  18.935   5.866  0.00  0.00    -0.300 N 
ATOM     14  HN  UNK N   1      25.230  19.552   6.263  1.00  0.00     0.187 HD
HETATM   15  C   UNK N   1      27.892  19.606   6.946  0.00  0.00     0.177 C 
BRANCH  11  16
HETATM   16  C   UNK N   1      24.431  17.033   5.088  0.00  0.00     0.016 A 
HETATM   17  C   UNK N   1      24.757  15.920   5.877  0.00  0.00     0.018 A 
HETATM   18  C   UNK N   1      23.791  15.160   6.493  0.00  0.00     0.039 A 
HETATM   19  C   UNK N   1      22.452  15.482   6.376  0.00  0.00     0.092 A 
HETATM   20  C   UNK N   1      22.069  16.577   5.530  0.00  0.00     0.090 A 
HETATM   21 Cl   UNK N   1      20.389  17.094   5.334  0.00  0.00    -0.080 Cl
HETATM   22  C   UNK N   1      23.066  17.342   4.874  0.00  0.00     0.071 A 
HETATM   23 Cl   UNK N   1      22.579  18.738   3.898  0.00  0.00    -0.081 Cl
BRANCH  19  24
HETATM   24  O   UNK N   1      21.604  14.716   7.111  0.00  0.00    -0.343 OA
BRANCH  24  25
HETATM   25  C   UNK N   1      21.016  15.046   8.300  0.00  0.00     0.240 C 
BRANCH  25  26
HETATM   26  C   UNK N   1      21.427  14.065   9.332  0.00  0.00     0.078 A 
HETATM   27  C   UNK N   1      20.596  13.308  10.136  0.00  0.00     0.038 A 
HETATM   28  C   UNK N   1      21.446  12.521  10.901  0.00  0.00     0.047 A 
HETATM   29  C   UNK N   1      22.725  12.874  10.508  0.00  0.00     0.148 A 
HETATM   30  O   UNK N   1      22.675  13.788   9.582  0.00  0.00    -0.306 OA
BRANCH  29  31
HETATM   31  C   UNK N   1      23.985  12.308  10.995  0.00  0.00     0.201 C 
HETATM   32  O   UNK N   1      24.852  11.986  10.198  0.00  0.00    -0.645 OA
BRANCH  31  33
HETATM   33  O   UNK N   1      24.180  12.113  12.312  0.00  0.00    -0.771 OA
HETATM   34  H   UNK N   1      23.604  11.709  12.930  0.00  0.00     0.167 HD
ENDBRANCH  31  33
ENDBRANCH  29  31
ENDBRANCH  25  26
ENDBRANCH  24  25
ENDBRANCH  19  24
ENDBRANCH  11  16
ENDBRANCH   6   9
BRANCH   1  35
HETATM   35  C   UNK N   1      31.819  13.730   4.395  0.00  0.00     0.225 C 
BRANCH  35  36
HETATM   36  N   UNK N   1      32.486  13.990   5.640  0.00  0.00    -0.351 N 
HETATM   37  C   UNK N   1      33.207  15.126   5.822  0.00  0.00     0.241 C 
HETATM   38  O   UNK N   1      33.443  15.865   4.873  0.00  0.00    -0.271 OA
HETATM   39  H   UNK N   1      32.418  13.335   6.373  0.00  0.00     0.163 HD
BRANCH  37  40
HETATM   40  C   UNK N   1      33.681  15.492   7.207  0.00  0.00     0.192 C 
BRANCH  40  41
HETATM   41  C   UNK N   1      32.534  16.027   8.061  0.00  0.00     0.039 C 
BRANCH  41  42
HETATM   42  C   UNK N   1      32.235  17.475   7.734  0.00  0.00    -0.020 C 
HETATM   43  C   UNK N   1      31.082  17.962   8.590  0.00  0.00     0.009 C 
HETATM   44  C   UNK N   1      33.461  18.312   8.034  0.00  0.00     0.009 C 
ENDBRANCH  41  42
ENDBRANCH  40  41
BRANCH  40  45
HETATM   45  N   UNK N   1      34.177  14.303   7.871  0.00  0.00    -0.214 N 
HETATM   46  C   UNK N   1      35.455  13.718   7.661  0.00  0.00     0.666 C 
HETATM   47  N   UNK N   1      35.768  12.496   8.293  0.00  0.00    -0.235 N 
HETATM   48  N   UNK N   1      36.347  14.310   6.956  0.00  0.00    -0.235 N 
HETATM   49  H   UNK N   1      36.181  11.724   7.843  0.00  0.00     0.174 HD
HETATM   50  H   UNK N   1      35.558  12.409   9.251  0.00  0.00     0.174 HD
HETATM   51  H   UNK N   1      36.500  15.217   6.604  0.00  0.00     0.174 HD
ATOM     52  HN  UNK N   1      37.097  13.672   6.687  1.00  0.00     0.174 HD
HETATM   53  H   UNK N   1      33.580  13.866   8.521  0.00  0.00     0.178 HD
ENDBRANCH  40  45
ENDBRANCH  37  40
ENDBRANCH  35  36
ENDBRANCH   1  35
TORSDOF 13
ENDMDL
MODEL 4
REMARK VINA RESULT:      -8.1      3.071      4.361
REMARK  13 active torsions:
REMARK  status: ('A' for Active; 'I' for Inactive)
REMARK    1  A    between atoms: C_2  and  C_4 
REMARK    2  A    between atoms: C_4  and  C_5 
REMARK    3  A    between atoms: C_5  and  N_6 
REMARK    4  A    between atoms: C_5  and  C_11 
REMARK       I    between atoms: N_6  and  C_7 
REMARK       I    between atoms: C_7  and  N_8 
REMARK       I    between atoms: C_11  and  N_13 
REMARK    5  A    between atoms: N_13  and  C_14 
REMARK    6  A    between atoms: C_14  and  C_15 
REMARK       I    between atoms: C_15  and  N_17 
REMARK    7  A    between atoms: C_20  and  C_23 
REMARK    8  A    between atoms: C_25  and  C_30 
REMARK    9  A    between atoms: C_33  and  O_34 
REMARK   10  A    between atoms: O_34  and  C_35 
REMARK   11  A    between atoms: C_35  and  C_36 
REMARK   12  A    between atoms: C_39  and  C_41 
REMARK   13  A    between atoms: C_41  and  O_42 
ROOT
HETATM    1  C   UNK N   1      34.065  15.346   5.791  0.00  0.00     0.237 C 
HETATM    2  O   UNK N   1      33.850  14.339   5.130  0.00  0.00    -0.272 OA
HETATM    3  N   UNK N   1      33.103  16.309   5.879  0.00  0.00    -0.351 N 
HETATM    4  C   UNK N   1      31.765  15.977   5.492  0.00  0.00     0.126 C 
HETATM    5  C   UNK N   1      31.067  15.696   6.822  0.00  0.00     0.030 C 
HETATM    6  C   UNK N   1      31.088  16.972   7.707  0.00  0.00     0.040 C 
HETATM    7  C   UNK N   1      32.464  17.603   7.867  0.00  0.00     0.030 C 
HETATM    8  C   UNK N   1      33.289  17.563   6.582  0.00  0.00     0.126 C 
ENDROOT
BRANCH   6   9
HETATM    9  C   UNK N   1      29.929  17.855   7.371  0.00  0.00     0.034 A 
HETATM   10  C   UNK N   1      29.185  17.609   6.256  0.00  0.00     0.059 A 
HETATM   11  C   UNK N   1      27.892  17.898   6.613  0.00  0.00     0.062 A 
HETATM   12  N   UNK N   1      27.892  18.415   7.865  0.00  0.00    -0.298 N 
HETATM   13  N   UNK N   1      29.130  18.397   8.307  0.00  0.00    -0.300 N 
ATOM     14  HN  UNK N   1      27.077  18.758   8.373  1.00  0.00     0.187 HD
HETATM   15  C   UNK N   1      29.477  18.610   9.705  0.00  0.00     0.177 C 
BRANCH  11  16
HETATM   16  C   UNK N   1      26.901  16.879   6.180  0.00  0.00     0.016 A 
HETATM   17  C   UNK N   1      26.737  15.777   7.031  0.00  0.00     0.018 A 
HETATM   18  C   UNK N   1      25.623  14.974   6.970  0.00  0.00     0.039 A 
HETATM   19  C   UNK N   1      24.603  15.240   6.074  0.00  0.00     0.092 A 
HETATM   20  C   UNK N   1      24.757  16.322   5.143  0.00  0.00     0.090 A 
HETATM   21 Cl   UNK N   1      23.503  16.769   3.979  0.00  0.00    -0.080 Cl
HETATM   22  C   UNK N   1      25.919  17.132   5.192  0.00  0.00     0.071 A 
HETATM   23 Cl   UNK N   1      26.056  18.512   4.089  0.00  0.00    -0.081 Cl
BRANCH  19  24
HETATM   24  O   UNK N   1      23.514  14.435   6.179  0.00  0.00    -0.343 OA
BRANCH  24  25
HETATM   25  C   UNK N   1      23.446  13.215   6.792  0.00  0.00     0.240 C 
BRANCH  25  26
HETATM   26  C   UNK N   1      22.719  13.357   8.075  0.00  0.00     0.078 A 
HETATM   27  C   UNK N   1      21.740  14.284   8.377  0.00  0.00     0.038 A 
HETATM   28  C   UNK N   1      21.345  13.989   9.675  0.00  0.00     0.047 A 
HETATM   29  C   UNK N   1      22.127  12.914  10.060  0.00  0.00     0.148 A 
HETATM   30  O   UNK N   1      22.927  12.569   9.091  0.00  0.00    -0.306 OA
BRANCH  29  31
HETATM   31  C   UNK N   1      22.078  12.200  11.338  0.00  0.00     0.201 C 
HETATM   32  O   UNK N   1      23.113  11.969  11.942  0.00  0.00    -0.645 OA
BRANCH  31  33
HETATM   33  O   UNK N   1      20.903  11.771  11.833  0.00  0.00    -0.771 OA
HETATM   34  H   UNK N   1      20.752  11.101  12.470  0.00  0.00     0.167 HD
ENDBRANCH  31  33
ENDBRANCH  29  31
ENDBRANCH  25  26
ENDBRANCH  24  25
ENDBRANCH  19  24
ENDBRANCH  11  16
ENDBRANCH   6   9
BRANCH   1  35
HETATM   35  C   UNK N   1      35.298  15.353   6.648  0.00  0.00     0.225 C 
BRANCH  35  36
HETATM   36  N   UNK N   1      35.324  14.416   7.737  0.00  0.00    -0.351 N 
HETATM   37  C   UNK N   1      35.223  14.839   9.023  0.00  0.00     0.241 C 
HETATM   38  O   UNK N   1      35.279  16.035   9.286  0.00  0.00    -0.271 OA
HETATM   39  H   UNK N   1      35.417  13.454   7.548  0.00  0.00     0.163 HD
BRANCH  37  40
HETATM   40  C   UNK N   1      35.000  13.829  10.122  0.00  0.00     0.192 C 
BRANCH  40  41
HETATM   41  C   UNK N   1      34.824  14.514  11.475  0.00  0.00     0.039 C 
BRANCH  41  42
HETATM   42  C   UNK N   1      35.765  13.934  12.511  0.00  0.00    -0.020 C 
HETATM   43  C   UNK N   1      35.067  12.818  13.264  0.00  0.00     0.009 C 
HETATM   44  C   UNK N   1      36.984  13.371  11.811  0.00  0.00     0.009 C 
ENDBRANCH  41  42
ENDBRANCH  40  41
BRANCH  40  45
HETATM   45  N   UNK N   1      33.775  13.101   9.860  0.00  0.00    -0.214 N 
HETATM   46  C   UNK N   1      33.661  11.686   9.785  0.00  0.00     0.666 C 
HETATM   47  N   UNK N   1      32.428  11.111   9.414  0.00  0.00    -0.235 N 
HETATM   48  N   UNK N   1      34.641  10.925  10.107  0.00  0.00    -0.235 N 
HETATM   49  H   UNK N   1      32.324  10.395   8.746  0.00  0.00     0.174 HD
HETATM   50  H   UNK N   1      31.614  11.449   9.852  0.00  0.00     0.174 HD
HETATM   51  H   UNK N   1      35.492  11.015  10.594  0.00  0.00     0.174 HD
ATOM     52  HN  UNK N   1      34.504   9.973   9.767  1.00  0.00     0.174 HD
HETATM   53  H   UNK N   1      32.956  13.629   9.723  0.00  0.00     0.178 HD
ENDBRANCH  40  45
ENDBRANCH  37  40
ENDBRANCH  35  36
ENDBRANCH   1  35
TORSDOF 13
ENDMDL
MODEL 5
REMARK VINA RESULT:      -8.1      4.528      9.475
REMARK  13 active torsions:
REMARK  status: ('A' for Active; 'I' for Inactive)
REMARK    1  A    between atoms: C_2  and  C_4 
REMARK    2  A    between atoms: C_4  and  C_5 
REMARK    3  A    between atoms: C_5  and  N_6 
REMARK    4  A    between atoms: C_5  and  C_11 
REMARK       I    between atoms: N_6  and  C_7 
REMARK       I    between atoms: C_7  and  N_8 
REMARK       I    between atoms: C_11  and  N_13 
REMARK    5  A    between atoms: N_13  and  C_14 
REMARK    6  A    between atoms: C_14  and  C_15 
REMARK       I    between atoms: C_15  and  N_17 
REMARK    7  A    between atoms: C_20  and  C_23 
REMARK    8  A    between atoms: C_25  and  C_30 
REMARK    9  A    between atoms: C_33  and  O_34 
REMARK   10  A    between atoms: O_34  and  C_35 
REMARK   11  A    between atoms: C_35  and  C_36 
REMARK   12  A    between atoms: C_39  and  C_41 
REMARK   13  A    between atoms: C_41  and  O_42 
ROOT
HETATM    1  C   UNK N   1      26.662  19.161   5.184  0.00  0.00     0.237 C 
HETATM    2  O   UNK N   1      27.205  19.665   6.157  0.00  0.00    -0.272 OA
HETATM    3  N   UNK N   1      27.377  18.331   4.370  0.00  0.00    -0.351 N 
HETATM    4  C   UNK N   1      28.619  17.805   4.850  0.00  0.00     0.126 C 
HETATM    5  C   UNK N   1      28.253  16.400   5.325  0.00  0.00     0.030 C 
HETATM    6  C   UNK N   1      27.721  15.562   4.129  0.00  0.00     0.040 C 
HETATM    7  C   UNK N   1      26.615  16.240   3.331  0.00  0.00     0.030 C 
HETATM    8  C   UNK N   1      26.839  17.740   3.160  0.00  0.00     0.126 C 
ENDROOT
BRANCH   6   9
HETATM    9  C   UNK N   1      28.858  14.935   3.389  0.00  0.00     0.034 A 
HETATM   10  C   UNK N   1      29.878  15.710   2.921  0.00  0.00     0.059 A 
HETATM   11  C   UNK N   1      31.012  14.958   3.095  0.00  0.00     0.062 A 
HETATM   12  N   UNK N   1      30.655  13.729   3.538  0.00  0.00    -0.298 N 
HETATM   13  N   UNK N   1      29.350  13.723   3.699  0.00  0.00    -0.300 N 
ATOM     14  HN  UNK N   1      31.287  12.948   3.716  1.00  0.00     0.187 HD
HETATM   15  C   UNK N   1      28.644  12.676   4.424  0.00  0.00     0.177 C 
BRANCH  11  16
HETATM   16  C   UNK N   1      32.153  15.708   3.680  0.00  0.00     0.016 A 
HETATM   17  C   UNK N   1      31.901  17.044   4.027  0.00  0.00     0.018 A 
HETATM   18  C   UNK N   1      32.708  17.729   4.903  0.00  0.00     0.039 A 
HETATM   19  C   UNK N   1      33.794  17.115   5.499  0.00  0.00     0.092 A 
HETATM   20  C   UNK N   1      34.125  15.769   5.127  0.00  0.00     0.090 A 
HETATM   21 Cl   UNK N   1      35.471  14.879   5.849  0.00  0.00    -0.080 Cl
HETATM   22  C   UNK N   1      33.306  15.073   4.203  0.00  0.00     0.071 A 
HETATM   23 Cl   UNK N   1      33.682  13.385   3.816  0.00  0.00    -0.081 Cl
BRANCH  19  24
HETATM   24  O   UNK N   1      34.453  17.866   6.420  0.00  0.00    -0.343 OA
BRANCH  24  25
HETATM   25  C   UNK N   1      34.399  17.737   7.779  0.00  0.00     0.240 C 
BRANCH  25  26
HETATM   26  C   UNK N   1      33.005  17.435   8.182  0.00  0.00     0.078 A 
HETATM   27  C   UNK N   1      32.453  16.185   8.389  0.00  0.00     0.038 A 
HETATM   28  C   UNK N   1      31.145  16.426   8.786  0.00  0.00     0.047 A 
HETATM   29  C   UNK N   1      31.005  17.803   8.775  0.00  0.00     0.148 A 
HETATM   30  O   UNK N   1      32.123  18.365   8.412  0.00  0.00    -0.306 OA
BRANCH  29  31
HETATM   31  C   UNK N   1      29.816  18.572   9.147  0.00  0.00     0.201 C 
HETATM   32  O   UNK N   1      29.662  18.926  10.305  0.00  0.00    -0.645 OA
BRANCH  31  33
HETATM   33  O   UNK N   1      28.878  18.864   8.227  0.00  0.00    -0.771 OA
HETATM   34  H   UNK N   1      28.741  18.463   7.392  0.00  0.00     0.167 HD
ENDBRANCH  31  33
ENDBRANCH  29  31
ENDBRANCH  25  26
ENDBRANCH  24  25
ENDBRANCH  19  24
ENDBRANCH  11  16
ENDBRANCH   6   9
BRANCH   1  35
HETATM   35  C   UNK N   1      25.172  19.315   5.075  0.00  0.00     0.225 C 
BRANCH  35  36
HETATM   36  N   UNK N   1      24.382  18.181   5.470  0.00  0.00    -0.351 N 
HETATM   37  C   UNK N   1      23.426  17.677   4.648  0.00  0.00     0.241 C 
HETATM   38  O   UNK N   1      23.103  18.283   3.632  0.00  0.00    -0.271 OA
HETATM   39  H   UNK N   1      24.537  17.765   6.349  0.00  0.00     0.163 HD
BRANCH  37  40
HETATM   40  C   UNK N   1      22.792  16.348   4.975  0.00  0.00     0.192 C 
BRANCH  40  41
HETATM   41  C   UNK N   1      23.158  15.892   6.385  0.00  0.00     0.039 C 
BRANCH  41  42
HETATM   42  C   UNK N   1      23.872  14.556   6.363  0.00  0.00    -0.020 C 
HETATM   43  C   UNK N   1      24.055  14.101   4.928  0.00  0.00     0.009 C 
HETATM   44  C   UNK N   1      25.232  14.712   7.009  0.00  0.00     0.009 C 
ENDBRANCH  41  42
ENDBRANCH  40  41
BRANCH  40  45
HETATM   45  N   UNK N   1      21.350  16.485   4.942  0.00  0.00    -0.214 N 
HETATM   46  C   UNK N   1      20.535  16.320   3.789  0.00  0.00     0.666 C 
HETATM   47  N   UNK N   1      19.153  16.592   3.875  0.00  0.00    -0.235 N 
HETATM   48  N   UNK N   1      21.024  15.872   2.692  0.00  0.00    -0.235 N 
HETATM   49  H   UNK N   1      18.648  17.129   3.222  0.00  0.00     0.174 HD
HETATM   50  H   UNK N   1      18.660  16.219   4.640  0.00  0.00     0.174 HD
HETATM   51  H   UNK N   1      21.842  15.405   2.406  0.00  0.00     0.174 HD
ATOM     52  HN  UNK N   1      20.399  16.047   1.904  1.00  0.00     0.174 HD
HETATM   53  H   UNK N   1      20.898  16.712   5.787  0.00  0.00     0.178 HD
ENDBRANCH  40  45
ENDBRANCH  37  40
ENDBRANCH  35  36
ENDBRANCH   1  35
TORSDOF 13
ENDMDL
MODEL 6
REMARK VINA RESULT:      -8.0      3.148      4.637
REMARK  13 active torsions:
REMARK  status: ('A' for Active; 'I' for Inactive)
REMARK    1  A    between atoms: C_2  and  C_4 
REMARK    2  A    between atoms: C_4  and  C_5 
REMARK    3  A    between atoms: C_5  and  N_6 
REMARK    4  A    between atoms: C_5  and  C_11 
REMARK       I    between atoms: N_6  and  C_7 
REMARK       I    between atoms: C_7  and  N_8 
REMARK       I    between atoms: C_11  and  N_13 
REMARK    5  A    between atoms: N_13  and  C_14 
REMARK    6  A    between atoms: C_14  and  C_15 
REMARK       I    between atoms: C_15  and  N_17 
REMARK    7  A    between atoms: C_20  and  C_23 
REMARK    8  A    between atoms: C_25  and  C_30 
REMARK    9  A    between atoms: C_33  and  O_34 
REMARK   10  A    between atoms: O_34  and  C_35 
REMARK   11  A    between atoms: C_35  and  C_36 
REMARK   12  A    between atoms: C_39  and  C_41 
REMARK   13  A    between atoms: C_41  and  O_42 
ROOT
HETATM    1  C   UNK N   1      34.233  16.928   7.721  0.00  0.00     0.237 C 
HETATM    2  O   UNK N   1      34.899  16.329   6.888  0.00  0.00    -0.272 OA
HETATM    3  N   UNK N   1      33.051  17.502   7.351  0.00  0.00    -0.351 N 
HETATM    4  C   UNK N   1      32.460  17.109   6.108  0.00  0.00     0.126 C 
HETATM    5  C   UNK N   1      31.397  16.093   6.523  0.00  0.00     0.030 C 
HETATM    6  C   UNK N   1      30.349  16.774   7.446  0.00  0.00     0.040 C 
HETATM    7  C   UNK N   1      30.948  17.539   8.619  0.00  0.00     0.030 C 
HETATM    8  C   UNK N   1      32.227  18.286   8.250  0.00  0.00     0.126 C 
ENDROOT
BRANCH   6   9
HETATM    9  C   UNK N   1      29.289  17.436   6.625  0.00  0.00     0.034 A 
HETATM   10  C   UNK N   1      28.837  16.840   5.485  0.00  0.00     0.059 A 
HETATM   11  C   UNK N   1      27.492  17.105   5.448  0.00  0.00     0.062 A 
HETATM   12  N   UNK N   1      27.184  17.936   6.472  0.00  0.00    -0.298 N 
HETATM   13  N   UNK N   1      28.280  18.140   7.169  0.00  0.00    -0.300 N 
ATOM     14  HN  UNK N   1      26.264  18.333   6.668  1.00  0.00     0.187 HD
HETATM   15  C   UNK N   1      28.279  18.746   8.492  0.00  0.00     0.177 C 
BRANCH  11  16
HETATM   16  C   UNK N   1      26.651  15.929   5.105  0.00  0.00     0.016 A 
HETATM   17  C   UNK N   1      27.062  14.700   5.641  0.00  0.00     0.018 A 
HETATM   18  C   UNK N   1      26.207  13.628   5.733  0.00  0.00     0.039 A 
HETATM   19  C   UNK N   1      24.892  13.730   5.319  0.00  0.00     0.092 A 
HETATM   20  C   UNK N   1      24.445  14.950   4.708  0.00  0.00     0.090 A 
HETATM   21 Cl   UNK N   1      22.779  15.199   4.172  0.00  0.00    -0.080 Cl
HETATM   22  C   UNK N   1      25.337  16.045   4.591  0.00  0.00     0.071 A 
HETATM   23 Cl   UNK N   1      24.746  17.570   3.908  0.00  0.00    -0.081 Cl
BRANCH  19  24
HETATM   24  O   UNK N   1      24.122  12.635   5.553  0.00  0.00    -0.343 OA
BRANCH  24  25
HETATM   25  C   UNK N   1      24.352  11.647   6.469  0.00  0.00     0.240 C 
BRANCH  25  26
HETATM   26  C   UNK N   1      23.736  12.032   7.761  0.00  0.00     0.078 A 
HETATM   27  C   UNK N   1      22.502  12.624   7.949  0.00  0.00     0.038 A 
HETATM   28  C   UNK N   1      22.362  12.748   9.324  0.00  0.00     0.047 A 
HETATM   29  C   UNK N   1      23.530  12.231   9.860  0.00  0.00     0.148 A 
HETATM   30  O   UNK N   1      24.317  11.820   8.908  0.00  0.00    -0.306 OA
BRANCH  29  31
HETATM   31  C   UNK N   1      23.867  12.101  11.279  0.00  0.00     0.201 C 
HETATM   32  O   UNK N   1      23.008  11.765  12.077  0.00  0.00    -0.645 OA
BRANCH  31  33
HETATM   33  O   UNK N   1      25.111  12.381  11.711  0.00  0.00    -0.771 OA
HETATM   34  H   UNK N   1      25.928  12.100  11.347  0.00  0.00     0.167 HD
ENDBRANCH  31  33
ENDBRANCH  29  31
ENDBRANCH  25  26
ENDBRANCH  24  25
ENDBRANCH  19  24
ENDBRANCH  11  16
ENDBRANCH   6   9
BRANCH   1  35
HETATM   35  C   UNK N   1      34.656  16.800   9.156  0.00  0.00     0.225 C 
BRANCH  35  36
HETATM   36  N   UNK N   1      34.995  15.478   9.607  0.00  0.00    -0.351 N 
HETATM   37  C   UNK N   1      36.023  15.278  10.471  0.00  0.00     0.241 C 
HETATM   38  O   UNK N   1      36.785  16.198  10.748  0.00  0.00    -0.271 OA
HETATM   39  H   UNK N   1      34.475  14.707   9.284  0.00  0.00     0.163 HD
BRANCH  37  40
HETATM   40  C   UNK N   1      36.196  13.927  11.119  0.00  0.00     0.192 C 
BRANCH  40  41
HETATM   41  C   UNK N   1      37.059  13.007  10.257  0.00  0.00     0.039 C 
BRANCH  41  42
HETATM   42  C   UNK N   1      36.240  11.876   9.671  0.00  0.00    -0.020 C 
HETATM   43  C   UNK N   1      34.923  11.763  10.413  0.00  0.00     0.009 C 
HETATM   44  C   UNK N   1      35.961  12.173   8.212  0.00  0.00     0.009 C 
ENDBRANCH  41  42
ENDBRANCH  40  41
BRANCH  40  45
HETATM   45  N   UNK N   1      36.889  14.087  12.381  0.00  0.00    -0.214 N 
HETATM   46  C   UNK N   1      36.346  13.786  13.660  0.00  0.00     0.666 C 
HETATM   47  N   UNK N   1      37.092  14.094  14.817  0.00  0.00    -0.235 N 
HETATM   48  N   UNK N   1      35.219  13.187  13.776  0.00  0.00    -0.235 N 
HETATM   49  H   UNK N   1      36.728  14.550  15.611  0.00  0.00     0.174 HD
HETATM   50  H   UNK N   1      38.041  13.836  14.832  0.00  0.00     0.174 HD
HETATM   51  H   UNK N   1      34.615  12.670  13.194  0.00  0.00     0.174 HD
ATOM     52  HN  UNK N   1      34.847  13.268  14.723  1.00  0.00     0.174 HD
HETATM   53  H   UNK N   1      37.810  14.432  12.350  0.00  0.00     0.178 HD
ENDBRANCH  40  45
ENDBRANCH  37  40
ENDBRANCH  35  36
ENDBRANCH   1  35
TORSDOF 13
ENDMDL
MODEL 7
REMARK VINA RESULT:      -7.9      3.488      5.180
REMARK  13 active torsions:
REMARK  status: ('A' for Active; 'I' for Inactive)
REMARK    1  A    between atoms: C_2  and  C_4 
REMARK    2  A    between atoms: C_4  and  C_5 
REMARK    3  A    between atoms: C_5  and  N_6 
REMARK    4  A    between atoms: C_5  and  C_11 
REMARK       I    between atoms: N_6  and  C_7 
REMARK       I    between atoms: C_7  and  N_8 
REMARK       I    between atoms: C_11  and  N_13 
REMARK    5  A    between atoms: N_13  and  C_14 
REMARK    6  A    between atoms: C_14  and  C_15 
REMARK       I    between atoms: C_15  and  N_17 
REMARK    7  A    between atoms: C_20  and  C_23 
REMARK    8  A    between atoms: C_25  and  C_30 
REMARK    9  A    between atoms: C_33  and  O_34 
REMARK   10  A    between atoms: O_34  and  C_35 
REMARK   11  A    between atoms: C_35  and  C_36 
REMARK   12  A    between atoms: C_39  and  C_41 
REMARK   13  A    between atoms: C_41  and  O_42 
ROOT
HETATM    1  C   UNK N   1      30.046  13.954   4.124  0.00  0.00     0.237 C 
HETATM    2  O   UNK N   1      29.236  13.038   4.129  0.00  0.00    -0.272 OA
HETATM    3  N   UNK N   1      29.603  15.243   4.058  0.00  0.00    -0.351 N 
HETATM    4  C   UNK N   1      28.223  15.506   4.338  0.00  0.00     0.126 C 
HETATM    5  C   UNK N   1      28.238  15.987   5.788  0.00  0.00     0.030 C 
HETATM    6  C   UNK N   1      29.085  17.284   5.904  0.00  0.00     0.040 C 
HETATM    7  C   UNK N   1      30.473  17.185   5.284  0.00  0.00     0.030 C 
HETATM    8  C   UNK N   1      30.486  16.390   3.981  0.00  0.00     0.126 C 
ENDROOT
BRANCH   6   9
HETATM    9  C   UNK N   1      28.246  18.482   5.594  0.00  0.00     0.034 A 
HETATM   10  C   UNK N   1      27.468  18.498   4.474  0.00  0.00     0.059 A 
HETATM   11  C   UNK N   1      26.319  19.151   4.842  0.00  0.00     0.062 A 
HETATM   12  N   UNK N   1      26.468  19.613   6.106  0.00  0.00    -0.298 N 
HETATM   13  N   UNK N   1      27.641  19.214   6.545  0.00  0.00    -0.300 N 
ATOM     14  HN  UNK N   1      25.789  20.171   6.625  1.00  0.00     0.187 HD
HETATM   15  C   UNK N   1      28.028  19.279   7.947  0.00  0.00     0.177 C 
BRANCH  11  16
HETATM   16  C   UNK N   1      25.071  18.487   4.385  0.00  0.00     0.016 A 
HETATM   17  C   UNK N   1      24.821  17.212   4.914  0.00  0.00     0.018 A 
HETATM   18  C   UNK N   1      23.566  16.652   4.892  0.00  0.00     0.039 A 
HETATM   19  C   UNK N   1      22.490  17.340   4.365  0.00  0.00     0.092 A 
HETATM   20  C   UNK N   1      22.711  18.622   3.758  0.00  0.00     0.090 A 
HETATM   21 Cl   UNK N   1      21.402  19.601   3.083  0.00  0.00    -0.080 Cl
HETATM   22  C   UNK N   1      24.011  19.186   3.759  0.00  0.00     0.071 A 
HETATM   23 Cl   UNK N   1      24.251  20.804   3.077  0.00  0.00    -0.081 Cl
BRANCH  19  24
HETATM   24  O   UNK N   1      21.286  16.722   4.492  0.00  0.00    -0.343 OA
BRANCH  24  25
HETATM   25  C   UNK N   1      21.034  15.382   4.399  0.00  0.00     0.240 C 
BRANCH  25  26
HETATM   26  C   UNK N   1      20.811  15.029   2.977  0.00  0.00     0.078 A 
HETATM   27  C   UNK N   1      21.773  14.699   2.042  0.00  0.00     0.038 A 
HETATM   28  C   UNK N   1      21.070  14.414   0.879  0.00  0.00     0.047 A 
HETATM   29  C   UNK N   1      19.737  14.606   1.201  0.00  0.00     0.148 A 
HETATM   30  O   UNK N   1      19.623  14.969   2.446  0.00  0.00    -0.306 OA
BRANCH  29  31
HETATM   31  C   UNK N   1      18.581  14.405   0.325  0.00  0.00     0.201 C 
HETATM   32  O   UNK N   1      18.195  13.273   0.082  0.00  0.00    -0.645 OA
BRANCH  31  33
HETATM   33  O   UNK N   1      17.961  15.459  -0.237  0.00  0.00    -0.771 OA
HETATM   34  H   UNK N   1      17.685  15.563  -1.127  0.00  0.00     0.167 HD
ENDBRANCH  31  33
ENDBRANCH  29  31
ENDBRANCH  25  26
ENDBRANCH  24  25
ENDBRANCH  19  24
ENDBRANCH  11  16
ENDBRANCH   6   9
BRANCH   1  35
HETATM   35  C   UNK N   1      31.477  13.605   4.416  0.00  0.00     0.225 C 
BRANCH  35  36
HETATM   36  N   UNK N   1      31.869  13.622   5.798  0.00  0.00    -0.351 N 
HETATM   37  C   UNK N   1      32.825  14.478   6.242  0.00  0.00     0.241 C 
HETATM   38  O   UNK N   1      33.489  15.129   5.444  0.00  0.00    -0.271 OA
HETATM   39  H   UNK N   1      31.439  13.003   6.433  0.00  0.00     0.163 HD
BRANCH  37  40
HETATM   40  C   UNK N   1      33.036  14.651   7.726  0.00  0.00     0.192 C 
BRANCH  40  41
HETATM   41  C   UNK N   1      32.314  15.891   8.247  0.00  0.00     0.039 C 
BRANCH  41  42
HETATM   42  C   UNK N   1      33.297  16.958   8.680  0.00  0.00    -0.020 C 
HETATM   43  C   UNK N   1      34.652  16.328   8.937  0.00  0.00     0.009 C 
HETATM   44  C   UNK N   1      33.430  17.984   7.574  0.00  0.00     0.009 C 
ENDBRANCH  41  42
ENDBRANCH  40  41
BRANCH  40  45
HETATM   45  N   UNK N   1      32.472  13.514   8.425  0.00  0.00    -0.214 N 
HETATM   46  C   UNK N   1      33.220  12.462   9.020  0.00  0.00     0.666 C 
HETATM   47  N   UNK N   1      32.538  11.358   9.574  0.00  0.00    -0.235 N 
HETATM   48  N   UNK N   1      34.496  12.529   9.116  0.00  0.00    -0.235 N 
HETATM   49  H   UNK N   1      32.778  10.416   9.415  0.00  0.00     0.174 HD
HETATM   50  H   UNK N   1      31.769  11.541  10.160  0.00  0.00     0.174 HD
HETATM   51  H   UNK N   1      35.188  13.226   9.041  0.00  0.00     0.174 HD
ATOM     52  HN  UNK N   1      34.904  11.617   9.324  1.00  0.00     0.174 HD
HETATM   53  H   UNK N   1      31.491  13.467   8.492  0.00  0.00     0.178 HD
ENDBRANCH  40  45
ENDBRANCH  37  40
ENDBRANCH  35  36
ENDBRANCH   1  35
TORSDOF 13
ENDMDL
MODEL 8
REMARK VINA RESULT:      -7.9      2.322      3.392
REMARK  13 active torsions:
REMARK  status: ('A' for Active; 'I' for Inactive)
REMARK    1  A    between atoms: C_2  and  C_4 
REMARK    2  A    between atoms: C_4  and  C_5 
REMARK    3  A    between atoms: C_5  and  N_6 
REMARK    4  A    between atoms: C_5  and  C_11 
REMARK       I    between atoms: N_6  and  C_7 
REMARK       I    between atoms: C_7  and  N_8 
REMARK       I    between atoms: C_11  and  N_13 
REMARK    5  A    between atoms: N_13  and  C_14 
REMARK    6  A    between atoms: C_14  and  C_15 
REMARK       I    between atoms: C_15  and  N_17 
REMARK    7  A    between atoms: C_20  and  C_23 
REMARK    8  A    between atoms: C_25  and  C_30 
REMARK    9  A    between atoms: C_33  and  O_34 
REMARK   10  A    between atoms: O_34  and  C_35 
REMARK   11  A    between atoms: C_35  and  C_36 
REMARK   12  A    between atoms: C_39  and  C_41 
REMARK   13  A    between atoms: C_41  and  O_42 
ROOT
HETATM    1  C   UNK N   1      30.131  13.833   4.350  0.00  0.00     0.237 C 
HETATM    2  O   UNK N   1      29.345  12.913   4.527  0.00  0.00    -0.272 OA
HETATM    3  N   UNK N   1      29.660  15.111   4.257  0.00  0.00    -0.351 N 
HETATM    4  C   UNK N   1      28.326  15.382   4.702  0.00  0.00     0.126 C 
HETATM    5  C   UNK N   1      28.528  15.963   6.101  0.00  0.00     0.030 C 
HETATM    6  C   UNK N   1      29.360  17.272   6.012  0.00  0.00     0.040 C 
HETATM    7  C   UNK N   1      30.653  17.141   5.218  0.00  0.00     0.030 C 
HETATM    8  C   UNK N   1      30.505  16.256   3.982  0.00  0.00     0.126 C 
ENDROOT
BRANCH   6   9
HETATM    9  C   UNK N   1      28.466  18.438   5.737  0.00  0.00     0.034 A 
HETATM   10  C   UNK N   1      27.690  18.453   4.615  0.00  0.00     0.059 A 
HETATM   11  C   UNK N   1      26.511  19.040   5.000  0.00  0.00     0.062 A 
HETATM   12  N   UNK N   1      26.636  19.468   6.279  0.00  0.00    -0.298 N 
HETATM   13  N   UNK N   1      27.826  19.111   6.709  0.00  0.00    -0.300 N 
ATOM     14  HN  UNK N   1      25.931  19.976   6.813  1.00  0.00     0.187 HD
HETATM   15  C   UNK N   1      28.207  19.149   8.113  0.00  0.00     0.177 C 
BRANCH  11  16
HETATM   16  C   UNK N   1      25.297  18.332   4.519  0.00  0.00     0.016 A 
HETATM   17  C   UNK N   1      25.069  17.059   5.060  0.00  0.00     0.018 A 
HETATM   18  C   UNK N   1      23.831  16.462   5.012  0.00  0.00     0.039 A 
HETATM   19  C   UNK N   1      22.751  17.110   4.443  0.00  0.00     0.092 A 
HETATM   20  C   UNK N   1      22.952  18.390   3.823  0.00  0.00     0.090 A 
HETATM   21 Cl   UNK N   1      21.636  19.320   3.096  0.00  0.00    -0.080 Cl
HETATM   22  C   UNK N   1      24.235  18.991   3.852  0.00  0.00     0.071 A 
HETATM   23 Cl   UNK N   1      24.447  20.605   3.153  0.00  0.00    -0.081 Cl
BRANCH  19  24
HETATM   24  O   UNK N   1      21.563  16.459   4.546  0.00  0.00    -0.343 OA
BRANCH  24  25
HETATM   25  C   UNK N   1      20.451  16.875   5.223  0.00  0.00     0.240 C 
BRANCH  25  26
HETATM   26  C   UNK N   1      20.530  16.396   6.624  0.00  0.00     0.078 A 
HETATM   27  C   UNK N   1      20.248  17.120   7.766  0.00  0.00     0.038 A 
HETATM   28  C   UNK N   1      20.430  16.230   8.816  0.00  0.00     0.047 A 
HETATM   29  C   UNK N   1      20.820  15.041   8.225  0.00  0.00     0.148 A 
HETATM   30  O   UNK N   1      20.870  15.177   6.931  0.00  0.00    -0.306 OA
BRANCH  29  31
HETATM   31  C   UNK N   1      21.107  13.773   8.900  0.00  0.00     0.201 C 
HETATM   32  O   UNK N   1      21.624  13.779  10.006  0.00  0.00    -0.645 OA
BRANCH  31  33
HETATM   33  O   UNK N   1      20.834  12.603   8.295  0.00  0.00    -0.771 OA
HETATM   34  H   UNK N   1      21.331  11.809   8.316  0.00  0.00     0.167 HD
ENDBRANCH  31  33
ENDBRANCH  29  31
ENDBRANCH  25  26
ENDBRANCH  24  25
ENDBRANCH  19  24
ENDBRANCH  11  16
ENDBRANCH   6   9
BRANCH   1  35
HETATM   35  C   UNK N   1      31.594  13.517   4.469  0.00  0.00     0.225 C 
BRANCH  35  36
HETATM   36  N   UNK N   1      32.129  13.460   5.801  0.00  0.00    -0.351 N 
HETATM   37  C   UNK N   1      33.095  14.326   6.202  0.00  0.00     0.241 C 
HETATM   38  O   UNK N   1      33.647  15.056   5.387  0.00  0.00    -0.271 OA
HETATM   39  H   UNK N   1      31.790  12.784   6.432  0.00  0.00     0.163 HD
BRANCH  37  40
HETATM   40  C   UNK N   1      33.455  14.410   7.665  0.00  0.00     0.192 C 
BRANCH  40  41
HETATM   41  C   UNK N   1      33.057  15.761   8.255  0.00  0.00     0.039 C 
BRANCH  41  42
HETATM   42  C   UNK N   1      34.220  16.731   8.242  0.00  0.00    -0.020 C 
HETATM   43  C   UNK N   1      33.760  18.069   7.698  0.00  0.00     0.009 C 
HETATM   44  C   UNK N   1      34.722  16.920   9.658  0.00  0.00     0.009 C 
ENDBRANCH  41  42
ENDBRANCH  40  41
BRANCH  40  45
HETATM   45  N   UNK N   1      32.718  13.401   8.398  0.00  0.00    -0.214 N 
HETATM   46  C   UNK N   1      33.286  12.245   9.001  0.00  0.00     0.666 C 
HETATM   47  N   UNK N   1      32.437  11.286   9.590  0.00  0.00    -0.235 N 
HETATM   48  N   UNK N   1      34.557  12.092   9.070  0.00  0.00    -0.235 N 
HETATM   49  H   UNK N   1      32.507  10.314   9.446  0.00  0.00     0.174 HD
HETATM   50  H   UNK N   1      31.724  11.609  10.187  0.00  0.00     0.174 HD
HETATM   51  H   UNK N   1      35.357  12.657   8.967  0.00  0.00     0.174 HD
ATOM     52  HN  UNK N   1      34.806  11.127   9.289  1.00  0.00     0.174 HD
HETATM   53  H   UNK N   1      31.746  13.525   8.485  0.00  0.00     0.178 HD
ENDBRANCH  40  45
ENDBRANCH  37  40
ENDBRANCH  35  36
ENDBRANCH   1  35
TORSDOF 13
ENDMDL
MODEL 9
REMARK VINA RESULT:      -7.9      4.266      6.555
REMARK  13 active torsions:
REMARK  status: ('A' for Active; 'I' for Inactive)
REMARK    1  A    between atoms: C_2  and  C_4 
REMARK    2  A    between atoms: C_4  and  C_5 
REMARK    3  A    between atoms: C_5  and  N_6 
REMARK    4  A    between atoms: C_5  and  C_11 
REMARK       I    between atoms: N_6  and  C_7 
REMARK       I    between atoms: C_7  and  N_8 
REMARK       I    between atoms: C_11  and  N_13 
REMARK    5  A    between atoms: N_13  and  C_14 
REMARK    6  A    between atoms: C_14  and  C_15 
REMARK       I    between atoms: C_15  and  N_17 
REMARK    7  A    between atoms: C_20  and  C_23 
REMARK    8  A    between atoms: C_25  and  C_30 
REMARK    9  A    between atoms: C_33  and  O_34 
REMARK   10  A    between atoms: O_34  and  C_35 
REMARK   11  A    between atoms: C_35  and  C_36 
REMARK   12  A    between atoms: C_39  and  C_41 
REMARK   13  A    between atoms: C_41  and  O_42 
ROOT
HETATM    1  C   UNK N   1      27.166  18.031   5.673  0.00  0.00     0.237 C 
HETATM    2  O   UNK N   1      26.707  18.917   4.966  0.00  0.00    -0.272 OA
HETATM    3  N   UNK N   1      26.865  16.728   5.399  0.00  0.00    -0.351 N 
HETATM    4  C   UNK N   1      26.315  16.409   4.116  0.00  0.00     0.126 C 
HETATM    5  C   UNK N   1      27.520  15.900   3.327  0.00  0.00     0.030 C 
HETATM    6  C   UNK N   1      28.101  14.633   4.012  0.00  0.00     0.040 C 
HETATM    7  C   UNK N   1      28.376  14.795   5.501  0.00  0.00     0.030 C 
HETATM    8  C   UNK N   1      27.307  15.616   6.218  0.00  0.00     0.126 C 
ENDROOT
BRANCH   6   9
HETATM    9  C   UNK N   1      27.374  13.412   3.547  0.00  0.00     0.034 A 
HETATM   10  C   UNK N   1      26.088  13.190   3.944  0.00  0.00     0.059 A 
HETATM   11  C   UNK N   1      25.463  12.641   2.854  0.00  0.00     0.062 A 
HETATM   12  N   UNK N   1      26.385  12.432   1.884  0.00  0.00    -0.298 N 
HETATM   13  N   UNK N   1      27.538  12.889   2.319  0.00  0.00    -0.300 N 
ATOM     14  HN  UNK N   1      26.214  11.998   0.976  1.00  0.00     0.187 HD
HETATM   15  C   UNK N   1      28.690  13.093   1.453  0.00  0.00     0.177 C 
BRANCH  11  16
HETATM   16  C   UNK N   1      24.128  13.224   2.563  0.00  0.00     0.016 A 
HETATM   17  C   UNK N   1      24.067  14.623   2.494  0.00  0.00     0.018 A 
HETATM   18  C   UNK N   1      23.028  15.274   1.874  0.00  0.00     0.039 A 
HETATM   19  C   UNK N   1      22.006  14.567   1.268  0.00  0.00     0.092 A 
HETATM   20  C   UNK N   1      21.996  13.134   1.366  0.00  0.00     0.090 A 
HETATM   21 Cl   UNK N   1      20.757  12.131   0.602  0.00  0.00    -0.080 Cl
HETATM   22  C   UNK N   1      23.057  12.467   2.029  0.00  0.00     0.071 A 
HETATM   23 Cl   UNK N   1      23.070  10.696   2.071  0.00  0.00    -0.081 Cl
BRANCH  19  24
HETATM   24  O   UNK N   1      21.092  15.320   0.604  0.00  0.00    -0.343 OA
BRANCH  24  25
HETATM   25  C   UNK N   1      19.879  15.745   1.070  0.00  0.00     0.240 C 
BRANCH  25  26
HETATM   26  C   UNK N   1      20.026  17.108   1.632  0.00  0.00     0.078 A 
HETATM   27  C   UNK N   1      19.752  17.507   2.927  0.00  0.00     0.038 A 
HETATM   28  C   UNK N   1      20.084  18.854   2.972  0.00  0.00     0.047 A 
HETATM   29  C   UNK N   1      20.522  19.167   1.696  0.00  0.00     0.148 A 
HETATM   30  O   UNK N   1      20.473  18.112   0.933  0.00  0.00    -0.306 OA
BRANCH  29  31
HETATM   31  C   UNK N   1      21.018  20.462   1.226  0.00  0.00     0.201 C 
HETATM   32  O   UNK N   1      21.683  21.162   1.973  0.00  0.00    -0.645 OA
BRANCH  31  33
HETATM   33  O   UNK N   1      20.720  20.897  -0.012  0.00  0.00    -0.771 OA
HETATM   34  H   UNK N   1      20.161  21.608  -0.257  0.00  0.00     0.167 HD
ENDBRANCH  31  33
ENDBRANCH  29  31
ENDBRANCH  25  26
ENDBRANCH  24  25
ENDBRANCH  19  24
ENDBRANCH  11  16
ENDBRANCH   6   9
BRANCH   1  35
HETATM   35  C   UNK N   1      28.216  18.426   6.671  0.00  0.00     0.225 C 
BRANCH  35  36
HETATM   36  N   UNK N   1      29.544  17.931   6.430  0.00  0.00    -0.351 N 
HETATM   37  C   UNK N   1      30.335  17.527   7.457  0.00  0.00     0.241 C 
HETATM   38  O   UNK N   1      29.996  17.737   8.617  0.00  0.00    -0.271 OA
HETATM   39  H   UNK N   1      29.885  17.885   5.507  0.00  0.00     0.163 HD
BRANCH  37  40
HETATM   40  C   UNK N   1      31.613  16.783   7.162  0.00  0.00     0.192 C 
BRANCH  40  41
HETATM   41  C   UNK N   1      31.629  16.259   5.728  0.00  0.00     0.039 C 
BRANCH  41  42
HETATM   42  C   UNK N   1      32.793  16.832   4.946  0.00  0.00    -0.020 C 
HETATM   43  C   UNK N   1      33.740  15.715   4.551  0.00  0.00     0.009 C 
HETATM   44  C   UNK N   1      32.265  17.498   3.692  0.00  0.00     0.009 C 
ENDBRANCH  41  42
ENDBRANCH  40  41
BRANCH  40  45
HETATM   45  N   UNK N   1      32.735  17.692   7.286  0.00  0.00    -0.214 N 
HETATM   46  C   UNK N   1      33.623  17.754   8.394  0.00  0.00     0.666 C 
HETATM   47  N   UNK N   1      34.608  18.763   8.435  0.00  0.00    -0.235 N 
HETATM   48  N   UNK N   1      33.582  16.873   9.324  0.00  0.00    -0.235 N 
HETATM   49  H   UNK N   1      34.800  19.325   9.220  0.00  0.00     0.174 HD
HETATM   50  H   UNK N   1      35.140  18.917   7.621  0.00  0.00     0.174 HD
HETATM   51  H   UNK N   1      33.193  15.978   9.452  0.00  0.00     0.174 HD
ATOM     52  HN  UNK N   1      34.088  17.183  10.155  1.00  0.00     0.174 HD
HETATM   53  H   UNK N   1      32.894  18.318   6.543  0.00  0.00     0.178 HD
ENDBRANCH  40  45
ENDBRANCH  37  40
ENDBRANCH  35  36
ENDBRANCH   1  35
TORSDOF 13
ENDMDL
