REMARK  3 active torsions:
REMARK  status: ('A' for Active; 'I' for Inactive)
REMARK    1  A    between atoms: C_2  and  N_3 
REMARK    2  A    between atoms: N_3  and  C_4 
REMARK    3  A    between atoms: C_4  and  C_5 
ROOT
HETATM    1  C   UNK N   1       1.087   1.212   0.000  0.00  0.00    -0.041 A 
HETATM    2  C   UNK N   1       2.298   0.510   0.000  0.00  0.00     0.009 A 
HETATM    3  C   UNK N   1       2.298  -0.889   0.000  0.00  0.00     0.001 A 
HETATM    4  C   UNK N   1       1.089  -1.591   0.000  0.00  0.00     0.000 A 
HETATM    5  C   UNK N   1      -0.123  -0.895  -0.000  0.00  0.00     0.001 A 
HETATM    6  C   UNK N   1      -0.124   0.501  -0.000  0.00  0.00     0.009 A 
ENDROOT
BRANCH   1   7
HETATM    7  C   UNK N   1       1.108   2.713  -0.000  0.00  0.00     0.160 C 
BRANCH   7   8
HETATM    8  N   UNK N   1      -0.229   3.251  -0.000  0.00  0.00    -0.364 N 
HETATM    9  H   UNK N   1      -1.000   2.639  -0.000  0.00  0.00     0.162 HD
BRANCH   8  10
HETATM   10  C   UNK N   1      -0.434   4.578  -0.000  0.00  0.00     0.348 C 
HETATM   11  O   UNK N   1      -1.578   5.015  -0.000  0.00  0.00    -0.284 OA
ENDBRANCH   8  10
ENDBRANCH   7   8
ENDBRANCH   1   7
TORSDOF 3
