MODEL 1
REMARK VINA RESULT:      -3.9      0.000      0.000
REMARK  6 active torsions:
REMARK  status: ('A' for Active; 'I' for Inactive)
REMARK    1  A    between atoms: C_3  and  C_1 
REMARK    2  A    between atoms: N_5  and  C_1 
REMARK    3  A    between atoms: C_3  and  C_2 
REMARK    4  A    between atoms: O_6  and  C_2 
REMARK    5  A    between atoms: C_3  and  C_4 
REMARK    6  A    between atoms: O_8  and  C_4 
ROOT
HETATM    1  C   UNK N   1      21.068  18.963   2.288  0.00  0.00     0.124 C 
ENDROOT
BRANCH   1   2
HETATM    2  C   UNK N   1      19.799  18.141   2.494  0.00  0.00     0.128 C 
BRANCH   2   3
HETATM    3  N   UNK N   1      18.609  18.953   2.295  0.00  0.00    -0.429 N 
HETATM    4  H   UNK N   1      18.459  19.638   1.554  0.00  0.00     0.149 HD
HETATM    5  H   UNK N   1      17.848  18.825   2.963  0.00  0.00     0.149 HD
ENDBRANCH   2   3
ENDBRANCH   1   2
BRANCH   1   6
HETATM    6  C   UNK N   1      21.493  19.486   3.661  0.00  0.00     0.181 C 
BRANCH   6   7
HETATM    7  O   UNK N   1      20.500  20.288   4.225  0.00  0.00    -0.400 OA
HETATM    8  H   UNK N   1      20.116  20.266   5.115  0.00  0.00     0.209 HD
ENDBRANCH   6   7
ENDBRANCH   1   6
BRANCH   1   9
HETATM    9  C   UNK N   1      20.828  20.083   1.293  0.00  0.00     0.147 C 
HETATM   10  O   UNK N   1      20.862  21.251   1.643  0.00  0.00    -0.650 OA
BRANCH   9  11
HETATM   11  O   UNK N   1      20.587  19.789  -0.001  0.00  0.00    -0.776 OA
HETATM   12  H   UNK N   1      19.953  19.160  -0.284  0.00  0.00     0.167 HD
ENDBRANCH   9  11
ENDBRANCH   1   9
TORSDOF 6
ENDMDL
MODEL 2
REMARK VINA RESULT:      -3.8      1.824      2.578
REMARK  6 active torsions:
REMARK  status: ('A' for Active; 'I' for Inactive)
REMARK    1  A    between atoms: C_3  and  C_1 
REMARK    2  A    between atoms: N_5  and  C_1 
REMARK    3  A    between atoms: C_3  and  C_2 
REMARK    4  A    between atoms: O_6  and  C_2 
REMARK    5  A    between atoms: C_3  and  C_4 
REMARK    6  A    between atoms: O_8  and  C_4 
ROOT
HETATM    1  C   UNK N   1      20.915  19.387   2.212  0.00  0.00     0.124 C 
ENDROOT
BRANCH   1   2
HETATM    2  C   UNK N   1      20.639  19.710   0.746  0.00  0.00     0.128 C 
BRANCH   2   3
HETATM    3  N   UNK N   1      20.236  21.097   0.580  0.00  0.00    -0.429 N 
HETATM    4  H   UNK N   1      20.246  21.821   1.299  0.00  0.00     0.149 HD
HETATM    5  H   UNK N   1      19.910  21.373  -0.347  0.00  0.00     0.149 HD
ENDBRANCH   2   3
ENDBRANCH   1   2
BRANCH   1   6
HETATM    6  C   UNK N   1      19.806  18.446   2.682  0.00  0.00     0.181 C 
BRANCH   6   7
HETATM    7  O   UNK N   1      18.550  18.911   2.288  0.00  0.00    -0.400 OA
HETATM    8  H   UNK N   1      17.984  19.587   2.691  0.00  0.00     0.209 HD
ENDBRANCH   6   7
ENDBRANCH   1   6
BRANCH   1   9
HETATM    9  C   UNK N   1      20.984  20.657   3.038  0.00  0.00     0.147 C 
HETATM   10  O   UNK N   1      20.143  20.900   3.887  0.00  0.00    -0.650 OA
BRANCH   9  11
HETATM   11  O   UNK N   1      21.995  21.529   2.845  0.00  0.00    -0.776 OA
HETATM   12  H   UNK N   1      22.716  21.373   2.268  0.00  0.00     0.167 HD
ENDBRANCH   9  11
ENDBRANCH   1   9
TORSDOF 6
ENDMDL
MODEL 3
REMARK VINA RESULT:      -3.7      2.050      2.368
REMARK  6 active torsions:
REMARK  status: ('A' for Active; 'I' for Inactive)
REMARK    1  A    between atoms: C_3  and  C_1 
REMARK    2  A    between atoms: N_5  and  C_1 
REMARK    3  A    between atoms: C_3  and  C_2 
REMARK    4  A    between atoms: O_6  and  C_2 
REMARK    5  A    between atoms: C_3  and  C_4 
REMARK    6  A    between atoms: O_8  and  C_4 
ROOT
HETATM    1  C   UNK N   1      20.475  19.861   2.665  0.00  0.00     0.124 C 
ENDROOT
BRANCH   1   2
HETATM    2  C   UNK N   1      21.840  19.501   3.243  0.00  0.00     0.128 C 
BRANCH   2   3
HETATM    3  N   UNK N   1      22.860  20.443   2.808  0.00  0.00    -0.429 N 
HETATM    4  H   UNK N   1      22.929  21.426   3.073  0.00  0.00     0.149 HD
HETATM    5  H   UNK N   1      23.576  20.085   2.175  0.00  0.00     0.149 HD
ENDBRANCH   2   3
ENDBRANCH   1   2
BRANCH   1   6
HETATM    6  C   UNK N   1      19.622  18.592   2.702  0.00  0.00     0.181 C 
BRANCH   6   7
HETATM    7  O   UNK N   1      18.307  18.857   2.313  0.00  0.00    -0.400 OA
HETATM    8  H   UNK N   1      17.953  19.081   1.438  0.00  0.00     0.209 HD
ENDBRANCH   6   7
ENDBRANCH   1   6
BRANCH   1   9
HETATM    9  C   UNK N   1      20.615  20.422   1.262  0.00  0.00     0.147 C 
HETATM   10  O   UNK N   1      20.805  21.613   1.079  0.00  0.00    -0.650 OA
BRANCH   9  11
HETATM   11  O   UNK N   1      20.543  19.595   0.199  0.00  0.00    -0.776 OA
HETATM   12  H   UNK N   1      21.205  18.972  -0.023  0.00  0.00     0.167 HD
ENDBRANCH   9  11
ENDBRANCH   1   9
TORSDOF 6
ENDMDL
MODEL 4
REMARK VINA RESULT:      -3.6     14.512     15.263
REMARK  6 active torsions:
REMARK  status: ('A' for Active; 'I' for Inactive)
REMARK    1  A    between atoms: C_3  and  C_1 
REMARK    2  A    between atoms: N_5  and  C_1 
REMARK    3  A    between atoms: C_3  and  C_2 
REMARK    4  A    between atoms: O_6  and  C_2 
REMARK    5  A    between atoms: C_3  and  C_4 
REMARK    6  A    between atoms: O_8  and  C_4 
ROOT
HETATM    1  C   UNK N   1      34.290  16.558   8.320  0.00  0.00     0.124 C 
ENDROOT
BRANCH   1   2
HETATM    2  C   UNK N   1      32.841  16.380   8.766  0.00  0.00     0.128 C 
BRANCH   2   3
HETATM    3  N   UNK N   1      32.152  17.660   8.836  0.00  0.00    -0.429 N 
HETATM    4  H   UNK N   1      32.512  18.520   9.250  0.00  0.00     0.149 HD
HETATM    5  H   UNK N   1      31.216  17.700   8.432  0.00  0.00     0.149 HD
ENDBRANCH   2   3
ENDBRANCH   1   2
BRANCH   1   6
HETATM    6  C   UNK N   1      35.168  16.368   9.557  0.00  0.00     0.181 C 
BRANCH   6   7
HETATM    7  O   UNK N   1      34.710  17.143  10.624  0.00  0.00    -0.400 OA
HETATM    8  H   UNK N   1      33.875  17.090  11.115  0.00  0.00     0.209 HD
ENDBRANCH   6   7
ENDBRANCH   1   6
BRANCH   1   9
HETATM    9  C   UNK N   1      34.490  17.915   7.671  0.00  0.00     0.147 C 
HETATM   10  O   UNK N   1      34.226  18.092   6.493  0.00  0.00    -0.650 OA
BRANCH   9  11
HETATM   11  O   UNK N   1      34.955  18.947   8.405  0.00  0.00    -0.776 OA
HETATM   12  H   UNK N   1      35.782  19.360   8.258  0.00  0.00     0.167 HD
ENDBRANCH   9  11
ENDBRANCH   1   9
TORSDOF 6
ENDMDL
MODEL 5
REMARK VINA RESULT:      -3.6      1.425      2.754
REMARK  6 active torsions:
REMARK  status: ('A' for Active; 'I' for Inactive)
REMARK    1  A    between atoms: C_3  and  C_1 
REMARK    2  A    between atoms: N_5  and  C_1 
REMARK    3  A    between atoms: C_3  and  C_2 
REMARK    4  A    between atoms: O_6  and  C_2 
REMARK    5  A    between atoms: C_3  and  C_4 
REMARK    6  A    between atoms: O_8  and  C_4 
ROOT
HETATM    1  C   UNK N   1      20.756  20.176   2.439  0.00  0.00     0.124 C 
ENDROOT
BRANCH   1   2
HETATM    2  C   UNK N   1      20.237  18.750   2.277  0.00  0.00     0.128 C 
BRANCH   2   3
HETATM    3  N   UNK N   1      18.783  18.714   2.298  0.00  0.00    -0.429 N 
HETATM    4  H   UNK N   1      18.176  18.310   1.585  0.00  0.00     0.149 HD
HETATM    5  H   UNK N   1      18.325  19.136   3.107  0.00  0.00     0.149 HD
ENDBRANCH   2   3
ENDBRANCH   1   2
BRANCH   1   6
HETATM    6  C   UNK N   1      20.649  20.852   1.072  0.00  0.00     0.181 C 
BRANCH   6   7
HETATM    7  O   UNK N   1      20.628  19.908   0.043  0.00  0.00    -0.400 OA
HETATM    8  H   UNK N   1      19.942  19.266  -0.195  0.00  0.00     0.209 HD
ENDBRANCH   6   7
ENDBRANCH   1   6
BRANCH   1   9
HETATM    9  C   UNK N   1      22.176  20.174   2.974  0.00  0.00     0.147 C 
HETATM   10  O   UNK N   1      22.644  19.182   3.508  0.00  0.00    -0.650 OA
BRANCH   9  11
HETATM   11  O   UNK N   1      22.940  21.278   2.850  0.00  0.00    -0.776 OA
HETATM   12  H   UNK N   1      23.073  21.733   2.043  0.00  0.00     0.167 HD
ENDBRANCH   9  11
ENDBRANCH   1   9
TORSDOF 6
ENDMDL
MODEL 6
REMARK VINA RESULT:      -3.5     14.406     15.170
REMARK  6 active torsions:
REMARK  status: ('A' for Active; 'I' for Inactive)
REMARK    1  A    between atoms: C_3  and  C_1 
REMARK    2  A    between atoms: N_5  and  C_1 
REMARK    3  A    between atoms: C_3  and  C_2 
REMARK    4  A    between atoms: O_6  and  C_2 
REMARK    5  A    between atoms: C_3  and  C_4 
REMARK    6  A    between atoms: O_8  and  C_4 
ROOT
HETATM    1  C   UNK N   1      33.599  17.376   8.858  0.00  0.00     0.124 C 
ENDROOT
BRANCH   1   2
HETATM    2  C   UNK N   1      34.490  16.409   9.634  0.00  0.00     0.128 C 
BRANCH   2   3
HETATM    3  N   UNK N   1      35.124  17.070  10.764  0.00  0.00    -0.429 N 
HETATM    4  H   UNK N   1      34.911  16.921  11.750  0.00  0.00     0.149 HD
HETATM    5  H   UNK N   1      35.853  17.750  10.548  0.00  0.00     0.149 HD
ENDBRANCH   2   3
ENDBRANCH   1   2
BRANCH   1   6
HETATM    6  C   UNK N   1      32.597  16.532   8.070  0.00  0.00     0.181 C 
BRANCH   6   7
HETATM    7  O   UNK N   1      31.708  17.339   7.358  0.00  0.00    -0.400 OA
HETATM    8  H   UNK N   1      31.627  18.305   7.339  0.00  0.00     0.209 HD
ENDBRANCH   6   7
ENDBRANCH   1   6
BRANCH   1   9
HETATM    9  C   UNK N   1      34.432  18.272   7.961  0.00  0.00     0.147 C 
HETATM   10  O   UNK N   1      35.110  19.172   8.429  0.00  0.00    -0.650 OA
BRANCH   9  11
HETATM   11  O   UNK N   1      34.435  18.070   6.628  0.00  0.00    -0.776 OA
HETATM   12  H   UNK N   1      33.660  18.008   6.108  0.00  0.00     0.167 HD
ENDBRANCH   9  11
ENDBRANCH   1   9
TORSDOF 6
ENDMDL
MODEL 7
REMARK VINA RESULT:      -3.5     14.140     14.756
REMARK  6 active torsions:
REMARK  status: ('A' for Active; 'I' for Inactive)
REMARK    1  A    between atoms: C_3  and  C_1 
REMARK    2  A    between atoms: N_5  and  C_1 
REMARK    3  A    between atoms: C_3  and  C_2 
REMARK    4  A    between atoms: O_6  and  C_2 
REMARK    5  A    between atoms: C_3  and  C_4 
REMARK    6  A    between atoms: O_8  and  C_4 
ROOT
HETATM    1  C   UNK N   1      33.294  17.989   7.414  0.00  0.00     0.124 C 
ENDROOT
BRANCH   1   2
HETATM    2  C   UNK N   1      32.113  17.186   7.951  0.00  0.00     0.128 C 
BRANCH   2   3
HETATM    3  N   UNK N   1      31.398  17.926   8.979  0.00  0.00    -0.429 N 
HETATM    4  H   UNK N   1      30.388  17.942   9.123  0.00  0.00     0.149 HD
HETATM    5  H   UNK N   1      31.962  18.486   9.619  0.00  0.00     0.149 HD
ENDBRANCH   2   3
ENDBRANCH   1   2
BRANCH   1   6
HETATM    6  C   UNK N   1      33.828  17.241   6.192  0.00  0.00     0.181 C 
BRANCH   6   7
HETATM    7  O   UNK N   1      34.966  16.498   6.514  0.00  0.00    -0.400 OA
HETATM    8  H   UNK N   1      35.396  15.781   6.025  0.00  0.00     0.209 HD
ENDBRANCH   6   7
ENDBRANCH   1   6
BRANCH   1   9
HETATM    9  C   UNK N   1      34.351  18.175   8.487  0.00  0.00     0.147 C 
HETATM   10  O   UNK N   1      35.198  19.047   8.388  0.00  0.00    -0.650 OA
BRANCH   9  11
HETATM   11  O   UNK N   1      34.351  17.375   9.573  0.00  0.00    -0.776 OA
HETATM   12  H   UNK N   1      34.609  17.656  10.427  0.00  0.00     0.167 HD
ENDBRANCH   9  11
ENDBRANCH   1   9
TORSDOF 6
ENDMDL
MODEL 8
REMARK VINA RESULT:      -3.4     18.872     19.612
REMARK  6 active torsions:
REMARK  status: ('A' for Active; 'I' for Inactive)
REMARK    1  A    between atoms: C_3  and  C_1 
REMARK    2  A    between atoms: N_5  and  C_1 
REMARK    3  A    between atoms: C_3  and  C_2 
REMARK    4  A    between atoms: O_6  and  C_2 
REMARK    5  A    between atoms: C_3  and  C_4 
REMARK    6  A    between atoms: O_8  and  C_4 
ROOT
HETATM    1  C   UNK N   1      35.551  14.428  11.744  0.00  0.00     0.124 C 
ENDROOT
BRANCH   1   2
HETATM    2  C   UNK N   1      36.522  13.556  10.954  0.00  0.00     0.128 C 
BRANCH   2   3
HETATM    3  N   UNK N   1      37.675  13.189  11.762  0.00  0.00    -0.429 N 
HETATM    4  H   UNK N   1      38.648  13.169  11.456  0.00  0.00     0.149 HD
HETATM    5  H   UNK N   1      37.492  12.925  12.731  0.00  0.00     0.149 HD
ENDBRANCH   2   3
ENDBRANCH   1   2
BRANCH   1   6
HETATM    6  C   UNK N   1      35.717  15.861  11.234  0.00  0.00     0.181 C 
BRANCH   6   7
HETATM    7  O   UNK N   1      37.046  16.124  10.895  0.00  0.00    -0.400 OA
HETATM    8  H   UNK N   1      37.531  16.963  10.898  0.00  0.00     0.209 HD
ENDBRANCH   6   7
ENDBRANCH   1   6
BRANCH   1   9
HETATM    9  C   UNK N   1      35.811  14.311  13.234  0.00  0.00     0.147 C 
HETATM   10  O   UNK N   1      35.166  13.539  13.924  0.00  0.00    -0.650 OA
BRANCH   9  11
HETATM   11  O   UNK N   1      36.775  15.059  13.807  0.00  0.00    -0.776 OA
HETATM   12  H   UNK N   1      37.661  14.775  13.913  0.00  0.00     0.167 HD
ENDBRANCH   9  11
ENDBRANCH   1   9
TORSDOF 6
ENDMDL
MODEL 9
REMARK VINA RESULT:      -3.4     15.949     16.810
REMARK  6 active torsions:
REMARK  status: ('A' for Active; 'I' for Inactive)
REMARK    1  A    between atoms: C_3  and  C_1 
REMARK    2  A    between atoms: N_5  and  C_1 
REMARK    3  A    between atoms: C_3  and  C_2 
REMARK    4  A    between atoms: O_6  and  C_2 
REMARK    5  A    between atoms: C_3  and  C_4 
REMARK    6  A    between atoms: O_8  and  C_4 
ROOT
HETATM    1  C   UNK N   1      35.011  15.474   9.393  0.00  0.00     0.124 C 
ENDROOT
BRANCH   1   2
HETATM    2  C   UNK N   1      34.123  16.267   8.438  0.00  0.00     0.128 C 
BRANCH   2   3
HETATM    3  N   UNK N   1      32.936  16.765   9.116  0.00  0.00    -0.429 N 
HETATM    4  H   UNK N   1      32.025  16.309   9.156  0.00  0.00     0.149 HD
HETATM    5  H   UNK N   1      33.024  17.660   9.599  0.00  0.00     0.149 HD
ENDBRANCH   2   3
ENDBRANCH   1   2
BRANCH   1   6
HETATM    6  C   UNK N   1      34.105  14.495  10.141  0.00  0.00     0.181 C 
BRANCH   6   7
HETATM    7  O   UNK N   1      33.768  14.986  11.405  0.00  0.00    -0.400 OA
HETATM    8  H   UNK N   1      34.323  15.107  12.190  0.00  0.00     0.209 HD
ENDBRANCH   6   7
ENDBRANCH   1   6
BRANCH   1   9
HETATM    9  C   UNK N   1      35.758  16.403  10.331  0.00  0.00     0.147 C 
HETATM   10  O   UNK N   1      35.395  17.557  10.491  0.00  0.00    -0.650 OA
BRANCH   9  11
HETATM   11  O   UNK N   1      36.831  15.949  11.010  0.00  0.00    -0.776 OA
HETATM   12  H   UNK N   1      37.623  15.662  10.601  0.00  0.00     0.167 HD
ENDBRANCH   9  11
ENDBRANCH   1   9
TORSDOF 6
ENDMDL
