MODEL 1
REMARK VINA RESULT:      -8.6      0.000      0.000
REMARK  15 active torsions:
REMARK  status: ('A' for Active; 'I' for Inactive)
REMARK    1  A    between atoms: C_16  and  C_8 
REMARK    2  A    between atoms: O_31  and  C_8 
REMARK    3  A    between atoms: C_17  and  C_9 
REMARK    4  A    between atoms: O_32  and  C_9 
REMARK    5  A    between atoms: O_33  and  C_11 
REMARK    6  A    between atoms: O_34  and  C_12 
REMARK    7  A    between atoms: O_39  and  C_13 
REMARK    8  A    between atoms: C_19  and  N_27 
REMARK    9  A    between atoms: C_20  and  N_29 
REMARK   10  A    between atoms: C_21  and  O_36 
REMARK   11  A    between atoms: C_22  and  O_37 
REMARK   12  A    between atoms: C_23  and  O_38 
REMARK   13  A    between atoms: C_24  and  O_43 
REMARK   14  A    between atoms: C_25  and  O_39 
REMARK   15  A    between atoms: C_26  and  O_43 
ROOT
HETATM    1  C   UNK N   1      28.427  16.685   4.339  0.00  0.00     0.180 C 
HETATM    2  C   UNK N   1      27.924  18.986   6.033  0.00  0.00     0.170 C 
HETATM    3  C   UNK N   1      28.502  17.679   6.689  0.00  0.00     0.177 C 
HETATM    4  C   UNK N   1      29.276  16.818   5.637  0.00  0.00     0.186 C 
HETATM    5  C   UNK N   1      27.087  18.514   4.823  0.00  0.00     0.292 C 
HETATM    6  O   UNK N   1      28.021  17.954   3.929  0.00  0.00    -0.349 OA
ENDROOT
BRANCH   4   7
HETATM    7  O   UNK N   1      29.859  15.620   6.199  0.00  0.00    -0.348 OA
BRANCH   7   8
HETATM    8  C   UNK N   1      31.261  15.324   6.065  0.00  0.00     0.286 C 
HETATM    9  C   UNK N   1      32.018  16.217   7.109  0.00  0.00     0.169 C 
HETATM   10  C   UNK N   1      33.547  16.094   6.924  0.00  0.00     0.177 C 
HETATM   11  C   UNK N   1      33.928  16.398   5.474  0.00  0.00     0.180 C 
HETATM   12  C   UNK N   1      33.114  15.457   4.582  0.00  0.00     0.179 C 
HETATM   13  O   UNK N   1      31.738  15.694   4.783  0.00  0.00    -0.349 OA
BRANCH   9  14
HETATM   14  N   UNK N   1      31.713  16.050   8.532  0.00  0.00    -0.363 N 
HETATM   15  C   UNK N   1      31.954  15.091   9.364  0.00  0.00     0.107 C 
HETATM   16  C   UNK N   1      32.697  13.849   9.003  0.00  0.00     0.097 C 
ATOM     17  HN  UNK N   1      31.215  16.840   8.943  1.00  0.00     0.162 HD
BRANCH  15  18
HETATM   18  O   UNK N   1      31.532  15.225  10.635  0.00  0.00    -0.350 OA
HETATM   19  H   UNK N   1      31.309  16.068  10.977  0.00  0.00     0.219 HD
ENDBRANCH  15  18
ENDBRANCH   9  14
BRANCH  10  20
HETATM   20  O   UNK N   1      34.218  16.979   7.774  0.00  0.00    -0.391 OA
HETATM   21  H   UNK N   1      34.309  16.854   8.731  0.00  0.00     0.210 HD
ENDBRANCH  10  20
BRANCH  11  22
HETATM   22  O   UNK N   1      33.631  17.734   5.174  0.00  0.00    -0.390 OA
HETATM   23  H   UNK N   1      33.740  18.691   5.061  0.00  0.00     0.210 HD
ENDBRANCH  11  22
BRANCH  12  24
HETATM   24  C   UNK N   1      33.437  15.664   3.099  0.00  0.00     0.198 C 
BRANCH  24  25
HETATM   25  O   UNK N   1      32.808  16.805   2.593  0.00  0.00    -0.398 OA
HETATM   26  H   UNK N   1      32.379  17.391   1.949  0.00  0.00     0.209 HD
ENDBRANCH  24  25
ENDBRANCH  12  24
ENDBRANCH   7   8
ENDBRANCH   4   7
BRANCH   1  27
HETATM   27  C   UNK N   1      29.220  16.129   3.150  0.00  0.00     0.198 C 
BRANCH  27  28
HETATM   28  O   UNK N   1      30.113  17.075   2.645  0.00  0.00    -0.398 OA
HETATM   29  H   UNK N   1      30.808  17.494   2.114  0.00  0.00     0.209 HD
ENDBRANCH  27  28
ENDBRANCH   1  27
BRANCH   3  30
HETATM   30  O   UNK N   1      29.357  18.020   7.741  0.00  0.00    -0.391 OA
HETATM   31  H   UNK N   1      29.046  18.355   8.596  0.00  0.00     0.210 HD
ENDBRANCH   3  30
BRANCH   2  32
HETATM   32  N   UNK N   1      27.154  19.753   7.000  0.00  0.00    -0.363 N 
HETATM   33  C   UNK N   1      26.846  20.998   6.831  0.00  0.00     0.107 C 
HETATM   34  C   UNK N   1      26.077  21.715   7.886  0.00  0.00     0.097 C 
ATOM     35  HN  UNK N   1      26.843  19.286   7.851  1.00  0.00     0.162 HD
BRANCH  33  36
HETATM   36  O   UNK N   1      27.240  21.673   5.731  0.00  0.00    -0.350 OA
HETATM   37  H   UNK N   1      27.619  22.509   5.542  0.00  0.00     0.219 HD
ENDBRANCH  33  36
ENDBRANCH   2  32
BRANCH   5  38
HETATM   38  O   UNK N   1      26.400  19.477   4.095  0.00  0.00    -0.318 OA
BRANCH  38  39
HETATM   39  C   UNK N   1      25.031  19.401   4.007  0.00  0.00     0.074 A 
HETATM   40  C   UNK N   1      24.332  18.345   4.635  0.00  0.00     0.038 A 
HETATM   41  C   UNK N   1      22.984  18.127   4.405  0.00  0.00     0.017 A 
HETATM   42  C   UNK N   1      22.286  18.973   3.547  0.00  0.00     0.004 A 
HETATM   43  C   UNK N   1      20.939  18.744   3.244  0.00  0.00    -0.043 A 
HETATM   44  C   UNK N   1      22.946  20.076   2.957  0.00  0.00     0.092 A 
HETATM   45  C   UNK N   1      20.194  17.572   3.798  0.00  0.00     0.049 C 
HETATM   46  C   UNK N   1      20.284  19.622   2.385  0.00  0.00     0.090 A 
HETATM   47  C   UNK N   1      20.989  20.704   1.855  0.00  0.00     0.288 A 
HETATM   48  O   UNK N   1      20.418  21.483   1.108  0.00  0.00    -0.260 OA
HETATM   49  O   UNK N   1      22.275  20.894   2.145  0.00  0.00    -0.275 OA
HETATM   50  C   UNK N   1      24.318  20.287   3.188  0.00  0.00     0.075 A 
ENDBRANCH  38  39
ENDBRANCH   5  38
TORSDOF 15
ENDMDL
MODEL 2
REMARK VINA RESULT:      -8.3      1.417      2.461
REMARK  15 active torsions:
REMARK  status: ('A' for Active; 'I' for Inactive)
REMARK    1  A    between atoms: C_16  and  C_8 
REMARK    2  A    between atoms: O_31  and  C_8 
REMARK    3  A    between atoms: C_17  and  C_9 
REMARK    4  A    between atoms: O_32  and  C_9 
REMARK    5  A    between atoms: O_33  and  C_11 
REMARK    6  A    between atoms: O_34  and  C_12 
REMARK    7  A    between atoms: O_39  and  C_13 
REMARK    8  A    between atoms: C_19  and  N_27 
REMARK    9  A    between atoms: C_20  and  N_29 
REMARK   10  A    between atoms: C_21  and  O_36 
REMARK   11  A    between atoms: C_22  and  O_37 
REMARK   12  A    between atoms: C_23  and  O_38 
REMARK   13  A    between atoms: C_24  and  O_43 
REMARK   14  A    between atoms: C_25  and  O_39 
REMARK   15  A    between atoms: C_26  and  O_43 
ROOT
HETATM    1  C   UNK N   1      29.010  17.182   4.412  0.00  0.00     0.180 C 
HETATM    2  C   UNK N   1      28.004  19.293   6.129  0.00  0.00     0.170 C 
HETATM    3  C   UNK N   1      28.699  18.049   6.793  0.00  0.00     0.177 C 
HETATM    4  C   UNK N   1      29.694  17.365   5.798  0.00  0.00     0.186 C 
HETATM    5  C   UNK N   1      27.372  18.772   4.819  0.00  0.00     0.292 C 
HETATM    6  O   UNK N   1      28.464  18.400   4.010  0.00  0.00    -0.349 OA
ENDROOT
BRANCH   4   7
HETATM    7  O   UNK N   1      30.388  16.235   6.374  0.00  0.00    -0.348 OA
BRANCH   7   8
HETATM    8  C   UNK N   1      31.813  16.242   6.576  0.00  0.00     0.286 C 
HETATM    9  C   UNK N   1      32.171  14.928   7.354  0.00  0.00     0.169 C 
HETATM   10  C   UNK N   1      33.659  14.928   7.768  0.00  0.00     0.177 C 
HETATM   11  C   UNK N   1      33.991  16.204   8.544  0.00  0.00     0.180 C 
HETATM   12  C   UNK N   1      33.589  17.389   7.664  0.00  0.00     0.179 C 
HETATM   13  O   UNK N   1      32.204  17.329   7.398  0.00  0.00    -0.349 OA
BRANCH   9  14
HETATM   14  N   UNK N   1      31.865  13.637   6.735  0.00  0.00    -0.363 N 
HETATM   15  C   UNK N   1      32.061  13.180   5.541  0.00  0.00     0.107 C 
HETATM   16  C   UNK N   1      32.735  13.953   4.459  0.00  0.00     0.097 C 
ATOM     17  HN  UNK N   1      31.412  12.974   7.363  1.00  0.00     0.162 HD
BRANCH  15  18
HETATM   18  O   UNK N   1      31.654  11.929   5.260  0.00  0.00    -0.350 OA
HETATM   19  H   UNK N   1      31.653  11.615   4.377  0.00  0.00     0.219 HD
ENDBRANCH  15  18
ENDBRANCH   9  14
BRANCH  10  20
HETATM   20  O   UNK N   1      33.948  13.814   8.562  0.00  0.00    -0.391 OA
HETATM   21  H   UNK N   1      33.301  13.358   9.122  0.00  0.00     0.210 HD
ENDBRANCH  10  20
BRANCH  11  22
HETATM   22  O   UNK N   1      33.278  16.225   9.750  0.00  0.00    -0.390 OA
HETATM   23  H   UNK N   1      33.092  16.214  10.702  0.00  0.00     0.210 HD
ENDBRANCH  11  22
BRANCH  12  24
HETATM   24  C   UNK N   1      33.900  18.727   8.342  0.00  0.00     0.198 C 
BRANCH  24  25
HETATM   25  O   UNK N   1      35.274  18.984   8.362  0.00  0.00    -0.398 OA
HETATM   26  H   UNK N   1      36.151  19.186   8.724  0.00  0.00     0.209 HD
ENDBRANCH  24  25
ENDBRANCH  12  24
ENDBRANCH   7   8
ENDBRANCH   4   7
BRANCH   1  27
HETATM   27  C   UNK N   1      29.991  16.809   3.295  0.00  0.00     0.198 C 
BRANCH  27  28
HETATM   28  O   UNK N   1      31.221  17.447   3.463  0.00  0.00    -0.398 OA
HETATM   29  H   UNK N   1      32.062  17.891   3.271  0.00  0.00     0.209 HD
ENDBRANCH  27  28
ENDBRANCH   1  27
BRANCH   3  30
HETATM   30  O   UNK N   1      29.384  18.452   7.942  0.00  0.00    -0.391 OA
HETATM   31  H   UNK N   1      28.951  18.610   8.796  0.00  0.00     0.210 HD
ENDBRANCH   3  30
BRANCH   2  32
HETATM   32  N   UNK N   1      27.036  19.889   7.036  0.00  0.00    -0.363 N 
HETATM   33  C   UNK N   1      26.679  21.131   6.974  0.00  0.00     0.107 C 
HETATM   34  C   UNK N   1      25.700  21.667   7.960  0.00  0.00     0.097 C 
ATOM     35  HN  UNK N   1      26.617  19.299   7.754  1.00  0.00     0.162 HD
BRANCH  33  36
HETATM   36  O   UNK N   1      27.206  21.965   6.053  0.00  0.00    -0.350 OA
HETATM   37  H   UNK N   1      27.423  21.928   5.142  0.00  0.00     0.219 HD
ENDBRANCH  33  36
ENDBRANCH   2  32
BRANCH   5  38
HETATM   38  O   UNK N   1      26.627  19.664   4.058  0.00  0.00    -0.318 OA
BRANCH  38  39
HETATM   39  C   UNK N   1      25.259  19.535   4.022  0.00  0.00     0.074 A 
HETATM   40  C   UNK N   1      24.623  18.468   4.697  0.00  0.00     0.038 A 
HETATM   41  C   UNK N   1      23.278  18.195   4.521  0.00  0.00     0.017 A 
HETATM   42  C   UNK N   1      22.518  18.994   3.671  0.00  0.00     0.004 A 
HETATM   43  C   UNK N   1      21.171  18.708   3.422  0.00  0.00    -0.043 A 
HETATM   44  C   UNK N   1      23.114  20.107   3.034  0.00  0.00     0.092 A 
HETATM   45  C   UNK N   1      20.491  17.522   4.028  0.00  0.00     0.049 C 
HETATM   46  C   UNK N   1      20.453  19.541   2.568  0.00  0.00     0.090 A 
HETATM   47  C   UNK N   1      21.097  20.636   1.989  0.00  0.00     0.288 A 
HETATM   48  O   UNK N   1      20.471  21.375   1.247  0.00  0.00    -0.260 OA
HETATM   49  O   UNK N   1      22.384  20.880   2.228  0.00  0.00    -0.275 OA
HETATM   50  C   UNK N   1      24.485  20.374   3.209  0.00  0.00     0.075 A 
ENDBRANCH  38  39
ENDBRANCH   5  38
TORSDOF 15
ENDMDL
MODEL 3
REMARK VINA RESULT:      -8.3      4.634     12.090
REMARK  15 active torsions:
REMARK  status: ('A' for Active; 'I' for Inactive)
REMARK    1  A    between atoms: C_16  and  C_8 
REMARK    2  A    between atoms: O_31  and  C_8 
REMARK    3  A    between atoms: C_17  and  C_9 
REMARK    4  A    between atoms: O_32  and  C_9 
REMARK    5  A    between atoms: O_33  and  C_11 
REMARK    6  A    between atoms: O_34  and  C_12 
REMARK    7  A    between atoms: O_39  and  C_13 
REMARK    8  A    between atoms: C_19  and  N_27 
REMARK    9  A    between atoms: C_20  and  N_29 
REMARK   10  A    between atoms: C_21  and  O_36 
REMARK   11  A    between atoms: C_22  and  O_37 
REMARK   12  A    between atoms: C_23  and  O_38 
REMARK   13  A    between atoms: C_24  and  O_43 
REMARK   14  A    between atoms: C_25  and  O_39 
REMARK   15  A    between atoms: C_26  and  O_43 
ROOT
HETATM    1  C   UNK N   1      34.242  17.034   9.081  0.00  0.00     0.180 C 
HETATM    2  C   UNK N   1      34.044  14.139   9.075  0.00  0.00     0.170 C 
HETATM    3  C   UNK N   1      32.719  14.985   9.033  0.00  0.00     0.177 C 
HETATM    4  C   UNK N   1      32.978  16.404   8.426  0.00  0.00     0.186 C 
HETATM    5  C   UNK N   1      35.072  15.005   9.837  0.00  0.00     0.292 C 
HETATM    6  O   UNK N   1      35.294  16.122   9.008  0.00  0.00    -0.349 OA
ENDROOT
BRANCH   4   7
HETATM    7  O   UNK N   1      31.781  17.209   8.332  0.00  0.00    -0.348 OA
BRANCH   7   8
HETATM    8  C   UNK N   1      31.163  17.505   7.066  0.00  0.00     0.286 C 
HETATM    9  C   UNK N   1      29.786  16.752   7.044  0.00  0.00     0.169 C 
HETATM   10  C   UNK N   1      29.124  16.870   5.654  0.00  0.00     0.177 C 
HETATM   11  C   UNK N   1      30.091  16.399   4.567  0.00  0.00     0.180 C 
HETATM   12  C   UNK N   1      31.376  17.218   4.716  0.00  0.00     0.179 C 
HETATM   13  O   UNK N   1      31.932  16.989   5.993  0.00  0.00    -0.349 OA
BRANCH   9  14
HETATM   14  N   UNK N   1      28.786  17.084   8.060  0.00  0.00    -0.363 N 
HETATM   15  C   UNK N   1      28.132  18.171   8.311  0.00  0.00     0.107 C 
HETATM   16  C   UNK N   1      28.262  19.420   7.507  0.00  0.00     0.097 C 
ATOM     17  HN  UNK N   1      28.565  16.313   8.690  1.00  0.00     0.162 HD
BRANCH  15  18
HETATM   18  O   UNK N   1      27.266  18.174   9.342  0.00  0.00    -0.350 OA
HETATM   19  H   UNK N   1      26.572  17.546   9.383  0.00  0.00     0.219 HD
ENDBRANCH  15  18
ENDBRANCH   9  14
BRANCH  10  20
HETATM   20  O   UNK N   1      27.956  16.102   5.600  0.00  0.00    -0.391 OA
HETATM   21  H   UNK N   1      27.110  16.365   5.993  0.00  0.00     0.210 HD
ENDBRANCH  10  20
BRANCH  11  22
HETATM   22  O   UNK N   1      30.358  15.034   4.728  0.00  0.00    -0.390 OA
HETATM   23  H   UNK N   1      30.826  14.214   4.953  0.00  0.00     0.210 HD
ENDBRANCH  11  22
BRANCH  12  24
HETATM   24  C   UNK N   1      32.413  16.838   3.655  0.00  0.00     0.198 C 
BRANCH  24  25
HETATM   25  O   UNK N   1      32.003  17.224   2.376  0.00  0.00    -0.398 OA
HETATM   26  H   UNK N   1      31.560  17.745   1.686  0.00  0.00     0.209 HD
ENDBRANCH  24  25
ENDBRANCH  12  24
ENDBRANCH   7   8
ENDBRANCH   4   7
BRANCH   1  27
HETATM   27  C   UNK N   1      34.753  18.276   8.342  0.00  0.00     0.198 C 
BRANCH  27  28
HETATM   28  O   UNK N   1      34.513  18.188   6.970  0.00  0.00    -0.398 OA
HETATM   29  H   UNK N   1      34.608  18.290   6.010  0.00  0.00     0.209 HD
ENDBRANCH  27  28
ENDBRANCH   1  27
BRANCH   3  30
HETATM   30  O   UNK N   1      31.758  14.315   8.272  0.00  0.00    -0.391 OA
HETATM   31  H   UNK N   1      31.228  13.576   8.610  0.00  0.00     0.210 HD
ENDBRANCH   3  30
BRANCH   2  32
HETATM   32  N   UNK N   1      33.812  12.844   9.695  0.00  0.00    -0.363 N 
HETATM   33  C   UNK N   1      34.486  11.783   9.391  0.00  0.00     0.107 C 
HETATM   34  C   UNK N   1      34.163  10.490  10.057  0.00  0.00     0.097 C 
ATOM     35  HN  UNK N   1      33.082  12.770  10.403  1.00  0.00     0.162 HD
BRANCH  33  36
HETATM   36  O   UNK N   1      35.456  11.815   8.453  0.00  0.00    -0.350 OA
HETATM   37  H   UNK N   1      36.277  12.249   8.334  0.00  0.00     0.219 HD
ENDBRANCH  33  36
ENDBRANCH   2  32
BRANCH   5  38
HETATM   38  O   UNK N   1      36.327  14.460  10.079  0.00  0.00    -0.318 OA
BRANCH  38  39
HETATM   39  C   UNK N   1      36.573  13.854  11.287  0.00  0.00     0.074 A 
HETATM   40  C   UNK N   1      37.509  12.799  11.379  0.00  0.00     0.038 A 
HETATM   41  C   UNK N   1      37.637  12.039  12.530  0.00  0.00     0.017 A 
HETATM   42  C   UNK N   1      36.839  12.323  13.635  0.00  0.00     0.004 A 
HETATM   43  C   UNK N   1      36.899  11.535  14.790  0.00  0.00    -0.043 A 
HETATM   44  C   UNK N   1      35.941  13.414  13.592  0.00  0.00     0.092 A 
HETATM   45  C   UNK N   1      37.794  10.341  14.886  0.00  0.00     0.049 C 
HETATM   46  C   UNK N   1      36.084  11.863  15.870  0.00  0.00     0.090 A 
HETATM   47  C   UNK N   1      35.236  12.967  15.769  0.00  0.00     0.288 A 
HETATM   48  O   UNK N   1      34.526  13.266  16.716  0.00  0.00    -0.260 OA
HETATM   49  O   UNK N   1      35.185  13.693  14.654  0.00  0.00    -0.275 OA
HETATM   50  C   UNK N   1      35.809  14.177  12.416  0.00  0.00     0.075 A 
ENDBRANCH  38  39
ENDBRANCH   5  38
TORSDOF 15
ENDMDL
MODEL 4
REMARK VINA RESULT:      -7.8      3.264     10.140
REMARK  15 active torsions:
REMARK  status: ('A' for Active; 'I' for Inactive)
REMARK    1  A    between atoms: C_16  and  C_8 
REMARK    2  A    between atoms: O_31  and  C_8 
REMARK    3  A    between atoms: C_17  and  C_9 
REMARK    4  A    between atoms: O_32  and  C_9 
REMARK    5  A    between atoms: O_33  and  C_11 
REMARK    6  A    between atoms: O_34  and  C_12 
REMARK    7  A    between atoms: O_39  and  C_13 
REMARK    8  A    between atoms: C_19  and  N_27 
REMARK    9  A    between atoms: C_20  and  N_29 
REMARK   10  A    between atoms: C_21  and  O_36 
REMARK   11  A    between atoms: C_22  and  O_37 
REMARK   12  A    between atoms: C_23  and  O_38 
REMARK   13  A    between atoms: C_24  and  O_43 
REMARK   14  A    between atoms: C_25  and  O_39 
REMARK   15  A    between atoms: C_26  and  O_43 
ROOT
HETATM    1  C   UNK N   1      25.233  15.691   5.131  0.00  0.00     0.180 C 
HETATM    2  C   UNK N   1      25.882  18.466   5.672  0.00  0.00     0.170 C 
HETATM    3  C   UNK N   1      25.038  18.126   4.390  0.00  0.00     0.177 C 
HETATM    4  C   UNK N   1      24.269  16.775   4.567  0.00  0.00     0.186 C 
HETATM    5  C   UNK N   1      26.772  17.230   5.929  0.00  0.00     0.292 C 
HETATM    6  O   UNK N   1      25.875  16.197   6.261  0.00  0.00    -0.349 OA
ENDROOT
BRANCH   4   7
HETATM    7  O   UNK N   1      23.447  16.435   3.428  0.00  0.00    -0.348 OA
BRANCH   7   8
HETATM    8  C   UNK N   1      22.032  16.701   3.406  0.00  0.00     0.286 C 
HETATM    9  C   UNK N   1      21.425  15.845   2.240  0.00  0.00     0.169 C 
HETATM   10  C   UNK N   1      19.935  16.194   2.028  0.00  0.00     0.177 C 
HETATM   11  C   UNK N   1      19.771  17.701   1.824  0.00  0.00     0.180 C 
HETATM   12  C   UNK N   1      20.407  18.395   3.031  0.00  0.00     0.179 C 
HETATM   13  O   UNK N   1      21.777  18.061   3.096  0.00  0.00    -0.349 OA
BRANCH   9  14
HETATM   14  N   UNK N   1      21.552  14.387   2.297  0.00  0.00    -0.363 N 
HETATM   15  C   UNK N   1      22.280  13.553   1.629  0.00  0.00     0.107 C 
HETATM   16  C   UNK N   1      23.257  13.964   0.580  0.00  0.00     0.097 C 
ATOM     17  HN  UNK N   1      20.952  13.947   2.994  1.00  0.00     0.162 HD
BRANCH  15  18
HETATM   18  O   UNK N   1      22.168  12.241   1.906  0.00  0.00    -0.350 OA
HETATM   19  H   UNK N   1      21.657  11.950   2.635  0.00  0.00     0.219 HD
ENDBRANCH  15  18
ENDBRANCH   9  14
BRANCH  10  20
HETATM   20  O   UNK N   1      19.426  15.518   0.914  0.00  0.00    -0.391 OA
HETATM   21  H   UNK N   1      19.901  15.407   0.077  0.00  0.00     0.210 HD
ENDBRANCH  10  20
BRANCH  11  22
HETATM   22  O   UNK N   1      20.409  18.093   0.640  0.00  0.00    -0.390 OA
HETATM   23  H   UNK N   1      20.993  18.573   0.033  0.00  0.00     0.210 HD
ENDBRANCH  11  22
BRANCH  12  24
HETATM   24  C   UNK N   1      20.279  19.919   2.938  0.00  0.00     0.198 C 
BRANCH  24  25
HETATM   25  O   UNK N   1      21.442  20.559   3.378  0.00  0.00    -0.398 OA
HETATM   26  H   UNK N   1      22.388  20.718   3.517  0.00  0.00     0.209 HD
ENDBRANCH  24  25
ENDBRANCH  12  24
ENDBRANCH   7   8
ENDBRANCH   4   7
BRANCH   1  27
HETATM   27  C   UNK N   1      24.509  14.434   5.627  0.00  0.00     0.198 C 
BRANCH  27  28
HETATM   28  O   UNK N   1      23.740  13.856   4.616  0.00  0.00    -0.398 OA
HETATM   29  H   UNK N   1      23.485  13.418   3.789  0.00  0.00     0.209 HD
ENDBRANCH  27  28
ENDBRANCH   1  27
BRANCH   3  30
HETATM   30  O   UNK N   1      24.128  19.157   4.140  0.00  0.00    -0.391 OA
HETATM   31  H   UNK N   1      23.183  19.009   3.977  0.00  0.00     0.210 HD
ENDBRANCH   3  30
BRANCH   2  32
HETATM   32  N   UNK N   1      26.643  19.691   5.480  0.00  0.00    -0.363 N 
HETATM   33  C   UNK N   1      27.003  20.461   6.455  0.00  0.00     0.107 C 
HETATM   34  C   UNK N   1      27.758  21.712   6.166  0.00  0.00     0.097 C 
ATOM     35  HN  UNK N   1      26.904  19.956   4.531  1.00  0.00     0.162 HD
BRANCH  33  36
HETATM   36  O   UNK N   1      26.677  20.171   7.732  0.00  0.00    -0.350 OA
HETATM   37  H   UNK N   1      25.911  20.218   8.270  0.00  0.00     0.219 HD
ENDBRANCH  33  36
ENDBRANCH   2  32
BRANCH   5  38
HETATM   38  O   UNK N   1      27.680  17.291   6.979  0.00  0.00    -0.318 OA
BRANCH  38  39
HETATM   39  C   UNK N   1      29.024  17.371   6.700  0.00  0.00     0.074 A 
HETATM   40  C   UNK N   1      29.503  17.076   5.404  0.00  0.00     0.038 A 
HETATM   41  C   UNK N   1      30.857  16.954   5.140  0.00  0.00     0.017 A 
HETATM   42  C   UNK N   1      31.779  17.139   6.167  0.00  0.00     0.004 A 
HETATM   43  C   UNK N   1      33.150  16.961   5.948  0.00  0.00    -0.043 A 
HETATM   44  C   UNK N   1      31.329  17.499   7.458  0.00  0.00     0.092 A 
HETATM   45  C   UNK N   1      33.688  16.539   4.619  0.00  0.00     0.049 C 
HETATM   46  C   UNK N   1      34.031  17.164   7.006  0.00  0.00     0.090 A 
HETATM   47  C   UNK N   1      33.522  17.540   8.251  0.00  0.00     0.288 A 
HETATM   48  O   UNK N   1      34.290  17.727   9.180  0.00  0.00    -0.260 OA
HETATM   49  O   UNK N   1      32.212  17.688   8.440  0.00  0.00    -0.275 OA
HETATM   50  C   UNK N   1      29.951  17.612   7.723  0.00  0.00     0.075 A 
ENDBRANCH  38  39
ENDBRANCH   5  38
TORSDOF 15
ENDMDL
MODEL 5
REMARK VINA RESULT:      -7.7      4.848     12.065
REMARK  15 active torsions:
REMARK  status: ('A' for Active; 'I' for Inactive)
REMARK    1  A    between atoms: C_16  and  C_8 
REMARK    2  A    between atoms: O_31  and  C_8 
REMARK    3  A    between atoms: C_17  and  C_9 
REMARK    4  A    between atoms: O_32  and  C_9 
REMARK    5  A    between atoms: O_33  and  C_11 
REMARK    6  A    between atoms: O_34  and  C_12 
REMARK    7  A    between atoms: O_39  and  C_13 
REMARK    8  A    between atoms: C_19  and  N_27 
REMARK    9  A    between atoms: C_20  and  N_29 
REMARK   10  A    between atoms: C_21  and  O_36 
REMARK   11  A    between atoms: C_22  and  O_37 
REMARK   12  A    between atoms: C_23  and  O_38 
REMARK   13  A    between atoms: C_24  and  O_43 
REMARK   14  A    between atoms: C_25  and  O_39 
REMARK   15  A    between atoms: C_26  and  O_43 
ROOT
HETATM    1  C   UNK N   1      34.227  16.528   8.659  0.00  0.00     0.180 C 
HETATM    2  C   UNK N   1      35.064  13.944   7.639  0.00  0.00     0.170 C 
HETATM    3  C   UNK N   1      33.760  14.599   7.053  0.00  0.00     0.177 C 
HETATM    4  C   UNK N   1      33.794  16.155   7.211  0.00  0.00     0.186 C 
HETATM    5  C   UNK N   1      35.176  14.457   9.092  0.00  0.00     0.292 C 
HETATM    6  O   UNK N   1      35.400  15.843   8.973  0.00  0.00    -0.349 OA
ENDROOT
BRANCH   4   7
HETATM    7  O   UNK N   1      32.631  16.809   6.654  0.00  0.00    -0.348 OA
BRANCH   7   8
HETATM    8  C   UNK N   1      31.294  16.435   7.036  0.00  0.00     0.286 C 
HETATM    9  C   UNK N   1      30.446  16.364   5.718  0.00  0.00     0.169 C 
HETATM   10  C   UNK N   1      28.954  16.136   6.042  0.00  0.00     0.177 C 
HETATM   11  C   UNK N   1      28.460  17.199   7.026  0.00  0.00     0.180 C 
HETATM   12  C   UNK N   1      29.378  17.148   8.249  0.00  0.00     0.179 C 
HETATM   13  O   UNK N   1      30.703  17.431   7.854  0.00  0.00    -0.349 OA
BRANCH   9  14
HETATM   14  N   UNK N   1      30.841  15.413   4.677  0.00  0.00    -0.363 N 
HETATM   15  C   UNK N   1      31.470  15.563   3.557  0.00  0.00     0.107 C 
HETATM   16  C   UNK N   1      31.998  16.871   3.074  0.00  0.00     0.097 C 
ATOM     17  HN  UNK N   1      30.567  14.450   4.872  1.00  0.00     0.162 HD
BRANCH  15  18
HETATM   18  O   UNK N   1      31.682  14.478   2.791  0.00  0.00    -0.350 OA
HETATM   19  H   UNK N   1      31.413  14.468   1.894  0.00  0.00     0.219 HD
ENDBRANCH  15  18
ENDBRANCH   9  14
BRANCH  10  20
HETATM   20  O   UNK N   1      28.183  16.191   4.876  0.00  0.00    -0.391 OA
HETATM   21  H   UNK N   1      28.496  16.545   4.030  0.00  0.00     0.210 HD
ENDBRANCH  10  20
BRANCH  11  22
HETATM   22  O   UNK N   1      28.513  18.463   6.425  0.00  0.00    -0.390 OA
HETATM   23  H   UNK N   1      28.738  19.395   6.275  0.00  0.00     0.210 HD
ENDBRANCH  11  22
BRANCH  12  24
HETATM   24  C   UNK N   1      28.957  18.166   9.314  0.00  0.00     0.198 C 
BRANCH  24  25
HETATM   25  O   UNK N   1      27.567  18.310   9.363  0.00  0.00    -0.398 OA
HETATM   26  H   UNK N   1      26.697  18.726   9.257  0.00  0.00     0.209 HD
ENDBRANCH  24  25
ENDBRANCH  12  24
ENDBRANCH   7   8
ENDBRANCH   4   7
BRANCH   1  27
HETATM   27  C   UNK N   1      34.587  18.009   8.822  0.00  0.00     0.198 C 
BRANCH  27  28
HETATM   28  O   UNK N   1      34.845  18.610   7.589  0.00  0.00    -0.398 OA
HETATM   29  H   UNK N   1      34.787  19.202   6.823  0.00  0.00     0.209 HD
ENDBRANCH  27  28
ENDBRANCH   1  27
BRANCH   3  30
HETATM   30  O   UNK N   1      33.633  14.264   5.702  0.00  0.00    -0.391 OA
HETATM   31  H   UNK N   1      32.782  14.071   5.277  0.00  0.00     0.210 HD
ENDBRANCH   3  30
BRANCH   2  32
HETATM   32  N   UNK N   1      35.002  12.494   7.546  0.00  0.00    -0.363 N 
HETATM   33  C   UNK N   1      36.002  11.765   7.171  0.00  0.00     0.107 C 
HETATM   34  C   UNK N   1      35.843  10.287   7.077  0.00  0.00     0.097 C 
ATOM     35  HN  UNK N   1      34.126  12.030   7.787  1.00  0.00     0.162 HD
BRANCH  33  36
HETATM   36  O   UNK N   1      37.183  12.322   6.826  0.00  0.00    -0.350 OA
HETATM   37  H   UNK N   1      37.542  12.754   6.076  0.00  0.00     0.219 HD
ENDBRANCH  33  36
ENDBRANCH   2  32
BRANCH   5  38
HETATM   38  O   UNK N   1      36.218  13.974   9.873  0.00  0.00    -0.318 OA
BRANCH  38  39
HETATM   39  C   UNK N   1      35.932  13.363  11.070  0.00  0.00     0.074 A 
HETATM   40  C   UNK N   1      35.130  12.199  11.105  0.00  0.00     0.038 A 
HETATM   41  C   UNK N   1      34.661  11.675  12.298  0.00  0.00     0.017 A 
HETATM   42  C   UNK N   1      34.994  12.293  13.500  0.00  0.00     0.004 A 
HETATM   43  C   UNK N   1      34.486  11.826  14.718  0.00  0.00    -0.043 A 
HETATM   44  C   UNK N   1      35.849  13.420  13.498  0.00  0.00     0.092 A 
HETATM   45  C   UNK N   1      33.543  10.668  14.787  0.00  0.00     0.049 C 
HETATM   46  C   UNK N   1      34.854  12.475  15.893  0.00  0.00     0.090 A 
HETATM   47  C   UNK N   1      35.719  13.569  15.822  0.00  0.00     0.288 A 
HETATM   48  O   UNK N   1      36.053  14.137  16.849  0.00  0.00    -0.260 OA
HETATM   49  O   UNK N   1      36.178  14.005  14.650  0.00  0.00    -0.275 OA
HETATM   50  C   UNK N   1      36.315  13.954  12.282  0.00  0.00     0.075 A 
ENDBRANCH  38  39
ENDBRANCH   5  38
TORSDOF 15
ENDMDL
MODEL 6
REMARK VINA RESULT:      -7.6      5.885     13.126
REMARK  15 active torsions:
REMARK  status: ('A' for Active; 'I' for Inactive)
REMARK    1  A    between atoms: C_16  and  C_8 
REMARK    2  A    between atoms: O_31  and  C_8 
REMARK    3  A    between atoms: C_17  and  C_9 
REMARK    4  A    between atoms: O_32  and  C_9 
REMARK    5  A    between atoms: O_33  and  C_11 
REMARK    6  A    between atoms: O_34  and  C_12 
REMARK    7  A    between atoms: O_39  and  C_13 
REMARK    8  A    between atoms: C_19  and  N_27 
REMARK    9  A    between atoms: C_20  and  N_29 
REMARK   10  A    between atoms: C_21  and  O_36 
REMARK   11  A    between atoms: C_22  and  O_37 
REMARK   12  A    between atoms: C_23  and  O_38 
REMARK   13  A    between atoms: C_24  and  O_43 
REMARK   14  A    between atoms: C_25  and  O_39 
REMARK   15  A    between atoms: C_26  and  O_43 
ROOT
HETATM    1  C   UNK N   1      34.853  15.181  10.915  0.00  0.00     0.180 C 
HETATM    2  C   UNK N   1      34.641  12.302  10.625  0.00  0.00     0.170 C 
HETATM    3  C   UNK N   1      33.449  13.199  10.127  0.00  0.00     0.177 C 
HETATM    4  C   UNK N   1      33.943  14.641   9.773  0.00  0.00     0.186 C 
HETATM    5  C   UNK N   1      35.294  13.080  11.789  0.00  0.00     0.292 C 
HETATM    6  O   UNK N   1      35.838  14.236  11.196  0.00  0.00    -0.349 OA
ENDROOT
BRANCH   4   7
HETATM    7  O   UNK N   1      32.890  15.497   9.274  0.00  0.00    -0.348 OA
BRANCH   7   8
HETATM    8  C   UNK N   1      32.732  15.765   7.869  0.00  0.00     0.286 C 
HETATM    9  C   UNK N   1      31.320  16.424   7.686  0.00  0.00     0.169 C 
HETATM   10  C   UNK N   1      30.988  16.593   6.187  0.00  0.00     0.177 C 
HETATM   11  C   UNK N   1      31.133  15.255   5.460  0.00  0.00     0.180 C 
HETATM   12  C   UNK N   1      32.550  14.742   5.731  0.00  0.00     0.179 C 
HETATM   13  O   UNK N   1      32.726  14.562   7.119  0.00  0.00    -0.349 OA
BRANCH   9  14
HETATM   14  N   UNK N   1      31.040  17.691   8.365  0.00  0.00    -0.363 N 
HETATM   15  C   UNK N   1      30.135  18.034   9.222  0.00  0.00     0.107 C 
HETATM   16  C   UNK N   1      29.112  17.096   9.767  0.00  0.00     0.097 C 
ATOM     17  HN  UNK N   1      31.678  18.445   8.112  1.00  0.00     0.162 HD
BRANCH  15  18
HETATM   18  O   UNK N   1      30.126  19.303   9.669  0.00  0.00    -0.350 OA
HETATM   19  H   UNK N   1      30.929  19.758   9.829  0.00  0.00     0.219 HD
ENDBRANCH  15  18
ENDBRANCH   9  14
BRANCH  10  20
HETATM   20  O   UNK N   1      29.684  17.070   6.023  0.00  0.00    -0.391 OA
HETATM   21  H   UNK N   1      28.963  16.564   5.616  0.00  0.00     0.210 HD
ENDBRANCH  10  20
BRANCH  11  22
HETATM   22  O   UNK N   1      30.183  14.346   5.943  0.00  0.00    -0.390 OA
HETATM   23  H   UNK N   1      29.593  13.577   5.986  0.00  0.00     0.210 HD
ENDBRANCH  11  22
BRANCH  12  24
HETATM   24  C   UNK N   1      32.811  13.406   5.027  0.00  0.00     0.198 C 
BRANCH  24  25
HETATM   25  O   UNK N   1      32.414  12.324   5.818  0.00  0.00    -0.398 OA
HETATM   26  H   UNK N   1      32.028  11.463   6.045  0.00  0.00     0.209 HD
ENDBRANCH  24  25
ENDBRANCH  12  24
ENDBRANCH   7   8
ENDBRANCH   4   7
BRANCH   1  27
HETATM   27  C   UNK N   1      35.628  16.445  10.526  0.00  0.00     0.198 C 
BRANCH  27  28
HETATM   28  O   UNK N   1      34.768  17.470  10.129  0.00  0.00    -0.398 OA
HETATM   29  H   UNK N   1      34.163  18.010   9.597  0.00  0.00     0.209 HD
ENDBRANCH  27  28
ENDBRANCH   1  27
BRANCH   3  30
HETATM   30  O   UNK N   1      32.859  12.614   9.004  0.00  0.00    -0.391 OA
HETATM   31  H   UNK N   1      32.708  11.660   8.915  0.00  0.00     0.210 HD
ENDBRANCH   3  30
BRANCH   2  32
HETATM   32  N   UNK N   1      34.168  10.982  11.010  0.00  0.00    -0.363 N 
HETATM   33  C   UNK N   1      34.800   9.891  10.721  0.00  0.00     0.107 C 
HETATM   34  C   UNK N   1      34.230   8.578  11.131  0.00  0.00     0.097 C 
ATOM     35  HN  UNK N   1      33.296  10.913  11.534  1.00  0.00     0.162 HD
BRANCH  33  36
HETATM   36  O   UNK N   1      35.953   9.916  10.019  0.00  0.00    -0.350 OA
HETATM   37  H   UNK N   1      36.399   9.353   9.417  0.00  0.00     0.219 HD
ENDBRANCH  33  36
ENDBRANCH   2  32
BRANCH   5  38
HETATM   38  O   UNK N   1      36.346  12.473  12.465  0.00  0.00    -0.318 OA
BRANCH  38  39
HETATM   39  C   UNK N   1      36.253  12.290  13.824  0.00  0.00     0.074 A 
HETATM   40  C   UNK N   1      36.155  10.988  14.365  0.00  0.00     0.038 A 
HETATM   41  C   UNK N   1      35.863  10.775  15.701  0.00  0.00     0.017 A 
HETATM   42  C   UNK N   1      35.674  11.866  16.547  0.00  0.00     0.004 A 
HETATM   43  C   UNK N   1      35.316  11.686  17.888  0.00  0.00    -0.043 A 
HETATM   44  C   UNK N   1      35.831  13.179  16.046  0.00  0.00     0.092 A 
HETATM   45  C   UNK N   1      35.092  10.327  18.470  0.00  0.00     0.049 C 
HETATM   46  C   UNK N   1      35.145  12.808  18.693  0.00  0.00     0.090 A 
HETATM   47  C   UNK N   1      35.336  14.076  18.141  0.00  0.00     0.288 A 
HETATM   48  O   UNK N   1      35.196  15.063  18.844  0.00  0.00    -0.260 OA
HETATM   49  O   UNK N   1      35.661  14.223  16.858  0.00  0.00    -0.275 OA
HETATM   50  C   UNK N   1      36.118  13.388  14.684  0.00  0.00     0.075 A 
ENDBRANCH  38  39
ENDBRANCH   5  38
TORSDOF 15
ENDMDL
MODEL 7
REMARK VINA RESULT:      -7.6      2.987     10.018
REMARK  15 active torsions:
REMARK  status: ('A' for Active; 'I' for Inactive)
REMARK    1  A    between atoms: C_16  and  C_8 
REMARK    2  A    between atoms: O_31  and  C_8 
REMARK    3  A    between atoms: C_17  and  C_9 
REMARK    4  A    between atoms: O_32  and  C_9 
REMARK    5  A    between atoms: O_33  and  C_11 
REMARK    6  A    between atoms: O_34  and  C_12 
REMARK    7  A    between atoms: O_39  and  C_13 
REMARK    8  A    between atoms: C_19  and  N_27 
REMARK    9  A    between atoms: C_20  and  N_29 
REMARK   10  A    between atoms: C_21  and  O_36 
REMARK   11  A    between atoms: C_22  and  O_37 
REMARK   12  A    between atoms: C_23  and  O_38 
REMARK   13  A    between atoms: C_24  and  O_43 
REMARK   14  A    between atoms: C_25  and  O_39 
REMARK   15  A    between atoms: C_26  and  O_43 
ROOT
HETATM    1  C   UNK N   1      24.761  15.758   5.034  0.00  0.00     0.180 C 
HETATM    2  C   UNK N   1      25.812  18.397   5.627  0.00  0.00     0.170 C 
HETATM    3  C   UNK N   1      24.937  18.208   4.335  0.00  0.00     0.177 C 
HETATM    4  C   UNK N   1      23.974  16.983   4.484  0.00  0.00     0.186 C 
HETATM    5  C   UNK N   1      26.506  17.038   5.868  0.00  0.00     0.292 C 
HETATM    6  O   UNK N   1      25.461  16.144   6.176  0.00  0.00    -0.349 OA
ENDROOT
BRANCH   4   7
HETATM    7  O   UNK N   1      23.119  16.788   3.334  0.00  0.00    -0.348 OA
BRANCH   7   8
HETATM    8  C   UNK N   1      21.769  17.285   3.299  0.00  0.00     0.286 C 
HETATM    9  C   UNK N   1      21.102  16.704   2.003  0.00  0.00     0.169 C 
HETATM   10  C   UNK N   1      19.702  17.320   1.787  0.00  0.00     0.177 C 
HETATM   11  C   UNK N   1      19.792  18.848   1.793  0.00  0.00     0.180 C 
HETATM   12  C   UNK N   1      20.459  19.260   3.107  0.00  0.00     0.179 C 
HETATM   13  O   UNK N   1      21.751  18.698   3.174  0.00  0.00    -0.349 OA
BRANCH   9  14
HETATM   14  N   UNK N   1      20.993  15.251   1.858  0.00  0.00    -0.363 N 
HETATM   15  C   UNK N   1      20.389  14.353   2.564  0.00  0.00     0.107 C 
HETATM   16  C   UNK N   1      19.575  14.660   3.775  0.00  0.00     0.097 C 
ATOM     17  HN  UNK N   1      21.487  14.878   1.048  1.00  0.00     0.162 HD
BRANCH  15  18
HETATM   18  O   UNK N   1      20.479  13.067   2.177  0.00  0.00    -0.350 OA
HETATM   19  H   UNK N   1      21.283  12.596   2.270  0.00  0.00     0.219 HD
ENDBRANCH  15  18
ENDBRANCH   9  14
BRANCH  10  20
HETATM   20  O   UNK N   1      19.158  16.892   0.572  0.00  0.00    -0.391 OA
HETATM   21  H   UNK N   1      18.885  17.486  -0.144  0.00  0.00     0.210 HD
ENDBRANCH  10  20
BRANCH  11  22
HETATM   22  O   UNK N   1      20.553  19.283   0.700  0.00  0.00    -0.390 OA
HETATM   23  H   UNK N   1      20.847  19.412  -0.215  0.00  0.00     0.210 HD
ENDBRANCH  11  22
BRANCH  12  24
HETATM   24  C   UNK N   1      20.580  20.782   3.226  0.00  0.00     0.198 C 
BRANCH  24  25
HETATM   25  O   UNK N   1      21.847  21.227   2.839  0.00  0.00    -0.398 OA
HETATM   26  H   UNK N   1      22.652  21.769   2.830  0.00  0.00     0.209 HD
ENDBRANCH  24  25
ENDBRANCH  12  24
ENDBRANCH   7   8
ENDBRANCH   4   7
BRANCH   1  27
HETATM   27  C   UNK N   1      23.854  14.616   5.504  0.00  0.00     0.198 C 
BRANCH  27  28
HETATM   28  O   UNK N   1      23.236  13.979   4.427  0.00  0.00    -0.398 OA
HETATM   29  H   UNK N   1      22.570  13.707   3.776  0.00  0.00     0.209 HD
ENDBRANCH  27  28
ENDBRANCH   1  27
BRANCH   3  30
HETATM   30  O   UNK N   1      24.193  19.367   4.097  0.00  0.00    -0.391 OA
HETATM   31  H   UNK N   1      24.056  19.743   3.214  0.00  0.00     0.210 HD
ENDBRANCH   3  30
BRANCH   2  32
HETATM   32  N   UNK N   1      26.748  19.498   5.460  0.00  0.00    -0.363 N 
HETATM   33  C   UNK N   1      26.841  20.480   6.297  0.00  0.00     0.107 C 
HETATM   34  C   UNK N   1      27.809  21.581   6.035  0.00  0.00     0.097 C 
ATOM     35  HN  UNK N   1      27.360  19.494   4.645  1.00  0.00     0.162 HD
BRANCH  33  36
HETATM   36  O   UNK N   1      26.050  20.547   7.388  0.00  0.00    -0.350 OA
HETATM   37  H   UNK N   1      25.704  19.947   8.020  0.00  0.00     0.219 HD
ENDBRANCH  33  36
ENDBRANCH   2  32
BRANCH   5  38
HETATM   38  O   UNK N   1      27.404  16.946   6.923  0.00  0.00    -0.318 OA
BRANCH  38  39
HETATM   39  C   UNK N   1      28.750  16.881   6.655  0.00  0.00     0.074 A 
HETATM   40  C   UNK N   1      29.695  17.074   7.689  0.00  0.00     0.038 A 
HETATM   41  C   UNK N   1      31.047  17.211   7.421  0.00  0.00     0.017 A 
HETATM   42  C   UNK N   1      31.499  17.144   6.106  0.00  0.00     0.004 A 
HETATM   43  C   UNK N   1      32.850  17.342   5.796  0.00  0.00    -0.043 A 
HETATM   44  C   UNK N   1      30.584  16.887   5.060  0.00  0.00     0.092 A 
HETATM   45  C   UNK N   1      33.863  17.661   6.849  0.00  0.00     0.049 C 
HETATM   46  C   UNK N   1      33.253  17.259   4.467  0.00  0.00     0.090 A 
HETATM   47  C   UNK N   1      32.301  16.980   3.485  0.00  0.00     0.288 A 
HETATM   48  O   UNK N   1      32.649  16.898   2.318  0.00  0.00    -0.260 OA
HETATM   49  O   UNK N   1      31.019  16.811   3.802  0.00  0.00    -0.275 OA
HETATM   50  C   UNK N   1      29.210  16.758   5.337  0.00  0.00     0.075 A 
ENDBRANCH  38  39
ENDBRANCH   5  38
TORSDOF 15
ENDMDL
MODEL 8
REMARK VINA RESULT:      -7.3      3.685      9.892
REMARK  15 active torsions:
REMARK  status: ('A' for Active; 'I' for Inactive)
REMARK    1  A    between atoms: C_16  and  C_8 
REMARK    2  A    between atoms: O_31  and  C_8 
REMARK    3  A    between atoms: C_17  and  C_9 
REMARK    4  A    between atoms: O_32  and  C_9 
REMARK    5  A    between atoms: O_33  and  C_11 
REMARK    6  A    between atoms: O_34  and  C_12 
REMARK    7  A    between atoms: O_39  and  C_13 
REMARK    8  A    between atoms: C_19  and  N_27 
REMARK    9  A    between atoms: C_20  and  N_29 
REMARK   10  A    between atoms: C_21  and  O_36 
REMARK   11  A    between atoms: C_22  and  O_37 
REMARK   12  A    between atoms: C_23  and  O_38 
REMARK   13  A    between atoms: C_24  and  O_43 
REMARK   14  A    between atoms: C_25  and  O_39 
REMARK   15  A    between atoms: C_26  and  O_43 
ROOT
HETATM    1  C   UNK N   1      23.786  19.095   3.938  0.00  0.00     0.180 C 
HETATM    2  C   UNK N   1      25.250  16.592   4.032  0.00  0.00     0.170 C 
HETATM    3  C   UNK N   1      23.807  16.644   4.653  0.00  0.00     0.177 C 
HETATM    4  C   UNK N   1      22.955  17.781   3.998  0.00  0.00     0.186 C 
HETATM    5  C   UNK N   1      25.825  18.018   4.183  0.00  0.00     0.292 C 
HETATM    6  O   UNK N   1      25.023  18.825   3.352  0.00  0.00    -0.349 OA
ENDROOT
BRANCH   4   7
HETATM    7  O   UNK N   1      21.605  17.847   4.510  0.00  0.00    -0.348 OA
BRANCH   7   8
HETATM    8  C   UNK N   1      20.531  17.092   3.919  0.00  0.00     0.286 C 
HETATM    9  C   UNK N   1      20.133  15.980   4.952  0.00  0.00     0.169 C 
HETATM   10  C   UNK N   1      19.102  15.009   4.336  0.00  0.00     0.177 C 
HETATM   11  C   UNK N   1      19.628  14.450   3.012  0.00  0.00     0.180 C 
HETATM   12  C   UNK N   1      19.971  15.645   2.119  0.00  0.00     0.179 C 
HETATM   13  O   UNK N   1      20.964  16.429   2.744  0.00  0.00    -0.349 OA
BRANCH   9  14
HETATM   14  N   UNK N   1      19.651  16.385   6.273  0.00  0.00    -0.363 N 
HETATM   15  C   UNK N   1      20.145  16.238   7.459  0.00  0.00     0.107 C 
HETATM   16  C   UNK N   1      21.455  15.583   7.735  0.00  0.00     0.097 C 
ATOM     17  HN  UNK N   1      18.757  16.875   6.255  1.00  0.00     0.162 HD
BRANCH  15  18
HETATM   18  O   UNK N   1      19.450  16.720   8.506  0.00  0.00    -0.350 OA
HETATM   19  H   UNK N   1      18.863  17.442   8.397  0.00  0.00     0.219 HD
ENDBRANCH  15  18
ENDBRANCH   9  14
BRANCH  10  20
HETATM   20  O   UNK N   1      18.837  13.952   5.212  0.00  0.00    -0.391 OA
HETATM   21  H   UNK N   1      18.652  14.059   6.158  0.00  0.00     0.210 HD
ENDBRANCH  10  20
BRANCH  11  22
HETATM   22  O   UNK N   1      20.767  13.670   3.246  0.00  0.00    -0.390 OA
HETATM   23  H   UNK N   1      21.344  12.982   3.612  0.00  0.00     0.210 HD
ENDBRANCH  11  22
BRANCH  12  24
HETATM   24  C   UNK N   1      20.491  15.194   0.750  0.00  0.00     0.198 C 
BRANCH  24  25
HETATM   25  O   UNK N   1      21.869  14.959   0.778  0.00  0.00    -0.398 OA
HETATM   26  H   UNK N   1      22.702  14.463   0.755  0.00  0.00     0.209 HD
ENDBRANCH  24  25
ENDBRANCH  12  24
ENDBRANCH   7   8
ENDBRANCH   4   7
BRANCH   1  27
HETATM   27  C   UNK N   1      23.160  20.170   3.043  0.00  0.00     0.198 C 
BRANCH  27  28
HETATM   28  O   UNK N   1      21.810  20.360   3.341  0.00  0.00    -0.398 OA
HETATM   29  H   UNK N   1      20.874  20.185   3.526  0.00  0.00     0.209 HD
ENDBRANCH  27  28
ENDBRANCH   1  27
BRANCH   3  30
HETATM   30  O   UNK N   1      23.172  15.413   4.470  0.00  0.00    -0.391 OA
HETATM   31  H   UNK N   1      23.166  14.710   5.139  0.00  0.00     0.210 HD
ENDBRANCH   3  30
BRANCH   2  32
HETATM   32  N   UNK N   1      26.058  15.575   4.686  0.00  0.00    -0.363 N 
HETATM   33  C   UNK N   1      26.234  14.390   4.199  0.00  0.00     0.107 C 
HETATM   34  C   UNK N   1      27.057  13.400   4.949  0.00  0.00     0.097 C 
ATOM     35  HN  UNK N   1      26.508  15.809   5.571  1.00  0.00     0.162 HD
BRANCH  33  36
HETATM   36  O   UNK N   1      25.656  14.017   3.038  0.00  0.00    -0.350 OA
HETATM   37  H   UNK N   1      25.170  13.281   2.722  0.00  0.00     0.219 HD
ENDBRANCH  33  36
ENDBRANCH   2  32
BRANCH   5  38
HETATM   38  O   UNK N   1      27.133  18.238   3.770  0.00  0.00    -0.318 OA
BRANCH  38  39
HETATM   39  C   UNK N   1      28.158  18.071   4.670  0.00  0.00     0.074 A 
HETATM   40  C   UNK N   1      29.262  17.247   4.352  0.00  0.00     0.038 A 
HETATM   41  C   UNK N   1      30.208  16.901   5.302  0.00  0.00     0.017 A 
HETATM   42  C   UNK N   1      30.087  17.383   6.603  0.00  0.00     0.004 A 
HETATM   43  C   UNK N   1      30.990  17.001   7.601  0.00  0.00    -0.043 A 
HETATM   44  C   UNK N   1      29.028  18.262   6.931  0.00  0.00     0.092 A 
HETATM   45  C   UNK N   1      32.105  16.042   7.333  0.00  0.00     0.049 C 
HETATM   46  C   UNK N   1      30.829  17.516   8.885  0.00  0.00     0.090 A 
HETATM   47  C   UNK N   1      29.776  18.396   9.136  0.00  0.00     0.288 A 
HETATM   48  O   UNK N   1      29.634  18.857  10.257  0.00  0.00    -0.260 OA
HETATM   49  O   UNK N   1      28.919  18.733   8.173  0.00  0.00    -0.275 OA
HETATM   50  C   UNK N   1      28.065  18.602   5.963  0.00  0.00     0.075 A 
ENDBRANCH  38  39
ENDBRANCH   5  38
TORSDOF 15
ENDMDL
MODEL 9
REMARK VINA RESULT:      -7.3      2.679     10.605
REMARK  15 active torsions:
REMARK  status: ('A' for Active; 'I' for Inactive)
REMARK    1  A    between atoms: C_16  and  C_8 
REMARK    2  A    between atoms: O_31  and  C_8 
REMARK    3  A    between atoms: C_17  and  C_9 
REMARK    4  A    between atoms: O_32  and  C_9 
REMARK    5  A    between atoms: O_33  and  C_11 
REMARK    6  A    between atoms: O_34  and  C_12 
REMARK    7  A    between atoms: O_39  and  C_13 
REMARK    8  A    between atoms: C_19  and  N_27 
REMARK    9  A    between atoms: C_20  and  N_29 
REMARK   10  A    between atoms: C_21  and  O_36 
REMARK   11  A    between atoms: C_22  and  O_37 
REMARK   12  A    between atoms: C_23  and  O_38 
REMARK   13  A    between atoms: C_24  and  O_43 
REMARK   14  A    between atoms: C_25  and  O_39 
REMARK   15  A    between atoms: C_26  and  O_43 
ROOT
HETATM    1  C   UNK N   1      29.599  17.509   8.347  0.00  0.00     0.180 C 
HETATM    2  C   UNK N   1      31.843  16.805   6.649  0.00  0.00     0.170 C 
HETATM    3  C   UNK N   1      30.401  16.348   6.219  0.00  0.00     0.177 C 
HETATM    4  C   UNK N   1      29.310  17.286   6.835  0.00  0.00     0.186 C 
HETATM    5  C   UNK N   1      31.822  16.868   8.192  0.00  0.00     0.292 C 
HETATM    6  O   UNK N   1      30.926  17.909   8.503  0.00  0.00    -0.349 OA
ENDROOT
BRANCH   4   7
HETATM    7  O   UNK N   1      27.966  16.930   6.439  0.00  0.00    -0.348 OA
BRANCH   7   8
HETATM    8  C   UNK N   1      27.478  17.169   5.106  0.00  0.00     0.286 C 
HETATM    9  C   UNK N   1      26.092  17.890   5.250  0.00  0.00     0.169 C 
HETATM   10  C   UNK N   1      25.408  18.036   3.873  0.00  0.00     0.177 C 
HETATM   11  C   UNK N   1      25.317  16.674   3.182  0.00  0.00     0.180 C 
HETATM   12  C   UNK N   1      26.734  16.100   3.117  0.00  0.00     0.179 C 
HETATM   13  O   UNK N   1      27.240  15.948   4.426  0.00  0.00    -0.349 OA
BRANCH   9  14
HETATM   14  N   UNK N   1      26.039  19.186   5.929  0.00  0.00    -0.363 N 
HETATM   15  C   UNK N   1      26.760  20.253   5.819  0.00  0.00     0.107 C 
HETATM   16  C   UNK N   1      27.887  20.394   4.853  0.00  0.00     0.097 C 
ATOM     17  HN  UNK N   1      25.293  19.260   6.621  1.00  0.00     0.162 HD
BRANCH  15  18
HETATM   18  O   UNK N   1      26.469  21.307   6.604  0.00  0.00    -0.350 OA
HETATM   19  H   UNK N   1      25.991  21.190   7.401  0.00  0.00     0.219 HD
ENDBRANCH  15  18
ENDBRANCH   9  14
BRANCH  10  20
HETATM   20  O   UNK N   1      24.124  18.570   4.015  0.00  0.00    -0.391 OA
HETATM   21  H   UNK N   1      23.398  18.132   4.485  0.00  0.00     0.210 HD
ENDBRANCH  10  20
BRANCH  11  22
HETATM   22  O   UNK N   1      24.478  15.825   3.916  0.00  0.00    -0.390 OA
HETATM   23  H   UNK N   1      24.000  15.027   4.191  0.00  0.00     0.210 HD
ENDBRANCH  11  22
BRANCH  12  24
HETATM   24  C   UNK N   1      26.760  14.736   2.420  0.00  0.00     0.198 C 
BRANCH  24  25
HETATM   25  O   UNK N   1      25.614  14.535   1.646  0.00  0.00    -0.398 OA
HETATM   26  H   UNK N   1      25.031  14.556   0.870  0.00  0.00     0.209 HD
ENDBRANCH  24  25
ENDBRANCH  12  24
ENDBRANCH   7   8
ENDBRANCH   4   7
BRANCH   1  27
HETATM   27  C   UNK N   1      28.776  18.647   8.961  0.00  0.00     0.198 C 
BRANCH  27  28
HETATM   28  O   UNK N   1      27.455  18.258   9.186  0.00  0.00    -0.398 OA
HETATM   29  H   UNK N   1      26.680  17.737   9.448  0.00  0.00     0.209 HD
ENDBRANCH  27  28
ENDBRANCH   1  27
BRANCH   3  30
HETATM   30  O   UNK N   1      30.301  16.359   4.825  0.00  0.00    -0.391 OA
HETATM   31  H   UNK N   1      30.075  17.150   4.312  0.00  0.00     0.210 HD
ENDBRANCH   3  30
BRANCH   2  32
HETATM   32  N   UNK N   1      32.851  15.895   6.125  0.00  0.00    -0.363 N 
HETATM   33  C   UNK N   1      34.076  16.246   5.908  0.00  0.00     0.107 C 
HETATM   34  C   UNK N   1      35.037  15.257   5.344  0.00  0.00     0.097 C 
ATOM     35  HN  UNK N   1      32.576  14.935   5.919  1.00  0.00     0.162 HD
BRANCH  33  36
HETATM   36  O   UNK N   1      34.497  17.506   6.149  0.00  0.00    -0.350 OA
HETATM   37  H   UNK N   1      34.655  18.282   5.647  0.00  0.00     0.219 HD
ENDBRANCH  33  36
ENDBRANCH   2  32
BRANCH   5  38
HETATM   38  O   UNK N   1      33.007  17.185   8.845  0.00  0.00    -0.318 OA
BRANCH  38  39
HETATM   39  C   UNK N   1      33.770  16.174   9.378  0.00  0.00     0.074 A 
HETATM   40  C   UNK N   1      35.063  16.444   9.881  0.00  0.00     0.038 A 
HETATM   41  C   UNK N   1      35.930  15.426  10.242  0.00  0.00     0.017 A 
HETATM   42  C   UNK N   1      35.523  14.100  10.122  0.00  0.00     0.004 A 
HETATM   43  C   UNK N   1      36.396  13.047  10.418  0.00  0.00    -0.043 A 
HETATM   44  C   UNK N   1      34.212  13.804   9.683  0.00  0.00     0.092 A 
HETATM   45  C   UNK N   1      37.808  13.289  10.845  0.00  0.00     0.049 C 
HETATM   46  C   UNK N   1      35.939  11.738  10.288  0.00  0.00     0.090 A 
HETATM   47  C   UNK N   1      34.626  11.516   9.871  0.00  0.00     0.288 A 
HETATM   48  O   UNK N   1      34.216  10.372   9.764  0.00  0.00    -0.260 OA
HETATM   49  O   UNK N   1      33.817  12.534   9.580  0.00  0.00    -0.275 OA
HETATM   50  C   UNK N   1      33.338  14.842   9.310  0.00  0.00     0.075 A 
ENDBRANCH  38  39
ENDBRANCH   5  38
TORSDOF 15
ENDMDL
