MODEL 1
REMARK VINA RESULT:      -5.8      0.000      0.000
REMARK  6 active torsions:
REMARK  status: ('A' for Active; 'I' for Inactive)
REMARK    1  A    between atoms: C_4  and  C_1 
REMARK    2  A    between atoms: O_18  and  C_1 
REMARK    3  A    between atoms: C_6  and  O_19 
REMARK    4  A    between atoms: C_7  and  O_20 
REMARK    5  A    between atoms: Se_22  and  C_9 
REMARK    6  A    between atoms: C_10  and  N_17 
ROOT
HETATM    1  C   UNK N   1      32.716  13.798   8.999  0.00  0.00     0.182 A 
HETATM    2  C   UNK N   1      35.408  16.764  10.879  0.00  0.00     0.188 A 
HETATM    3  C   UNK N   1      33.986  16.175   9.392  0.00  0.00     0.107 A 
HETATM    4  C   UNK N   1      34.183  15.137  10.225  0.00  0.00     0.141 A 
HETATM    5  C   UNK N   1      33.122  16.050   8.316  0.00  0.00     0.093 A 
HETATM    6  N   UNK N   1      33.570  13.939  10.058  0.00  0.00    -0.336 N 
ATOM      7  HN  UNK N   1      33.739  13.168  10.704  1.00  0.00     0.168 HD
HETATM    8  N   UNK N   1      32.498  14.847   8.137  0.00  0.00    -0.348 N 
ATOM      9  HN  UNK N   1      31.858  14.725   7.351  1.00  0.00     0.167 HD
HETATM   10  N   UNK N   1      34.737  17.221   9.784  0.00  0.00    -0.347 N 
ATOM     11  HN  UNK N   1      34.793  18.146   9.357  1.00  0.00     0.167 HD
HETATM   12  N   UNK N   1      35.073  15.475  11.163  0.00  0.00    -0.297 N 
ENDROOT
BRANCH  12  13
HETATM   13  C   UNK N   1      35.572  14.602  12.232  0.00  0.00     0.262 C 
HETATM   14  C   UNK N   1      36.744  13.699  11.809  0.00  0.00     0.198 C 
HETATM   15  C   UNK N   1      36.646  12.669  12.901  0.00  0.00     0.182 C 
HETATM   16  C   UNK N   1      35.123  12.487  12.919  0.00  0.00     0.179 C 
HETATM   17  O   UNK N   1      34.536  13.753  12.699  0.00  0.00    -0.353 OA
BRANCH  14  18
HETATM   18  O   UNK N   1      36.474  13.084  10.579  0.00  0.00    -0.388 OA
HETATM   19  H   UNK N   1      36.524  12.436   9.858  0.00  0.00     0.210 HD
ENDBRANCH  14  18
BRANCH  15  20
HETATM   20  O   UNK N   1      37.104  13.224  14.102  0.00  0.00    -0.390 OA
HETATM   21  H   UNK N   1      37.126  13.503  15.032  0.00  0.00     0.210 HD
ENDBRANCH  15  20
BRANCH  16  22
HETATM   22  C   UNK N   1      34.583  11.822  14.184  0.00  0.00     0.198 C 
BRANCH  22  23
HETATM   23  O   UNK N   1      34.273  12.770  15.163  0.00  0.00    -0.398 OA
HETATM   24  H   UNK N   1      34.148  13.608  15.634  0.00  0.00     0.209 HD
ENDBRANCH  22  23
ENDBRANCH  16  22
ENDBRANCH  12  13
BRANCH   5  25
HETATM   25 Se   UNK N   1      32.814  17.497   7.096  0.00  0.00     0.000 Se
HETATM   26  H   UNK N   1      31.512  18.258   7.048  0.00  0.00     0.000 HD
ENDBRANCH   5  25
TORSDOF 6
ENDMDL
MODEL 2
REMARK VINA RESULT:      -5.5      3.801      6.248
REMARK  6 active torsions:
REMARK  status: ('A' for Active; 'I' for Inactive)
REMARK    1  A    between atoms: C_4  and  C_1 
REMARK    2  A    between atoms: O_18  and  C_1 
REMARK    3  A    between atoms: C_6  and  O_19 
REMARK    4  A    between atoms: C_7  and  O_20 
REMARK    5  A    between atoms: Se_22  and  C_9 
REMARK    6  A    between atoms: C_10  and  N_17 
ROOT
HETATM    1  C   UNK N   1      36.878  14.697  14.774  0.00  0.00     0.182 A 
HETATM    2  C   UNK N   1      36.202  12.574  10.952  0.00  0.00     0.188 A 
HETATM    3  C   UNK N   1      36.657  12.607  13.042  0.00  0.00     0.107 A 
HETATM    4  C   UNK N   1      36.436  13.871  12.637  0.00  0.00     0.141 A 
HETATM    5  C   UNK N   1      36.998  12.348  14.360  0.00  0.00     0.093 A 
HETATM    6  N   UNK N   1      36.539  14.934  13.471  0.00  0.00    -0.336 N 
ATOM      7  HN  UNK N   1      36.367  15.883  13.136  1.00  0.00     0.168 HD
HETATM    8  N   UNK N   1      37.105  13.413  15.211  0.00  0.00    -0.348 N 
ATOM      9  HN  UNK N   1      37.358  13.253  16.186  1.00  0.00     0.167 HD
HETATM   10  N   UNK N   1      36.508  11.763  12.004  0.00  0.00    -0.347 N 
ATOM     11  HN  UNK N   1      36.602  10.748  12.004  1.00  0.00     0.167 HD
HETATM   12  N   UNK N   1      36.155  13.881  11.330  0.00  0.00    -0.297 N 
ENDROOT
BRANCH  12  13
HETATM   13  C   UNK N   1      35.885  15.072  10.516  0.00  0.00     0.262 C 
HETATM   14  C   UNK N   1      34.630  15.853  10.944  0.00  0.00     0.198 C 
HETATM   15  C   UNK N   1      34.397  16.628   9.676  0.00  0.00     0.182 C 
HETATM   16  C   UNK N   1      34.650  15.505   8.663  0.00  0.00     0.179 C 
HETATM   17  O   UNK N   1      35.710  14.711   9.156  0.00  0.00    -0.353 OA
BRANCH  14  18
HETATM   18  O   UNK N   1      33.551  14.980  11.147  0.00  0.00    -0.388 OA
HETATM   19  H   UNK N   1      32.778  14.578  11.573  0.00  0.00     0.210 HD
ENDBRANCH  14  18
BRANCH  15  20
HETATM   20  O   UNK N   1      35.364  17.636   9.567  0.00  0.00    -0.390 OA
HETATM   21  H   UNK N   1      35.819  18.438   9.266  0.00  0.00     0.210 HD
ENDBRANCH  15  20
BRANCH  16  22
HETATM   22  C   UNK N   1      34.919  15.990   7.239  0.00  0.00     0.198 C 
BRANCH  22  23
HETATM   23  O   UNK N   1      34.451  17.292   7.049  0.00  0.00    -0.398 OA
HETATM   24  H   UNK N   1      34.410  18.253   6.924  0.00  0.00     0.209 HD
ENDBRANCH  22  23
ENDBRANCH  16  22
ENDBRANCH  12  13
BRANCH   5  25
HETATM   25 Se   UNK N   1      37.331  10.567  14.984  0.00  0.00     0.000 Se
HETATM   26  H   UNK N   1      36.234   9.665  15.497  0.00  0.00     0.000 HD
ENDBRANCH   5  25
TORSDOF 6
ENDMDL
MODEL 3
REMARK VINA RESULT:      -5.4      4.300      6.188
REMARK  6 active torsions:
REMARK  status: ('A' for Active; 'I' for Inactive)
REMARK    1  A    between atoms: C_4  and  C_1 
REMARK    2  A    between atoms: O_18  and  C_1 
REMARK    3  A    between atoms: C_6  and  O_19 
REMARK    4  A    between atoms: C_7  and  O_20 
REMARK    5  A    between atoms: Se_22  and  C_9 
REMARK    6  A    between atoms: C_10  and  N_17 
ROOT
HETATM    1  C   UNK N   1      35.383   9.967  13.091  0.00  0.00     0.182 A 
HETATM    2  C   UNK N   1      36.224  13.709  15.297  0.00  0.00     0.188 A 
HETATM    3  C   UNK N   1      35.693  11.638  15.219  0.00  0.00     0.107 A 
HETATM    4  C   UNK N   1      35.913  12.066  13.963  0.00  0.00     0.141 A 
HETATM    5  C   UNK N   1      35.306  10.327  15.450  0.00  0.00     0.093 A 
HETATM    6  N   UNK N   1      35.767  11.263  12.881  0.00  0.00    -0.336 N 
ATOM      7  HN  UNK N   1      35.939  11.614  11.939  1.00  0.00     0.168 HD
HETATM    8  N   UNK N   1      35.155   9.508  14.367  0.00  0.00    -0.348 N 
ATOM      9  HN  UNK N   1      34.869   8.538  14.506  1.00  0.00     0.167 HD
HETATM   10  N   UNK N   1      35.890  12.649  16.086  0.00  0.00    -0.347 N 
ATOM     11  HN  UNK N   1      35.808  12.627  17.102  1.00  0.00     0.167 HD
HETATM   12  N   UNK N   1      36.242  13.361  13.981  0.00  0.00    -0.297 N 
ENDROOT
BRANCH  12  13
HETATM   13  C   UNK N   1      36.526  14.194  12.806  0.00  0.00     0.262 C 
HETATM   14  C   UNK N   1      35.274  14.804  12.152  0.00  0.00     0.198 C 
HETATM   15  C   UNK N   1      35.853  15.124  10.801  0.00  0.00     0.182 C 
HETATM   16  C   UNK N   1      36.644  13.830  10.570  0.00  0.00     0.179 C 
HETATM   17  O   UNK N   1      37.190  13.433  11.811  0.00  0.00    -0.353 OA
BRANCH  14  18
HETATM   18  O   UNK N   1      34.275  13.833  11.999  0.00  0.00    -0.388 OA
HETATM   19  H   UNK N   1      33.673  13.107  12.227  0.00  0.00     0.210 HD
ENDBRANCH  14  18
BRANCH  15  20
HETATM   20  O   UNK N   1      36.709  16.227  10.915  0.00  0.00    -0.390 OA
HETATM   21  H   UNK N   1      37.091  17.060  11.235  0.00  0.00     0.210 HD
ENDBRANCH  15  20
BRANCH  16  22
HETATM   22  C   UNK N   1      37.715  13.931   9.484  0.00  0.00     0.198 C 
BRANCH  22  23
HETATM   23  O   UNK N   1      38.744  14.796   9.865  0.00  0.00    -0.398 OA
HETATM   24  H   UNK N   1      39.321  15.570   9.945  0.00  0.00     0.209 HD
ENDBRANCH  22  23
ENDBRANCH  16  22
ENDBRANCH  12  13
BRANCH   5  25
HETATM   25 Se   UNK N   1      34.972   9.671  17.220  0.00  0.00     0.000 Se
HETATM   26  H   UNK N   1      34.276   8.358  17.485  0.00  0.00     0.000 HD
ENDBRANCH   5  25
TORSDOF 6
ENDMDL
MODEL 4
REMARK VINA RESULT:      -5.3      3.957      5.813
REMARK  6 active torsions:
REMARK  status: ('A' for Active; 'I' for Inactive)
REMARK    1  A    between atoms: C_4  and  C_1 
REMARK    2  A    between atoms: O_18  and  C_1 
REMARK    3  A    between atoms: C_6  and  O_19 
REMARK    4  A    between atoms: C_7  and  O_20 
REMARK    5  A    between atoms: Se_22  and  C_9 
REMARK    6  A    between atoms: C_10  and  N_17 
ROOT
HETATM    1  C   UNK N   1      28.694  18.572   8.996  0.00  0.00     0.182 A 
HETATM    2  C   UNK N   1      31.317  16.143   6.389  0.00  0.00     0.188 A 
HETATM    3  C   UNK N   1      29.475  17.147   6.811  0.00  0.00     0.107 A 
HETATM    4  C   UNK N   1      30.312  17.346   7.845  0.00  0.00     0.141 A 
HETATM    5  C   UNK N   1      28.194  17.674   6.841  0.00  0.00     0.093 A 
HETATM    6  N   UNK N   1      29.957  18.048   8.949  0.00  0.00    -0.336 N 
ATOM      7  HN  UNK N   1      30.611  18.182   9.720  1.00  0.00     0.168 HD
HETATM    8  N   UNK N   1      27.823  18.384   7.948  0.00  0.00    -0.348 N 
ATOM      9  HN  UNK N   1      26.885  18.782   7.999  1.00  0.00     0.167 HD
HETATM   10  N   UNK N   1      30.083  16.400   5.870  0.00  0.00    -0.347 N 
ATOM     11  HN  UNK N   1      29.705  16.094   4.973  1.00  0.00     0.167 HD
HETATM   12  N   UNK N   1      31.472  16.723   7.611  0.00  0.00    -0.297 N 
ENDROOT
BRANCH  12  13
HETATM   13  C   UNK N   1      32.625  16.681   8.517  0.00  0.00     0.262 C 
HETATM   14  C   UNK N   1      33.613  17.845   8.329  0.00  0.00     0.198 C 
HETATM   15  C   UNK N   1      34.816  17.236   8.996  0.00  0.00     0.182 C 
HETATM   16  C   UNK N   1      34.723  15.823   8.408  0.00  0.00     0.179 C 
HETATM   17  O   UNK N   1      33.354  15.479   8.332  0.00  0.00    -0.353 OA
BRANCH  14  18
HETATM   18  O   UNK N   1      33.897  18.037   6.970  0.00  0.00    -0.388 OA
HETATM   19  H   UNK N   1      34.188  17.835   6.067  0.00  0.00     0.210 HD
ENDBRANCH  14  18
BRANCH  15  20
HETATM   20  O   UNK N   1      34.618  17.222  10.382  0.00  0.00    -0.390 OA
HETATM   21  H   UNK N   1      34.397  16.903  11.272  0.00  0.00     0.210 HD
ENDBRANCH  15  20
BRANCH  16  22
HETATM   22  C   UNK N   1      35.531  14.770   9.165  0.00  0.00     0.198 C 
BRANCH  22  23
HETATM   23  O   UNK N   1      36.602  15.348   9.851  0.00  0.00    -0.398 OA
HETATM   24  H   UNK N   1      37.433  15.804  10.056  0.00  0.00     0.209 HD
ENDBRANCH  22  23
ENDBRANCH  16  22
ENDBRANCH  12  13
BRANCH   5  25
HETATM   25 Se   UNK N   1      26.961  17.412   5.396  0.00  0.00     0.000 Se
HETATM   26  H   UNK N   1      26.234  16.108   5.172  0.00  0.00     0.000 HD
ENDBRANCH   5  25
TORSDOF 6
ENDMDL
MODEL 5
REMARK VINA RESULT:      -5.2     16.107     17.221
REMARK  6 active torsions:
REMARK  status: ('A' for Active; 'I' for Inactive)
REMARK    1  A    between atoms: C_4  and  C_1 
REMARK    2  A    between atoms: O_18  and  C_1 
REMARK    3  A    between atoms: C_6  and  O_19 
REMARK    4  A    between atoms: C_7  and  O_20 
REMARK    5  A    between atoms: Se_22  and  C_9 
REMARK    6  A    between atoms: C_10  and  N_17 
ROOT
HETATM    1  C   UNK N   1      21.868  14.713   1.427  0.00  0.00     0.182 A 
HETATM    2  C   UNK N   1      19.110  15.832   4.701  0.00  0.00     0.188 A 
HETATM    3  C   UNK N   1      20.036  14.393   3.417  0.00  0.00     0.107 A 
HETATM    4  C   UNK N   1      20.537  15.606   3.124  0.00  0.00     0.141 A 
HETATM    5  C   UNK N   1      20.453  13.277   2.708  0.00  0.00     0.093 A 
HETATM    6  N   UNK N   1      21.448  15.803   2.139  0.00  0.00    -0.336 N 
ATOM      7  HN  UNK N   1      21.810  16.735   1.937  1.00  0.00     0.168 HD
HETATM    8  N   UNK N   1      21.371  13.463   1.712  0.00  0.00    -0.348 N 
ATOM      9  HN  UNK N   1      21.695  12.660   1.172  1.00  0.00     0.167 HD
HETATM   10  N   UNK N   1      19.139  14.499   4.415  0.00  0.00    -0.347 N 
ATOM     11  HN  UNK N   1      18.603  13.752   4.857  1.00  0.00     0.167 HD
HETATM   12  N   UNK N   1      19.970  16.528   3.908  0.00  0.00    -0.297 N 
ENDROOT
BRANCH  12  13
HETATM   13  C   UNK N   1      20.232  17.971   3.870  0.00  0.00     0.262 C 
HETATM   14  C   UNK N   1      19.362  18.740   2.859  0.00  0.00     0.198 C 
HETATM   15  C   UNK N   1      20.201  19.982   2.731  0.00  0.00     0.182 C 
HETATM   16  C   UNK N   1      21.585  19.326   2.651  0.00  0.00     0.179 C 
HETATM   17  O   UNK N   1      21.587  18.218   3.529  0.00  0.00    -0.353 OA
BRANCH  14  18
HETATM   18  O   UNK N   1      19.340  18.078   1.624  0.00  0.00    -0.388 OA
HETATM   19  H   UNK N   1      19.209  17.935   0.673  0.00  0.00     0.210 HD
ENDBRANCH  14  18
BRANCH  15  20
HETATM   20  O   UNK N   1      20.070  20.749   3.895  0.00  0.00    -0.390 OA
HETATM   21  H   UNK N   1      19.837  21.004   4.802  0.00  0.00     0.210 HD
ENDBRANCH  15  20
BRANCH  16  22
HETATM   22  C   UNK N   1      22.749  20.275   2.933  0.00  0.00     0.198 C 
BRANCH  22  23
HETATM   23  O   UNK N   1      22.386  21.605   2.710  0.00  0.00    -0.398 OA
HETATM   24  H   UNK N   1      22.253  22.559   2.817  0.00  0.00     0.209 HD
ENDBRANCH  22  23
ENDBRANCH  16  22
ENDBRANCH  12  13
BRANCH   5  25
HETATM   25 Se   UNK N   1      19.763  11.528   3.082  0.00  0.00     0.000 Se
HETATM   26  H   UNK N   1      18.631  11.289   4.051  0.00  0.00     0.000 HD
ENDBRANCH   5  25
TORSDOF 6
ENDMDL
MODEL 6
REMARK VINA RESULT:      -5.2      3.307      5.022
REMARK  6 active torsions:
REMARK  status: ('A' for Active; 'I' for Inactive)
REMARK    1  A    between atoms: C_4  and  C_1 
REMARK    2  A    between atoms: O_18  and  C_1 
REMARK    3  A    between atoms: C_6  and  O_19 
REMARK    4  A    between atoms: C_7  and  O_20 
REMARK    5  A    between atoms: Se_22  and  C_9 
REMARK    6  A    between atoms: C_10  and  N_17 
ROOT
HETATM    1  C   UNK N   1      30.204  18.563   9.305  0.00  0.00     0.182 A 
HETATM    2  C   UNK N   1      31.457  15.427   6.446  0.00  0.00     0.188 A 
HETATM    3  C   UNK N   1      30.130  16.976   7.093  0.00  0.00     0.107 A 
HETATM    4  C   UNK N   1      31.136  16.882   7.981  0.00  0.00     0.141 A 
HETATM    5  C   UNK N   1      29.111  17.894   7.290  0.00  0.00     0.093 A 
HETATM    6  N   UNK N   1      31.204  17.653   9.094  0.00  0.00    -0.336 N 
ATOM      7  HN  UNK N   1      31.978  17.560   9.752  1.00  0.00     0.168 HD
HETATM    8  N   UNK N   1      29.168  18.678   8.408  0.00  0.00    -0.348 N 
ATOM      9  HN  UNK N   1      28.430  19.361   8.581  1.00  0.00     0.167 HD
HETATM   10  N   UNK N   1      30.309  16.078   6.106  0.00  0.00    -0.347 N 
ATOM     11  HN  UNK N   1      29.718  15.920   5.290  1.00  0.00     0.167 HD
HETATM   12  N   UNK N   1      31.980  15.915   7.605  0.00  0.00    -0.297 N 
ENDROOT
BRANCH  12  13
HETATM   13  C   UNK N   1      33.182  15.490   8.330  0.00  0.00     0.262 C 
HETATM   14  C   UNK N   1      32.907  14.499   9.474  0.00  0.00     0.198 C 
HETATM   15  C   UNK N   1      34.180  14.685  10.252  0.00  0.00     0.182 C 
HETATM   16  C   UNK N   1      34.281  16.213  10.179  0.00  0.00     0.179 C 
HETATM   17  O   UNK N   1      33.838  16.612   8.899  0.00  0.00    -0.353 OA
BRANCH  14  18
HETATM   18  O   UNK N   1      31.829  14.936  10.257  0.00  0.00    -0.388 OA
HETATM   19  H   UNK N   1      31.288  15.099  11.046  0.00  0.00     0.210 HD
ENDBRANCH  14  18
BRANCH  15  20
HETATM   20  O   UNK N   1      35.236  14.074   9.563  0.00  0.00    -0.390 OA
HETATM   21  H   UNK N   1      35.845  13.838   8.846  0.00  0.00     0.210 HD
ENDBRANCH  15  20
BRANCH  16  22
HETATM   22  C   UNK N   1      35.669  16.769  10.498  0.00  0.00     0.198 C 
BRANCH  22  23
HETATM   23  O   UNK N   1      36.403  15.881  11.288  0.00  0.00    -0.398 OA
HETATM   24  H   UNK N   1      36.823  15.444  12.044  0.00  0.00     0.209 HD
ENDBRANCH  22  23
ENDBRANCH  16  22
ENDBRANCH  12  13
BRANCH   5  25
HETATM   25 Se   UNK N   1      27.652  18.061   6.058  0.00  0.00     0.000 Se
HETATM   26  H   UNK N   1      27.003  19.386   5.739  0.00  0.00     0.000 HD
ENDBRANCH   5  25
TORSDOF 6
ENDMDL
MODEL 7
REMARK VINA RESULT:      -5.1      2.207      3.460
REMARK  6 active torsions:
REMARK  status: ('A' for Active; 'I' for Inactive)
REMARK    1  A    between atoms: C_4  and  C_1 
REMARK    2  A    between atoms: O_18  and  C_1 
REMARK    3  A    between atoms: C_6  and  O_19 
REMARK    4  A    between atoms: C_7  and  O_20 
REMARK    5  A    between atoms: Se_22  and  C_9 
REMARK    6  A    between atoms: C_10  and  N_17 
ROOT
HETATM    1  C   UNK N   1      30.834  16.865   8.527  0.00  0.00     0.182 A 
HETATM    2  C   UNK N   1      34.883  15.587   7.281  0.00  0.00     0.188 A 
HETATM    3  C   UNK N   1      32.971  16.463   6.887  0.00  0.00     0.107 A 
HETATM    4  C   UNK N   1      33.021  16.123   8.188  0.00  0.00     0.141 A 
HETATM    5  C   UNK N   1      31.823  17.033   6.360  0.00  0.00     0.093 A 
HETATM    6  N   UNK N   1      31.976  16.306   9.032  0.00  0.00    -0.336 N 
ATOM      7  HN  UNK N   1      32.041  16.037  10.014  1.00  0.00     0.168 HD
HETATM    8  N   UNK N   1      30.762  17.223   7.202  0.00  0.00    -0.348 N 
ATOM      9  HN  UNK N   1      29.903  17.638   6.841  1.00  0.00     0.167 HD
HETATM   10  N   UNK N   1      34.135  16.147   6.289  0.00  0.00    -0.347 N 
ATOM     11  HN  UNK N   1      34.397  16.293   5.314  1.00  0.00     0.167 HD
HETATM   12  N   UNK N   1      34.205  15.566   8.462  0.00  0.00    -0.297 N 
ENDROOT
BRANCH  12  13
HETATM   13  C   UNK N   1      34.627  15.038   9.764  0.00  0.00     0.262 C 
HETATM   14  C   UNK N   1      34.910  16.122  10.819  0.00  0.00     0.198 C 
HETATM   15  C   UNK N   1      35.750  15.308  11.765  0.00  0.00     0.182 C 
HETATM   16  C   UNK N   1      36.624  14.578  10.739  0.00  0.00     0.179 C 
HETATM   17  O   UNK N   1      35.812  14.271   9.624  0.00  0.00    -0.353 OA
BRANCH  14  18
HETATM   18  O   UNK N   1      35.700  17.145  10.276  0.00  0.00    -0.388 OA
HETATM   19  H   UNK N   1      36.226  17.637   9.625  0.00  0.00     0.210 HD
ENDBRANCH  14  18
BRANCH  15  20
HETATM   20  O   UNK N   1      34.926  14.412  12.459  0.00  0.00    -0.390 OA
HETATM   21  H   UNK N   1      34.339  14.049  13.141  0.00  0.00     0.210 HD
ENDBRANCH  15  20
BRANCH  16  22
HETATM   22  C   UNK N   1      37.334  13.339  11.283  0.00  0.00     0.198 C 
BRANCH  22  23
HETATM   23  O   UNK N   1      38.696  13.357  10.974  0.00  0.00    -0.398 OA
HETATM   24  H   UNK N   1      39.619  13.635  10.871  0.00  0.00     0.209 HD
ENDBRANCH  22  23
ENDBRANCH  16  22
ENDBRANCH  12  13
BRANCH   5  25
HETATM   25 Se   UNK N   1      31.699  17.528   4.512  0.00  0.00     0.000 Se
HETATM   26  H   UNK N   1      31.006  16.667   3.483  0.00  0.00     0.000 HD
ENDBRANCH   5  25
TORSDOF 6
ENDMDL
MODEL 8
REMARK VINA RESULT:      -5.1      3.797      6.043
REMARK  6 active torsions:
REMARK  status: ('A' for Active; 'I' for Inactive)
REMARK    1  A    between atoms: C_4  and  C_1 
REMARK    2  A    between atoms: O_18  and  C_1 
REMARK    3  A    between atoms: C_6  and  O_19 
REMARK    4  A    between atoms: C_7  and  O_20 
REMARK    5  A    between atoms: Se_22  and  C_9 
REMARK    6  A    between atoms: C_10  and  N_17 
ROOT
HETATM    1  C   UNK N   1      34.236  12.426  10.025  0.00  0.00     0.182 A 
HETATM    2  C   UNK N   1      35.442  16.621  10.752  0.00  0.00     0.188 A 
HETATM    3  C   UNK N   1      35.182  14.591  11.379  0.00  0.00     0.107 A 
HETATM    4  C   UNK N   1      34.816  14.686  10.088  0.00  0.00     0.141 A 
HETATM    5  C   UNK N   1      35.087  13.379  12.043  0.00  0.00     0.093 A 
HETATM    6  N   UNK N   1      34.339  13.630   9.384  0.00  0.00    -0.336 N 
ATOM      7  HN  UNK N   1      34.067  13.731   8.406  1.00  0.00     0.168 HD
HETATM    8  N   UNK N   1      34.607  12.307  11.343  0.00  0.00    -0.348 N 
ATOM      9  HN  UNK N   1      34.523  11.401  11.807  1.00  0.00     0.167 HD
HETATM   10  N   UNK N   1      35.592  15.794  11.825  0.00  0.00    -0.347 N 
ATOM     11  HN  UNK N   1      35.935  16.032  12.756  1.00  0.00     0.167 HD
HETATM   12  N   UNK N   1      34.963  15.947   9.670  0.00  0.00    -0.297 N 
ENDROOT
BRANCH  12  13
HETATM   13  C   UNK N   1      34.639  16.455   8.332  0.00  0.00     0.262 C 
HETATM   14  C   UNK N   1      33.578  17.569   8.324  0.00  0.00     0.198 C 
HETATM   15  C   UNK N   1      33.157  17.476   6.883  0.00  0.00     0.182 C 
HETATM   16  C   UNK N   1      33.089  15.949   6.754  0.00  0.00     0.179 C 
HETATM   17  O   UNK N   1      34.151  15.406   7.511  0.00  0.00    -0.353 OA
BRANCH  14  18
HETATM   18  O   UNK N   1      32.490  17.221   9.137  0.00  0.00    -0.388 OA
HETATM   19  H   UNK N   1      31.672  17.320   9.649  0.00  0.00     0.210 HD
ENDBRANCH  14  18
BRANCH  15  20
HETATM   20  O   UNK N   1      34.167  18.008   6.071  0.00  0.00    -0.390 OA
HETATM   21  H   UNK N   1      34.604  18.495   5.354  0.00  0.00     0.210 HD
ENDBRANCH  15  20
BRANCH  16  22
HETATM   22  C   UNK N   1      33.098  15.437   5.314  0.00  0.00     0.198 C 
BRANCH  22  23
HETATM   23  O   UNK N   1      34.396  15.381   4.803  0.00  0.00    -0.398 OA
HETATM   24  H   UNK N   1      35.276  15.070   4.542  0.00  0.00     0.209 HD
ENDBRANCH  22  23
ENDBRANCH  16  22
ENDBRANCH  12  13
BRANCH   5  25
HETATM   25 Se   UNK N   1      35.588  13.194  13.884  0.00  0.00     0.000 Se
HETATM   26  H   UNK N   1      35.448  11.895  14.640  0.00  0.00     0.000 HD
ENDBRANCH   5  25
TORSDOF 6
ENDMDL
MODEL 9
REMARK VINA RESULT:      -5.1      4.214      6.290
REMARK  6 active torsions:
REMARK  status: ('A' for Active; 'I' for Inactive)
REMARK    1  A    between atoms: C_4  and  C_1 
REMARK    2  A    between atoms: O_18  and  C_1 
REMARK    3  A    between atoms: C_6  and  O_19 
REMARK    4  A    between atoms: C_7  and  O_20 
REMARK    5  A    between atoms: Se_22  and  C_9 
REMARK    6  A    between atoms: C_10  and  N_17 
ROOT
HETATM    1  C   UNK N   1      35.731  16.371  10.837  0.00  0.00     0.182 A 
HETATM    2  C   UNK N   1      35.139  13.895   7.219  0.00  0.00     0.188 A 
HETATM    3  C   UNK N   1      36.189  14.402   9.013  0.00  0.00     0.107 A 
HETATM    4  C   UNK N   1      35.141  15.235   8.886  0.00  0.00     0.141 A 
HETATM    5  C   UNK N   1      37.055  14.531  10.087  0.00  0.00     0.093 A 
HETATM    6  N   UNK N   1      34.884  16.228   9.773  0.00  0.00    -0.336 N 
ATOM      7  HN  UNK N   1      34.082  16.847   9.651  1.00  0.00     0.168 HD
HETATM    8  N   UNK N   1      36.807  15.528  10.988  0.00  0.00    -0.348 N 
ATOM      9  HN  UNK N   1      37.430  15.649  11.788  1.00  0.00     0.167 HD
HETATM   10  N   UNK N   1      36.210  13.537   7.982  0.00  0.00    -0.347 N 
ATOM     11  HN  UNK N   1      36.877  12.785   7.810  1.00  0.00     0.167 HD
HETATM   12  N   UNK N   1      34.468  14.945   7.768  0.00  0.00    -0.297 N 
ENDROOT
BRANCH  12  13
HETATM   13  C   UNK N   1      33.283  15.651   7.267  0.00  0.00     0.262 C 
HETATM   14  C   UNK N   1      33.606  16.865   6.377  0.00  0.00     0.198 C 
HETATM   15  C   UNK N   1      32.288  17.582   6.479  0.00  0.00     0.182 C 
HETATM   16  C   UNK N   1      32.040  17.409   7.983  0.00  0.00     0.179 C 
HETATM   17  O   UNK N   1      32.496  16.123   8.349  0.00  0.00    -0.353 OA
BRANCH  14  18
HETATM   18  O   UNK N   1      34.601  17.658   6.966  0.00  0.00    -0.388 OA
HETATM   19  H   UNK N   1      35.485  17.954   7.232  0.00  0.00     0.210 HD
ENDBRANCH  14  18
BRANCH  15  20
HETATM   20  O   UNK N   1      31.328  16.894   5.725  0.00  0.00    -0.390 OA
HETATM   21  H   UNK N   1      30.784  16.616   4.971  0.00  0.00     0.210 HD
ENDBRANCH  15  20
BRANCH  16  22
HETATM   22  C   UNK N   1      30.592  17.641   8.414  0.00  0.00     0.198 C 
BRANCH  22  23
HETATM   23  O   UNK N   1      30.331  17.052   9.653  0.00  0.00    -0.398 OA
HETATM   24  H   UNK N   1      30.379  16.801  10.588  0.00  0.00     0.209 HD
ENDBRANCH  22  23
ENDBRANCH  16  22
ENDBRANCH  12  13
BRANCH   5  25
HETATM   25 Se   UNK N   1      38.567  13.374  10.308  0.00  0.00     0.000 Se
HETATM   26  H   UNK N   1      38.474  12.036  11.001  0.00  0.00     0.000 HD
ENDBRANCH   5  25
TORSDOF 6
ENDMDL
