REMARK  11 active torsions:
REMARK  status: ('A' for Active; 'I' for Inactive)
REMARK    1  A    between atoms: N_2  and  C_3 
REMARK    2  A    between atoms: N_2  and  C_27 
REMARK    3  A    between atoms: C_3  and  C_4 
REMARK    4  A    between atoms: C_4  and  C_5 
REMARK    5  A    between atoms: C_5  and  C_6 
REMARK    6  A    between atoms: C_6  and  C_7 
REMARK    7  A    between atoms: C_7  and  C_8 
REMARK    8  A    between atoms: C_8  and  O_9 
REMARK    9  A    between atoms: O_9  and  C_10 
REMARK   10  A    between atoms: C_18  and  C_19 
REMARK   11  A    between atoms: C_27  and  C_28 
ROOT
HETATM    1  C   UNK N   1      -1.033  -0.585   0.375  0.00  0.00     0.070 A 
HETATM    2  C   UNK N   1      -1.072  -1.997   0.468  0.00  0.00     0.038 A 
HETATM    3  C   UNK N   1      -2.234  -2.708   0.164  0.00  0.00     0.018 A 
HETATM    4  C   UNK N   1      -3.374  -2.003  -0.215  0.00  0.00     0.011 A 
HETATM    5  C   UNK N   1      -3.321  -0.620  -0.330  0.00  0.00     0.036 A 
HETATM    6  S   UNK N   1      -4.840  -0.163  -0.731  0.00  0.00    -0.013 SA
HETATM    7  N   UNK N   1      -5.638  -1.610  -0.767  0.00  0.00    -0.324 N 
ATOM      8  HN  UNK N   1      -6.624  -1.771  -0.971  1.00  0.00     0.174 HD
HETATM    9  C   UNK N   1      -4.683  -2.549  -0.463  0.00  0.00     0.060 A 
HETATM   10  C   UNK N   1      -2.173   0.119  -0.058  0.00  0.00     0.057 A 
ENDROOT
BRANCH   1  11
HETATM   11  O   UNK N   1       0.069   0.095   0.765  0.00  0.00    -0.351 OA
BRANCH  11  12
HETATM   12  C   UNK N   1       0.915  -0.419   1.729  0.00  0.00     0.175 C 
BRANCH  12  13
HETATM   13  C   UNK N   1       2.234  -0.883   1.147  0.00  0.00     0.027 C 
BRANCH  13  14
HETATM   14  C   UNK N   1       2.023  -2.014   0.157  0.00  0.00     0.002 C 
BRANCH  14  15
HETATM   15  C   UNK N   1       2.170  -1.461  -1.248  0.00  0.00     0.002 C 
BRANCH  15  16
HETATM   16  C   UNK N   1       3.544  -1.770  -1.831  0.00  0.00     0.030 C 
BRANCH  16  17
HETATM   17  C   UNK N   1       4.689  -1.104  -1.065  0.00  0.00     0.272 C 
BRANCH  17  18
HETATM   18  N   UNK N   1       4.961  -1.795   0.197  0.00  0.00     0.087 N 
HETATM   19  C   UNK N   1       5.485  -3.135  -0.046  0.00  0.00     0.310 C 
BRANCH  18  20
HETATM   20  C   UNK N   1       5.878  -1.012   1.035  0.00  0.00     0.298 C 
BRANCH  20  21
HETATM   21  C   UNK N   1       7.300  -0.974   0.533  0.00  0.00    -0.007 C 
HETATM   22  C   UNK N   1       7.625  -0.312  -0.574  0.00  0.00     0.008 C 
ENDBRANCH  20  21
ENDBRANCH  18  20
ENDBRANCH  17  18
ENDBRANCH  16  17
ENDBRANCH  15  16
ENDBRANCH  14  15
ENDBRANCH  13  14
ENDBRANCH  12  13
ENDBRANCH  11  12
ENDBRANCH   1  11
BRANCH   9  23
HETATM   23  C   UNK N   1      -5.016  -3.990  -0.336  0.00  0.00    -0.008 A 
HETATM   24  C   UNK N   1      -4.005  -4.947  -0.155  0.00  0.00     0.015 A 
HETATM   25  C   UNK N   1      -4.318  -6.294   0.021  0.00  0.00     0.020 A 
HETATM   26  C   UNK N   1      -5.651  -6.700   0.031  0.00  0.00     0.011 A 
HETATM   27 Br   UNK N   1      -6.072  -8.536   0.316  0.00  0.00    -0.051 Br
HETATM   28  C   UNK N   1      -6.670  -5.761  -0.154  0.00  0.00     0.020 A 
HETATM   29  C   UNK N   1      -6.354  -4.410  -0.343  0.00  0.00     0.015 A 
ENDBRANCH   9  23
TORSDOF 11
