MODEL 1
REMARK VINA RESULT:      -5.9      0.000      0.000
REMARK  8 active torsions:
REMARK  status: ('A' for Active; 'I' for Inactive)
REMARK    1  A    between atoms: C_7  and  C_4 
REMARK    2  A    between atoms: O_18  and  C_4 
REMARK    3  A    between atoms: C_6  and  O_14 
REMARK    4  A    between atoms: C_8  and  N_13 
REMARK    5  A    between atoms: O_15  and  C_9 
REMARK    6  A    between atoms: P_20  and  O_17 
REMARK    7  A    between atoms: P_20  and  O_18 
REMARK    8  A    between atoms: S_21  and  P_20 
ROOT
HETATM    1  C   UNK N   1      36.920  13.469  12.143  0.00  0.00     0.088 C 
HETATM    2  C   UNK N   1      36.454  13.965  10.823  0.00  0.00     0.153 C 
HETATM    3  C   UNK N   1      35.199  14.691  11.247  0.00  0.00     0.177 C 
HETATM    4  C   UNK N   1      35.592  13.121  12.827  0.00  0.00     0.235 C 
HETATM    5  O   UNK N   1      34.559  13.854  12.177  0.00  0.00    -0.356 OA
ENDROOT
BRANCH   4   6
HETATM    6  N   UNK N   1      35.563  13.372  14.292  0.00  0.00    -0.282 N 
HETATM    7  C   UNK N   1      36.439  14.304  14.767  0.00  0.00     0.109 A 
HETATM    8  C   UNK N   1      36.502  14.615  16.123  0.00  0.00     0.005 A 
HETATM    9  C   UNK N   1      37.490  15.619  16.610  0.00  0.00     0.054 C 
HETATM   10  C   UNK N   1      35.635  13.971  17.002  0.00  0.00     0.151 A 
HETATM   11  N   UNK N   1      34.758  13.056  16.527  0.00  0.00    -0.288 N 
HETATM   12  C   UNK N   1      34.706  12.740  15.194  0.00  0.00     0.330 A 
ATOM     13  HN  UNK N   1      34.123  12.590  17.176  1.00  0.00     0.172 HD
HETATM   14  O   UNK N   1      33.889  11.918  14.824  0.00  0.00    -0.246 OA
BRANCH  10  15
HETATM   15  O   UNK N   1      35.659  14.250  18.318  0.00  0.00    -0.346 OA
HETATM   16  H   UNK N   1      36.296  13.865  18.889  0.00  0.00     0.219 HD
ENDBRANCH  10  15
ENDBRANCH   4   6
BRANCH   2  17
HETATM   17  O   UNK N   1      37.377  14.820  10.220  0.00  0.00    -0.393 OA
HETATM   18  H   UNK N   1      37.442  15.235   9.346  0.00  0.00     0.210 HD
ENDBRANCH   2  17
BRANCH   3  19
HETATM   19  C   UNK N   1      34.289  15.062  10.071  0.00  0.00     0.211 C 
BRANCH  19  20
HETATM   20  O   UNK N   1      34.778  16.145   9.321  0.00  0.00    -0.324 OA
BRANCH  20  21
HETATM   21  P   UNK N   1      33.855  16.091   7.839  0.00  0.00     0.243 P 
HETATM   22  S   UNK N   1      35.191  15.048   7.328  0.00  0.00    -0.026 SA
BRANCH  21  23
HETATM   23  O   UNK N   1      34.490  17.023   6.519  0.00  0.00    -0.337 OA
HETATM   24  H   UNK N   1      35.307  17.029   5.996  0.00  0.00     0.218 HD
ENDBRANCH  21  23
BRANCH  21  25
HETATM   25  S   UNK N   1      34.510  18.112   8.237  0.00  0.00    -0.087 SA
HETATM   26  H   UNK N   1      35.370  18.960   7.611  0.00  0.00     0.111 HD
ENDBRANCH  21  25
ENDBRANCH  20  21
ENDBRANCH  19  20
ENDBRANCH   3  19
TORSDOF 8
ENDMDL
MODEL 2
REMARK VINA RESULT:      -5.8      7.579     10.879
REMARK  8 active torsions:
REMARK  status: ('A' for Active; 'I' for Inactive)
REMARK    1  A    between atoms: C_7  and  C_4 
REMARK    2  A    between atoms: O_18  and  C_4 
REMARK    3  A    between atoms: C_6  and  O_14 
REMARK    4  A    between atoms: C_8  and  N_13 
REMARK    5  A    between atoms: O_15  and  C_9 
REMARK    6  A    between atoms: P_20  and  O_17 
REMARK    7  A    between atoms: P_20  and  O_18 
REMARK    8  A    between atoms: S_21  and  P_20 
ROOT
HETATM    1  C   UNK N   1      28.074  18.014   8.902  0.00  0.00     0.088 C 
HETATM    2  C   UNK N   1      29.253  17.421   9.584  0.00  0.00     0.153 C 
HETATM    3  C   UNK N   1      30.201  17.311   8.414  0.00  0.00     0.177 C 
HETATM    4  C   UNK N   1      28.113  17.302   7.544  0.00  0.00     0.235 C 
HETATM    5  O   UNK N   1      29.440  16.826   7.337  0.00  0.00    -0.356 OA
ENDROOT
BRANCH   4   6
HETATM    6  N   UNK N   1      27.675  18.133   6.393  0.00  0.00    -0.282 N 
HETATM    7  C   UNK N   1      27.584  19.477   6.612  0.00  0.00     0.109 A 
HETATM    8  C   UNK N   1      27.177  20.350   5.607  0.00  0.00     0.005 A 
HETATM    9  C   UNK N   1      27.063  21.808   5.890  0.00  0.00     0.054 C 
HETATM   10  C   UNK N   1      26.879  19.834   4.347  0.00  0.00     0.151 A 
HETATM   11  N   UNK N   1      26.983  18.503   4.128  0.00  0.00    -0.288 N 
HETATM   12  C   UNK N   1      27.369  17.642   5.123  0.00  0.00     0.330 A 
ATOM     13  HN  UNK N   1      26.767  18.132   3.203  1.00  0.00     0.172 HD
HETATM   14  O   UNK N   1      27.456  16.456   4.863  0.00  0.00    -0.246 OA
BRANCH  10  15
HETATM   15  O   UNK N   1      26.492  20.646   3.347  0.00  0.00    -0.346 OA
HETATM   16  H   UNK N   1      27.053  21.322   3.020  0.00  0.00     0.219 HD
ENDBRANCH  10  15
ENDBRANCH   4   6
BRANCH   2  17
HETATM   17  O   UNK N   1      29.754  18.245  10.592  0.00  0.00    -0.393 OA
HETATM   18  H   UNK N   1      29.487  19.102  10.958  0.00  0.00     0.210 HD
ENDBRANCH   2  17
BRANCH   3  19
HETATM   19  C   UNK N   1      31.423  16.434   8.708  0.00  0.00     0.211 C 
BRANCH  19  20
HETATM   20  O   UNK N   1      32.632  17.149   8.671  0.00  0.00    -0.324 OA
BRANCH  20  21
HETATM   21  P   UNK N   1      33.033  17.227   6.974  0.00  0.00     0.243 P 
HETATM   22  S   UNK N   1      33.207  15.478   7.180  0.00  0.00    -0.026 SA
BRANCH  21  23
HETATM   23  O   UNK N   1      34.714  17.034   6.584  0.00  0.00    -0.337 OA
HETATM   24  H   UNK N   1      35.413  17.588   6.205  0.00  0.00     0.218 HD
ENDBRANCH  21  23
BRANCH  21  25
HETATM   25  S   UNK N   1      34.484  18.330   8.135  0.00  0.00    -0.087 SA
HETATM   26  H   UNK N   1      35.573  17.967   8.865  0.00  0.00     0.111 HD
ENDBRANCH  21  25
ENDBRANCH  20  21
ENDBRANCH  19  20
ENDBRANCH   3  19
TORSDOF 8
ENDMDL
MODEL 3
REMARK VINA RESULT:      -5.8      3.664      5.406
REMARK  8 active torsions:
REMARK  status: ('A' for Active; 'I' for Inactive)
REMARK    1  A    between atoms: C_7  and  C_4 
REMARK    2  A    between atoms: O_18  and  C_4 
REMARK    3  A    between atoms: C_6  and  O_14 
REMARK    4  A    between atoms: C_8  and  N_13 
REMARK    5  A    between atoms: O_15  and  C_9 
REMARK    6  A    between atoms: P_20  and  O_17 
REMARK    7  A    between atoms: P_20  and  O_18 
REMARK    8  A    between atoms: S_21  and  P_20 
ROOT
HETATM    1  C   UNK N   1      34.630  16.052   7.805  0.00  0.00     0.088 C 
HETATM    2  C   UNK N   1      33.611  16.954   7.208  0.00  0.00     0.153 C 
HETATM    3  C   UNK N   1      32.938  17.453   8.464  0.00  0.00     0.177 C 
HETATM    4  C   UNK N   1      33.855  15.452   8.985  0.00  0.00     0.235 C 
HETATM    5  O   UNK N   1      32.777  16.331   9.294  0.00  0.00    -0.356 OA
ENDROOT
BRANCH   4   6
HETATM    6  N   UNK N   1      34.673  15.189  10.198  0.00  0.00    -0.282 N 
HETATM    7  C   UNK N   1      34.587  13.936  10.729  0.00  0.00     0.109 A 
HETATM    8  C   UNK N   1      35.305  13.580  11.868  0.00  0.00     0.005 A 
HETATM    9  C   UNK N   1      35.166  12.210  12.436  0.00  0.00     0.054 C 
HETATM   10  C   UNK N   1      36.142  14.525  12.458  0.00  0.00     0.151 A 
HETATM   11  N   UNK N   1      36.235  15.764  11.922  0.00  0.00    -0.288 N 
HETATM   12  C   UNK N   1      35.517  16.118  10.809  0.00  0.00     0.330 A 
ATOM     13  HN  UNK N   1      36.852  16.450  12.357  1.00  0.00     0.172 HD
HETATM   14  O   UNK N   1      35.651  17.243  10.365  0.00  0.00    -0.246 OA
BRANCH  10  15
HETATM   15  O   UNK N   1      36.858  14.218  13.554  0.00  0.00    -0.346 OA
HETATM   16  H   UNK N   1      37.644  14.681  13.771  0.00  0.00     0.219 HD
ENDBRANCH  10  15
ENDBRANCH   4   6
BRANCH   2  17
HETATM   17  O   UNK N   1      34.186  17.991   6.471  0.00  0.00    -0.393 OA
HETATM   18  H   UNK N   1      34.985  18.530   6.575  0.00  0.00     0.210 HD
ENDBRANCH   2  17
BRANCH   3  19
HETATM   19  C   UNK N   1      31.613  18.174   8.193  0.00  0.00     0.211 C 
BRANCH  19  20
HETATM   20  O   UNK N   1      30.567  17.294   7.864  0.00  0.00    -0.324 OA
BRANCH  20  21
HETATM   21  P   UNK N   1      29.117  18.216   8.172  0.00  0.00     0.243 P 
HETATM   22  S   UNK N   1      29.239  17.428   9.753  0.00  0.00    -0.026 SA
BRANCH  21  23
HETATM   23  O   UNK N   1      27.635  17.313   8.185  0.00  0.00    -0.337 OA
HETATM   24  H   UNK N   1      27.325  16.471   7.815  0.00  0.00     0.218 HD
ENDBRANCH  21  23
BRANCH  21  25
HETATM   25  S   UNK N   1      28.774  16.796   6.580  0.00  0.00    -0.087 SA
HETATM   26  H   UNK N   1      29.481  16.435   5.475  0.00  0.00     0.111 HD
ENDBRANCH  21  25
ENDBRANCH  20  21
ENDBRANCH  19  20
ENDBRANCH   3  19
TORSDOF 8
ENDMDL
MODEL 4
REMARK VINA RESULT:      -5.8      3.512      5.425
REMARK  8 active torsions:
REMARK  status: ('A' for Active; 'I' for Inactive)
REMARK    1  A    between atoms: C_7  and  C_4 
REMARK    2  A    between atoms: O_18  and  C_4 
REMARK    3  A    between atoms: C_6  and  O_14 
REMARK    4  A    between atoms: C_8  and  N_13 
REMARK    5  A    between atoms: O_15  and  C_9 
REMARK    6  A    between atoms: P_20  and  O_17 
REMARK    7  A    between atoms: P_20  and  O_18 
REMARK    8  A    between atoms: S_21  and  P_20 
ROOT
HETATM    1  C   UNK N   1      32.392  14.931   8.826  0.00  0.00     0.088 C 
HETATM    2  C   UNK N   1      32.226  15.012   7.351  0.00  0.00     0.153 C 
HETATM    3  C   UNK N   1      33.674  15.092   6.931  0.00  0.00     0.177 C 
HETATM    4  C   UNK N   1      33.582  15.871   9.052  0.00  0.00     0.235 C 
HETATM    5  O   UNK N   1      34.291  15.986   7.822  0.00  0.00    -0.356 OA
ENDROOT
BRANCH   4   6
HETATM    6  N   UNK N   1      34.503  15.457  10.144  0.00  0.00    -0.282 N 
HETATM    7  C   UNK N   1      34.400  14.165  10.569  0.00  0.00     0.109 A 
HETATM    8  C   UNK N   1      35.207  13.671  11.591  0.00  0.00     0.005 A 
HETATM    9  C   UNK N   1      35.048  12.262  12.048  0.00  0.00     0.054 C 
HETATM   10  C   UNK N   1      36.152  14.516  12.169  0.00  0.00     0.151 A 
HETATM   11  N   UNK N   1      36.262  15.793  11.737  0.00  0.00    -0.288 N 
HETATM   12  C   UNK N   1      35.456  16.283  10.741  0.00  0.00     0.330 A 
ATOM     13  HN  UNK N   1      36.958  16.406  12.162  1.00  0.00     0.172 HD
HETATM   14  O   UNK N   1      35.609  17.437  10.386  0.00  0.00    -0.246 OA
BRANCH  10  15
HETATM   15  O   UNK N   1      36.957  14.074  13.151  0.00  0.00    -0.346 OA
HETATM   16  H   UNK N   1      37.576  14.640  13.570  0.00  0.00     0.219 HD
ENDBRANCH  10  15
ENDBRANCH   4   6
BRANCH   2  17
HETATM   17  O   UNK N   1      31.587  13.888   6.826  0.00  0.00    -0.393 OA
HETATM   18  H   UNK N   1      31.830  13.220   6.167  0.00  0.00     0.210 HD
ENDBRANCH   2  17
BRANCH   3  19
HETATM   19  C   UNK N   1      33.855  15.508   5.467  0.00  0.00     0.211 C 
BRANCH  19  20
HETATM   20  O   UNK N   1      32.697  15.315   4.695  0.00  0.00    -0.324 OA
BRANCH  20  21
HETATM   21  P   UNK N   1      32.957  16.300   3.277  0.00  0.00     0.243 P 
HETATM   22  S   UNK N   1      32.821  17.612   4.459  0.00  0.00    -0.026 SA
BRANCH  21  23
HETATM   23  O   UNK N   1      31.559  17.127   2.665  0.00  0.00    -0.337 OA
HETATM   24  H   UNK N   1      31.326  18.043   2.448  0.00  0.00     0.218 HD
ENDBRANCH  21  23
BRANCH  21  25
HETATM   25  S   UNK N   1      31.114  15.187   3.085  0.00  0.00    -0.087 SA
HETATM   26  H   UNK N   1      29.966  15.140   3.813  0.00  0.00     0.111 HD
ENDBRANCH  21  25
ENDBRANCH  20  21
ENDBRANCH  19  20
ENDBRANCH   3  19
TORSDOF 8
ENDMDL
MODEL 5
REMARK VINA RESULT:      -5.7      2.105      2.798
REMARK  8 active torsions:
REMARK  status: ('A' for Active; 'I' for Inactive)
REMARK    1  A    between atoms: C_7  and  C_4 
REMARK    2  A    between atoms: O_18  and  C_4 
REMARK    3  A    between atoms: C_6  and  O_14 
REMARK    4  A    between atoms: C_8  and  N_13 
REMARK    5  A    between atoms: O_15  and  C_9 
REMARK    6  A    between atoms: P_20  and  O_17 
REMARK    7  A    between atoms: P_20  and  O_18 
REMARK    8  A    between atoms: S_21  and  P_20 
ROOT
HETATM    1  C   UNK N   1      36.758  11.667  14.253  0.00  0.00     0.088 C 
HETATM    2  C   UNK N   1      36.599  12.302  12.919  0.00  0.00     0.153 C 
HETATM    3  C   UNK N   1      35.665  13.432  13.279  0.00  0.00     0.177 C 
HETATM    4  C   UNK N   1      35.349  11.824  14.838  0.00  0.00     0.235 C 
HETATM    5  O   UNK N   1      34.701  12.883  14.141  0.00  0.00    -0.356 OA
ENDROOT
BRANCH   4   6
HETATM    6  N   UNK N   1      35.307  12.067  16.304  0.00  0.00    -0.282 N 
HETATM    7  C   UNK N   1      35.325  13.370  16.706  0.00  0.00     0.109 A 
HETATM    8  C   UNK N   1      35.296  13.714  18.055  0.00  0.00     0.005 A 
HETATM    9  C   UNK N   1      35.343  15.147  18.457  0.00  0.00     0.054 C 
HETATM   10  C   UNK N   1      35.226  12.699  19.006  0.00  0.00     0.151 A 
HETATM   11  N   UNK N   1      35.197  11.407  18.605  0.00  0.00    -0.288 N 
HETATM   12  C   UNK N   1      35.240  11.069  17.277  0.00  0.00     0.330 A 
ATOM     13  HN  UNK N   1      35.142  10.668  19.307  1.00  0.00     0.172 HD
HETATM   14  O   UNK N   1      35.198   9.890  16.976  0.00  0.00    -0.246 OA
BRANCH  10  15
HETATM   15  O   UNK N   1      35.187  12.990  20.318  0.00  0.00    -0.346 OA
HETATM   16  H   UNK N   1      34.384  12.963  20.802  0.00  0.00     0.219 HD
ENDBRANCH  10  15
ENDBRANCH   4   6
BRANCH   2  17
HETATM   17  O   UNK N   1      37.810  12.764  12.403  0.00  0.00    -0.393 OA
HETATM   18  H   UNK N   1      38.279  12.635  11.564  0.00  0.00     0.210 HD
ENDBRANCH   2  17
BRANCH   3  19
HETATM   19  C   UNK N   1      35.038  14.110  12.056  0.00  0.00     0.211 C 
BRANCH  19  20
HETATM   20  O   UNK N   1      35.759  13.879  10.872  0.00  0.00    -0.324 OA
BRANCH  20  21
HETATM   21  P   UNK N   1      35.571  15.355   9.960  0.00  0.00     0.243 P 
HETATM   22  S   UNK N   1      33.855  14.947  10.110  0.00  0.00    -0.026 SA
BRANCH  21  23
HETATM   23  O   UNK N   1      35.149  15.162   8.287  0.00  0.00    -0.337 OA
HETATM   24  H   UNK N   1      34.901  15.748   7.555  0.00  0.00     0.218 HD
ENDBRANCH  21  23
BRANCH  21  25
HETATM   25  S   UNK N   1      36.655  13.892   8.796  0.00  0.00    -0.087 SA
HETATM   26  H   UNK N   1      37.373  13.956   7.642  0.00  0.00     0.111 HD
ENDBRANCH  21  25
ENDBRANCH  20  21
ENDBRANCH  19  20
ENDBRANCH   3  19
TORSDOF 8
ENDMDL
MODEL 6
REMARK VINA RESULT:      -5.6      5.547      9.117
REMARK  8 active torsions:
REMARK  status: ('A' for Active; 'I' for Inactive)
REMARK    1  A    between atoms: C_7  and  C_4 
REMARK    2  A    between atoms: O_18  and  C_4 
REMARK    3  A    between atoms: C_6  and  O_14 
REMARK    4  A    between atoms: C_8  and  N_13 
REMARK    5  A    between atoms: O_15  and  C_9 
REMARK    6  A    between atoms: P_20  and  O_17 
REMARK    7  A    between atoms: P_20  and  O_18 
REMARK    8  A    between atoms: S_21  and  P_20 
ROOT
HETATM    1  C   UNK N   1      32.962  17.936   8.280  0.00  0.00     0.088 C 
HETATM    2  C   UNK N   1      33.850  17.199   9.216  0.00  0.00     0.153 C 
HETATM    3  C   UNK N   1      33.749  15.811   8.631  0.00  0.00     0.177 C 
HETATM    4  C   UNK N   1      31.863  16.898   8.020  0.00  0.00     0.235 C 
HETATM    5  O   UNK N   1      32.392  15.612   8.327  0.00  0.00    -0.356 OA
ENDROOT
BRANCH   4   6
HETATM    6  N   UNK N   1      31.307  16.914   6.641  0.00  0.00    -0.282 N 
HETATM    7  C   UNK N   1      32.212  16.922   5.620  0.00  0.00     0.109 A 
HETATM    8  C   UNK N   1      31.804  16.943   4.289  0.00  0.00     0.005 A 
HETATM    9  C   UNK N   1      32.821  16.977   3.201  0.00  0.00     0.054 C 
HETATM   10  C   UNK N   1      30.441  16.935   4.003  0.00  0.00     0.151 A 
HETATM   11  N   UNK N   1      29.545  16.916   5.017  0.00  0.00    -0.288 N 
HETATM   12  C   UNK N   1      29.947  16.909   6.328  0.00  0.00     0.330 A 
ATOM     13  HN  UNK N   1      28.547  16.907   4.801  1.00  0.00     0.172 HD
HETATM   14  O   UNK N   1      29.095  16.879   7.196  0.00  0.00    -0.246 OA
BRANCH  10  15
HETATM   15  O   UNK N   1      30.006  16.946   2.730  0.00  0.00    -0.346 OA
HETATM   16  H   UNK N   1      29.460  16.263   2.393  0.00  0.00     0.219 HD
ENDBRANCH  10  15
ENDBRANCH   4   6
BRANCH   2  17
HETATM   17  O   UNK N   1      35.158  17.684   9.199  0.00  0.00    -0.393 OA
HETATM   18  H   UNK N   1      35.788  17.953   9.886  0.00  0.00     0.210 HD
ENDBRANCH   2  17
BRANCH   3  19
HETATM   19  C   UNK N   1      34.306  14.724   9.557  0.00  0.00     0.211 C 
BRANCH  19  20
HETATM   20  O   UNK N   1      35.708  14.747   9.649  0.00  0.00    -0.324 OA
BRANCH  20  21
HETATM   21  P   UNK N   1      36.084  13.479  10.789  0.00  0.00     0.243 P 
HETATM   22  S   UNK N   1      35.575  14.708  11.957  0.00  0.00    -0.026 SA
BRANCH  21  23
HETATM   23  O   UNK N   1      37.555  13.683  11.687  0.00  0.00    -0.337 OA
HETATM   24  H   UNK N   1      38.417  14.101  11.533  0.00  0.00     0.218 HD
ENDBRANCH  21  23
BRANCH  21  25
HETATM   25  S   UNK N   1      37.864  14.068   9.713  0.00  0.00    -0.087 SA
HETATM   26  H   UNK N   1      38.438  15.270   9.436  0.00  0.00     0.111 HD
ENDBRANCH  21  25
ENDBRANCH  20  21
ENDBRANCH  19  20
ENDBRANCH   3  19
TORSDOF 8
ENDMDL
MODEL 7
REMARK VINA RESULT:      -5.5     18.592     20.845
REMARK  8 active torsions:
REMARK  status: ('A' for Active; 'I' for Inactive)
REMARK    1  A    between atoms: C_7  and  C_4 
REMARK    2  A    between atoms: O_18  and  C_4 
REMARK    3  A    between atoms: C_6  and  O_14 
REMARK    4  A    between atoms: C_8  and  N_13 
REMARK    5  A    between atoms: O_15  and  C_9 
REMARK    6  A    between atoms: P_20  and  O_17 
REMARK    7  A    between atoms: P_20  and  O_18 
REMARK    8  A    between atoms: S_21  and  P_20 
ROOT
HETATM    1  C   UNK N   1      27.995  23.690  -4.983  0.00  0.00     0.088 C 
HETATM    2  C   UNK N   1      27.710  25.148  -5.014  0.00  0.00     0.153 C 
HETATM    3  C   UNK N   1      29.022  25.680  -4.487  0.00  0.00     0.177 C 
HETATM    4  C   UNK N   1      28.830  23.567  -3.703  0.00  0.00     0.235 C 
HETATM    5  O   UNK N   1      29.376  24.849  -3.410  0.00  0.00    -0.356 OA
ENDROOT
BRANCH   4   6
HETATM    6  N   UNK N   1      29.908  22.545  -3.759  0.00  0.00    -0.282 N 
HETATM    7  C   UNK N   1      30.023  21.845  -4.924  0.00  0.00     0.109 A 
HETATM    8  C   UNK N   1      30.993  20.859  -5.086  0.00  0.00     0.005 A 
HETATM    9  C   UNK N   1      31.072  20.097  -6.364  0.00  0.00     0.054 C 
HETATM   10  C   UNK N   1      31.873  20.603  -4.037  0.00  0.00     0.151 A 
HETATM   11  N   UNK N   1      31.765  21.307  -2.886  0.00  0.00    -0.288 N 
HETATM   12  C   UNK N   1      30.800  22.267  -2.723  0.00  0.00     0.330 A 
ATOM     13  HN  UNK N   1      32.415  21.117  -2.123  1.00  0.00     0.172 HD
HETATM   14  O   UNK N   1      30.760  22.876  -1.669  0.00  0.00    -0.246 OA
BRANCH  10  15
HETATM   15  O   UNK N   1      32.829  19.665  -4.157  0.00  0.00    -0.346 OA
HETATM   16  H   UNK N   1      33.708  19.823  -3.872  0.00  0.00     0.219 HD
ENDBRANCH  10  15
ENDBRANCH   4   6
BRANCH   2  17
HETATM   17  O   UNK N   1      27.435  25.609  -6.302  0.00  0.00    -0.393 OA
HETATM   18  H   UNK N   1      27.981  25.946  -7.029  0.00  0.00     0.210 HD
ENDBRANCH   2  17
BRANCH   3  19
HETATM   19  C   UNK N   1      28.958  27.158  -4.089  0.00  0.00     0.211 C 
BRANCH  19  20
HETATM   20  O   UNK N   1      27.692  27.543  -3.614  0.00  0.00    -0.324 OA
BRANCH  20  21
HETATM   21  P   UNK N   1      27.472  29.158  -4.239  0.00  0.00     0.243 P 
HETATM   22  S   UNK N   1      28.028  29.603  -2.619  0.00  0.00    -0.026 SA
BRANCH  21  23
HETATM   23  O   UNK N   1      26.078  30.011  -3.655  0.00  0.00    -0.337 OA
HETATM   24  H   UNK N   1      25.426  30.626  -4.027  0.00  0.00     0.218 HD
ENDBRANCH  21  23
BRANCH  21  25
HETATM   25  S   UNK N   1      25.581  28.112  -4.191  0.00  0.00    -0.087 SA
HETATM   26  H   UNK N   1      25.206  26.872  -3.779  0.00  0.00     0.111 HD
ENDBRANCH  21  25
ENDBRANCH  20  21
ENDBRANCH  19  20
ENDBRANCH   3  19
TORSDOF 8
ENDMDL
MODEL 8
REMARK VINA RESULT:      -5.5      5.674      8.692
REMARK  8 active torsions:
REMARK  status: ('A' for Active; 'I' for Inactive)
REMARK    1  A    between atoms: C_7  and  C_4 
REMARK    2  A    between atoms: O_18  and  C_4 
REMARK    3  A    between atoms: C_6  and  O_14 
REMARK    4  A    between atoms: C_8  and  N_13 
REMARK    5  A    between atoms: O_15  and  C_9 
REMARK    6  A    between atoms: P_20  and  O_17 
REMARK    7  A    between atoms: P_20  and  O_18 
REMARK    8  A    between atoms: S_21  and  P_20 
ROOT
HETATM    1  C   UNK N   1      33.194  17.775   7.330  0.00  0.00     0.088 C 
HETATM    2  C   UNK N   1      34.203  16.739   7.673  0.00  0.00     0.153 C 
HETATM    3  C   UNK N   1      33.287  15.618   8.103  0.00  0.00     0.177 C 
HETATM    4  C   UNK N   1      32.131  17.537   8.410  0.00  0.00     0.235 C 
HETATM    5  O   UNK N   1      32.292  16.209   8.899  0.00  0.00    -0.356 OA
ENDROOT
BRANCH   4   6
HETATM    6  N   UNK N   1      30.731  17.759   7.964  0.00  0.00    -0.282 N 
HETATM    7  C   UNK N   1      30.400  17.274   6.732  0.00  0.00     0.109 A 
HETATM    8  C   UNK N   1      29.119  17.430   6.210  0.00  0.00     0.005 A 
HETATM    9  C   UNK N   1      28.801  16.911   4.851  0.00  0.00     0.054 C 
HETATM   10  C   UNK N   1      28.155  18.080   6.978  0.00  0.00     0.151 A 
HETATM   11  N   UNK N   1      28.481  18.549   8.205  0.00  0.00    -0.288 N 
HETATM   12  C   UNK N   1      29.747  18.408   8.712  0.00  0.00     0.330 A 
ATOM     13  HN  UNK N   1      27.769  19.021   8.764  1.00  0.00     0.172 HD
HETATM   14  O   UNK N   1      29.978  18.840   9.826  0.00  0.00    -0.246 OA
BRANCH  10  15
HETATM   15  O   UNK N   1      26.903  18.243   6.514  0.00  0.00    -0.346 OA
HETATM   16  H   UNK N   1      26.573  17.728   5.803  0.00  0.00     0.219 HD
ENDBRANCH  10  15
ENDBRANCH   4   6
BRANCH   2  17
HETATM   17  O   UNK N   1      34.992  16.383   6.578  0.00  0.00    -0.393 OA
HETATM   18  H   UNK N   1      35.676  16.838   6.064  0.00  0.00     0.210 HD
ENDBRANCH   2  17
BRANCH   3  19
HETATM   19  C   UNK N   1      34.021  14.485   8.830  0.00  0.00     0.211 C 
BRANCH  19  20
HETATM   20  O   UNK N   1      35.367  14.787   9.098  0.00  0.00    -0.324 OA
BRANCH  20  21
HETATM   21  P   UNK N   1      35.673  14.046  10.648  0.00  0.00     0.243 P 
HETATM   22  S   UNK N   1      35.362  15.690  11.226  0.00  0.00    -0.026 SA
BRANCH  21  23
HETATM   23  O   UNK N   1      37.206  14.417  11.373  0.00  0.00    -0.337 OA
HETATM   24  H   UNK N   1      38.138  14.236  11.172  0.00  0.00     0.218 HD
ENDBRANCH  21  23
BRANCH  21  25
HETATM   25  S   UNK N   1      37.441  13.942   9.409  0.00  0.00    -0.087 SA
HETATM   26  H   UNK N   1      37.653  13.635   8.101  0.00  0.00     0.111 HD
ENDBRANCH  21  25
ENDBRANCH  20  21
ENDBRANCH  19  20
ENDBRANCH   3  19
TORSDOF 8
ENDMDL
MODEL 9
REMARK VINA RESULT:      -5.5     15.458     18.292
REMARK  8 active torsions:
REMARK  status: ('A' for Active; 'I' for Inactive)
REMARK    1  A    between atoms: C_7  and  C_4 
REMARK    2  A    between atoms: O_18  and  C_4 
REMARK    3  A    between atoms: C_6  and  O_14 
REMARK    4  A    between atoms: C_8  and  N_13 
REMARK    5  A    between atoms: O_15  and  C_9 
REMARK    6  A    between atoms: P_20  and  O_17 
REMARK    7  A    between atoms: P_20  and  O_18 
REMARK    8  A    between atoms: S_21  and  P_20 
ROOT
HETATM    1  C   UNK N   1      19.029  16.080   4.764  0.00  0.00     0.088 C 
HETATM    2  C   UNK N   1      19.637  15.553   6.013  0.00  0.00     0.153 C 
HETATM    3  C   UNK N   1      21.045  16.076   5.856  0.00  0.00     0.177 C 
HETATM    4  C   UNK N   1      20.186  15.925   3.770  0.00  0.00     0.235 C 
HETATM    5  O   UNK N   1      21.398  15.854   4.514  0.00  0.00    -0.356 OA
ENDROOT
BRANCH   4   6
HETATM    6  N   UNK N   1      20.270  16.997   2.742  0.00  0.00    -0.282 N 
HETATM    7  C   UNK N   1      20.581  18.247   3.192  0.00  0.00     0.109 A 
HETATM    8  C   UNK N   1      20.681  19.327   2.319  0.00  0.00     0.005 A 
HETATM    9  C   UNK N   1      20.996  20.683   2.848  0.00  0.00     0.054 C 
HETATM   10  C   UNK N   1      20.477  19.113   0.957  0.00  0.00     0.151 A 
HETATM   11  N   UNK N   1      20.181  17.870   0.512  0.00  0.00    -0.288 N 
HETATM   12  C   UNK N   1      20.069  16.809   1.374  0.00  0.00     0.330 A 
ATOM     13  HN  UNK N   1      20.037  17.719  -0.486  1.00  0.00     0.172 HD
HETATM   14  O   UNK N   1      19.813  15.712   0.914  0.00  0.00    -0.246 OA
BRANCH  10  15
HETATM   15  O   UNK N   1      20.574  20.129   0.081  0.00  0.00    -0.346 OA
HETATM   16  H   UNK N   1      21.325  20.689   0.061  0.00  0.00     0.219 HD
ENDBRANCH  10  15
ENDBRANCH   4   6
BRANCH   2  17
HETATM   17  O   UNK N   1      19.016  16.051   7.158  0.00  0.00    -0.393 OA
HETATM   18  H   UNK N   1      19.232  16.751   7.794  0.00  0.00     0.210 HD
ENDBRANCH   2  17
BRANCH   3  19
HETATM   19  C   UNK N   1      22.038  15.439   6.834  0.00  0.00     0.211 C 
BRANCH  19  20
HETATM   20  O   UNK N   1      21.423  14.570   7.752  0.00  0.00    -0.324 OA
BRANCH  20  21
HETATM   21  P   UNK N   1      22.702  13.488   8.241  0.00  0.00     0.243 P 
HETATM   22  S   UNK N   1      22.087  12.533   6.884  0.00  0.00    -0.026 SA
BRANCH  21  23
HETATM   23  O   UNK N   1      22.198  12.051   9.074  0.00  0.00    -0.337 OA
HETATM   24  H   UNK N   1      21.370  11.713   9.450  0.00  0.00     0.218 HD
ENDBRANCH  21  23
BRANCH  21  25
HETATM   25  S   UNK N   1      21.244  13.683   9.824  0.00  0.00    -0.087 SA
HETATM   26  H   UNK N   1      20.425  14.693  10.226  0.00  0.00     0.111 HD
ENDBRANCH  21  25
ENDBRANCH  20  21
ENDBRANCH  19  20
ENDBRANCH   3  19
TORSDOF 8
ENDMDL
