REMARK  12 active torsions:
REMARK  status: ('A' for Active; 'I' for Inactive)
REMARK    1  A    between atoms: P_1  and  O_3 
REMARK    2  A    between atoms: P_1  and  O_9 
REMARK    3  A    between atoms: P_1  and  O_10 
REMARK    4  A    between atoms: P_2  and  O_4 
REMARK    5  A    between atoms: P_2  and  O_11 
REMARK    6  A    between atoms: P_2  and  O_12 
REMARK    7  A    between atoms: C_15  and  O_3 
REMARK    8  A    between atoms: C_16  and  O_4 
REMARK    9  A    between atoms: C_17  and  O_5 
REMARK   10  A    between atoms: C_18  and  O_6 
REMARK   11  A    between atoms: C_19  and  O_7 
REMARK   12  A    between atoms: C_20  and  O_8 
ROOT
HETATM    1  C   UNK N   1      17.431  -4.951   0.071  0.00  0.00     0.196 C 
HETATM    2  C   UNK N   1      16.370  -7.250  -0.248  0.00  0.00     0.196 C 
HETATM    3  C   UNK N   1      16.227  -5.849   0.381  0.00  0.00     0.182 C 
HETATM    4  C   UNK N   1      18.754  -5.575   0.562  0.00  0.00     0.181 C 
HETATM    5  C   UNK N   1      17.815  -7.791  -0.235  0.00  0.00     0.181 C 
HETATM    6  C   UNK N   1      18.646  -7.085   0.831  0.00  0.00     0.180 C 
ENDROOT
BRANCH   1   7
HETATM    7  O   UNK N   1      17.272  -3.691   0.664  0.00  0.00    -0.286 OA
BRANCH   7   8
HETATM    8  P   UNK N   1      17.817  -2.528  -0.514  0.00  0.00     0.391 P 
HETATM    9  O   UNK N   1      18.905  -2.414   0.588  0.00  0.00    -0.632 OA
BRANCH   8  10
HETATM   10  O   UNK N   1      17.824  -0.834  -0.137  0.00  0.00    -0.307 OA
HETATM   11  H   UNK N   1      18.646  -0.365   0.074  0.00  0.00     0.222 HD
ENDBRANCH   8  10
BRANCH   8  12
HETATM   12  O   UNK N   1      16.279  -2.037   0.124  0.00  0.00    -0.307 OA
HETATM   13  H   UNK N   1      16.087  -1.156   0.481  0.00  0.00     0.222 HD
ENDBRANCH   8  12
ENDBRANCH   7   8
ENDBRANCH   1   7
BRANCH   3  14
HETATM   14  O   UNK N   1      15.039  -5.255  -0.053  0.00  0.00    -0.390 OA
HETATM   15  H   UNK N   1      14.983  -4.335  -0.354  0.00  0.00     0.210 HD
ENDBRANCH   3  14
BRANCH   4  16
HETATM   16  O   UNK N   1      19.752  -5.300  -0.376  0.00  0.00    -0.390 OA
HETATM   17  H   UNK N   1      20.264  -5.805  -1.027  0.00  0.00     0.210 HD
ENDBRANCH   4  16
BRANCH   2  18
HETATM   18  O   UNK N   1      15.524  -8.142   0.424  0.00  0.00    -0.286 OA
BRANCH  18  19
HETATM   19  P   UNK N   1      14.923  -9.234  -0.793  0.00  0.00     0.391 P 
HETATM   20  O   UNK N   1      15.735 -10.178   0.134  0.00  0.00    -0.632 OA
BRANCH  19  21
HETATM   21  O   UNK N   1      13.588  -8.549   0.078  0.00  0.00    -0.307 OA
HETATM   22  H   UNK N   1      13.547  -7.711   0.566  0.00  0.00     0.222 HD
ENDBRANCH  19  21
BRANCH  19  23
HETATM   23  O   UNK N   1      13.774 -10.466  -0.377  0.00  0.00    -0.307 OA
HETATM   24  H   UNK N   1      12.857 -10.254  -0.144  0.00  0.00     0.222 HD
ENDBRANCH  19  23
ENDBRANCH  18  19
ENDBRANCH   2  18
BRANCH   6  25
HETATM   25  O   UNK N   1      19.910  -7.666   0.961  0.00  0.00    -0.390 OA
HETATM   26  H   UNK N   1      20.000  -8.627   1.050  0.00  0.00     0.210 HD
ENDBRANCH   6  25
BRANCH   5  27
HETATM   27  O   UNK N   1      18.393  -7.626  -1.495  0.00  0.00    -0.390 OA
HETATM   28  H   UNK N   1      18.694  -7.916  -2.371  0.00  0.00     0.210 HD
ENDBRANCH   5  27
TORSDOF 12
