REMARK  11 active torsions:
REMARK  status: ('A' for Active; 'I' for Inactive)
REMARK    1  A    between atoms: C_3  and  C_1 
REMARK    2  A    between atoms: O_27  and  C_1 
REMARK    3  A    between atoms: O_19  and  C_8 
REMARK    4  A    between atoms: C_9  and  N_18 
REMARK       I    between atoms: N_11  and  C_10 
REMARK    5  A    between atoms: P_32  and  O_20 
REMARK    6  A    between atoms: P_32  and  O_21 
REMARK    7  A    between atoms: P_33  and  O_23 
REMARK    8  A    between atoms: P_34  and  O_25 
REMARK    9  A    between atoms: P_33  and  O_27 
REMARK   10  A    between atoms: P_32  and  O_31 
REMARK   11  A    between atoms: P_33  and  O_31 
ROOT
HETATM    1  C   UNK N   1      -1.184  -3.772  -0.979  0.00  0.00     0.180 C 
HETATM    2  C   UNK N   1      -1.905  -3.486   0.336  0.00  0.00     0.198 C 
HETATM    3  C   UNK N   1      -2.139  -2.037   0.309  0.00  0.00     0.215 C 
HETATM    4  C   UNK N   1      -1.201  -1.547  -0.810  0.00  0.00     0.263 C 
HETATM    5  O   UNK N   1      -5.289  -2.520   0.329  0.00  0.00    -0.631 OA
HETATM    6  O   UNK N   1      -0.404  -2.636  -1.226  0.00  0.00    -0.353 OA
HETATM    7  O   UNK N   1      -3.135  -4.112   0.489  0.00  0.00    -0.286 OA
HETATM    8  O   UNK N   1      -3.489  -1.805   0.030  0.00  0.00    -0.284 OA
HETATM    9  P   UNK N   1      -4.268  -3.274  -0.565  0.00  0.00     0.394 P 
ENDROOT
BRANCH   4  10
HETATM   10  N   UNK N   1      -0.357  -0.426  -0.383  0.00  0.00    -0.297 N 
HETATM   11  C   UNK N   1      -0.782   0.817  -0.035  0.00  0.00     0.188 A 
HETATM   12  N   UNK N   1       0.268   1.643   0.243  0.00  0.00    -0.346 N 
HETATM   13  C   UNK N   1       1.356   0.872   0.060  0.00  0.00     0.130 A 
ATOM     14  HN  UNK N   1       0.235   2.622   0.525  1.00  0.00     0.167 HD
HETATM   15  C   UNK N   1       0.982  -0.368  -0.305  0.00  0.00     0.157 A 
HETATM   16  C   UNK N   1       2.701   1.188   0.175  0.00  0.00     0.186 A 
HETATM   17  N   UNK N   1       1.879  -1.354  -0.555  0.00  0.00    -0.174 N 
HETATM   18  C   UNK N   1       3.210  -1.064  -0.427  0.00  0.00     0.679 A 
HETATM   19  H   UNK N   1       1.581  -2.254  -0.821  0.00  0.00     0.186 HD
HETATM   20  N   UNK N   1       4.083  -1.973  -0.644  0.00  0.00    -0.234 N 
HETATM   21  N   UNK N   1       3.614   0.201  -0.071  0.00  0.00    -0.168 N 
HETATM   22  H   UNK N   1       3.812  -2.905  -0.811  0.00  0.00     0.174 HD
ATOM     23  HN  UNK N   1       5.073  -1.730  -0.644  1.00  0.00     0.174 HD
ATOM     24  HN  UNK N   1       4.610   0.406   0.010  1.00  0.00     0.186 HD
BRANCH  16  25
HETATM   25  O   UNK N   1       3.103   2.425   0.508  0.00  0.00    -0.344 OA
HETATM   26  H   UNK N   1       3.990   2.614   0.741  0.00  0.00     0.219 HD
ENDBRANCH  16  25
ENDBRANCH   4  10
BRANCH   1  27
HETATM   27  C   UNK N   1      -0.282  -4.994  -0.886  0.00  0.00     0.215 C 
BRANCH  27  28
HETATM   28  O   UNK N   1       0.757  -4.743   0.018  0.00  0.00    -0.294 OA
BRANCH  28  29
HETATM   29  P   UNK N   1       0.855  -6.162   1.007  0.00  0.00     0.401 P 
HETATM   30  O   UNK N   1       1.708  -5.788   2.253  0.00  0.00    -0.631 OA
BRANCH  29  31
HETATM   31  O   UNK N   1      -0.710  -6.620   1.605  0.00  0.00    -0.307 OA
HETATM   32  H   UNK N   1      -1.368  -5.991   1.939  0.00  0.00     0.222 HD
ENDBRANCH  29  31
BRANCH  29  33
HETATM   33  O   UNK N   1       1.614  -7.461   0.109  0.00  0.00    -0.195 OA
BRANCH  33  34
HETATM   34  P   UNK N   1       3.293  -7.551   0.579  0.00  0.00     0.399 P 
HETATM   35  O   UNK N   1       3.404  -6.493  -0.553  0.00  0.00    -0.631 OA
BRANCH  34  36
HETATM   36  O   UNK N   1       4.497  -8.266  -0.444  0.00  0.00    -0.307 OA
HETATM   37  H   UNK N   1       4.488  -9.049  -1.017  0.00  0.00     0.222 HD
ENDBRANCH  34  36
BRANCH  34  38
HETATM   38  O   UNK N   1       2.739  -9.032  -0.137  0.00  0.00    -0.307 OA
HETATM   39  H   UNK N   1       1.868  -9.178  -0.537  0.00  0.00     0.222 HD
ENDBRANCH  34  38
ENDBRANCH  33  34
ENDBRANCH  29  33
ENDBRANCH  28  29
ENDBRANCH  27  28
ENDBRANCH   1  27
BRANCH   9  40
HETATM   40  O   UNK N   1      -5.193  -4.407   0.370  0.00  0.00    -0.307 OA
HETATM   41  H   UNK N   1      -6.000  -4.276   0.892  0.00  0.00     0.222 HD
ENDBRANCH   9  40
TORSDOF 11
