MODEL 1
REMARK VINA RESULT:      -7.5      0.000      0.000
REMARK  10 active torsions:
REMARK  status: ('A' for Active; 'I' for Inactive)
REMARK    1  A    between atoms: C_6  and  C_4 
REMARK    2  A    between atoms: C_8  and  C_4 
REMARK    3  A    between atoms: C_14  and  C_6 
REMARK    4  A    between atoms: N_24  and  C_8 
REMARK       I    between atoms: N_29  and  C_11 
REMARK    5  A    between atoms: C_12  and  O_31 
REMARK    6  A    between atoms: C_17  and  C_14 
REMARK    7  A    between atoms: C_14  and  N_25 
REMARK    8  A    between atoms: C_15  and  C_18 
REMARK    9  A    between atoms: C_19  and  C_17 
REMARK   10  A    between atoms: C_18  and  O_33 
REMARK       I    between atoms: N_23  and  C_20 
REMARK       I    between atoms: N_24  and  C_20 
ROOT
HETATM    1  C   UNK N   1      34.345  15.913   8.517  0.00  0.00     0.160 C 
ENDROOT
BRANCH   1   2
HETATM    2  C   UNK N   1      35.040  15.602   7.169  0.00  0.00     0.035 C 
BRANCH   2   3
HETATM    3  C   UNK N   1      34.487  14.415   6.388  0.00  0.00     0.023 C 
BRANCH   3   4
HETATM    4  C   UNK N   1      34.715  14.582   4.896  0.00  0.00     0.138 C 
BRANCH   4   5
HETATM    5  N   UNK N   1      33.838  15.609   4.396  0.00  0.00    -0.227 N 
HETATM    6  C   UNK N   1      33.464  15.702   3.033  0.00  0.00     0.665 C 
HETATM    7  N   UNK N   1      33.919  14.871   2.170  0.00  0.00    -0.235 N 
HETATM    8  N   UNK N   1      32.560  16.708   2.627  0.00  0.00    -0.235 N 
HETATM    9  H   UNK N   1      34.392  15.104   1.339  0.00  0.00     0.174 HD
ATOM     10  HN  UNK N   1      33.779  13.879   2.362  1.00  0.00     0.174 HD
HETATM   11  H   UNK N   1      31.892  17.328   3.001  0.00  0.00     0.174 HD
HETATM   12  H   UNK N   1      32.614  16.828   1.652  0.00  0.00     0.174 HD
HETATM   13  H   UNK N   1      33.481  16.273   5.029  0.00  0.00     0.177 HD
ENDBRANCH   4   5
ENDBRANCH   3   4
ENDBRANCH   2   3
ENDBRANCH   1   2
BRANCH   1  14
HETATM   14  C   UNK N   1      35.203  16.260   9.723  0.00  0.00     0.205 C 
HETATM   15  O   UNK N   1      35.257  17.423  10.096  0.00  0.00    -0.288 OA
BRANCH  14  16
HETATM   16  C   UNK N   1      35.596  15.198  10.643  0.00  0.00     0.123 A 
HETATM   17  N   UNK N   1      36.242  15.499  11.804  0.00  0.00    -0.346 N 
HETATM   18  C   UNK N   1      36.048  14.527  12.755  0.00  0.00     0.050 A 
ATOM     19  HN  UNK N   1      36.799  16.341  11.949  1.00  0.00     0.167 HD
HETATM   20  C   UNK N   1      36.499  14.614  14.068  0.00  0.00     0.031 A 
HETATM   21  C   UNK N   1      35.255  13.455  12.357  0.00  0.00     0.033 A 
HETATM   22  C   UNK N   1      36.131  13.598  14.969  0.00  0.00     0.002 A 
HETATM   23  C   UNK N   1      35.324  12.517  14.547  0.00  0.00     0.002 A 
HETATM   24  C   UNK N   1      34.876  12.439  13.220  0.00  0.00     0.021 A 
HETATM   25  S   UNK N   1      34.813  13.743  10.808  0.00  0.00    -0.067 SA
ENDBRANCH  14  16
ENDBRANCH   1  14
BRANCH   1  26
HETATM   26  N   UNK N   1      33.196  16.770   8.379  0.00  0.00    -0.361 N 
HETATM   27  C   UNK N   1      31.963  16.471   8.601  0.00  0.00     0.135 C 
ATOM     28  HN  UNK N   1      33.380  17.724   8.070  1.00  0.00     0.162 HD
BRANCH  27  29
HETATM   29  C   UNK N   1      30.953  17.570   8.430  0.00  0.00     0.164 C 
HETATM   30  C   UNK N   1      29.890  17.580   9.521  0.00  0.00     0.067 C 
HETATM   31  C   UNK N   1      28.754  18.321   8.841  0.00  0.00     0.138 C 
HETATM   32  C   UNK N   1      28.771  17.756   7.433  0.00  0.00     0.158 C 
HETATM   33  N   UNK N   1      30.170  17.489   7.210  0.00  0.00    -0.338 N 
HETATM   34  C   UNK N   1      30.650  17.251   5.949  0.00  0.00     0.216 C 
HETATM   35  C   UNK N   1      29.733  17.214   4.771  0.00  0.00     0.117 C 
HETATM   36  O   UNK N   1      31.841  17.054   5.756  0.00  0.00    -0.274 OA
BRANCH  31  37
HETATM   37  O   UNK N   1      27.531  18.095   9.469  0.00  0.00    -0.394 OA
HETATM   38  H   UNK N   1      26.780  17.484   9.523  0.00  0.00     0.210 HD
ENDBRANCH  31  37
ENDBRANCH  27  29
BRANCH  27  39
HETATM   39  O   UNK N   1      31.601  15.240   9.026  0.00  0.00    -0.348 OA
HETATM   40  H   UNK N   1      31.861  14.500   9.539  0.00  0.00     0.219 HD
ENDBRANCH  27  39
ENDBRANCH   1  26
TORSDOF 10
ENDMDL
MODEL 2
REMARK VINA RESULT:      -7.4      2.066      4.765
REMARK  10 active torsions:
REMARK  status: ('A' for Active; 'I' for Inactive)
REMARK    1  A    between atoms: C_6  and  C_4 
REMARK    2  A    between atoms: C_8  and  C_4 
REMARK    3  A    between atoms: C_14  and  C_6 
REMARK    4  A    between atoms: N_24  and  C_8 
REMARK       I    between atoms: N_29  and  C_11 
REMARK    5  A    between atoms: C_12  and  O_31 
REMARK    6  A    between atoms: C_17  and  C_14 
REMARK    7  A    between atoms: C_14  and  N_25 
REMARK    8  A    between atoms: C_15  and  C_18 
REMARK    9  A    between atoms: C_19  and  C_17 
REMARK   10  A    between atoms: C_18  and  O_33 
REMARK       I    between atoms: N_23  and  C_20 
REMARK       I    between atoms: N_24  and  C_20 
ROOT
HETATM    1  C   UNK N   1      32.259  17.094   8.379  0.00  0.00     0.160 C 
ENDROOT
BRANCH   1   2
HETATM    2  C   UNK N   1      31.031  17.902   8.868  0.00  0.00     0.035 C 
BRANCH   2   3
HETATM    3  C   UNK N   1      29.666  17.359   8.457  0.00  0.00     0.023 C 
BRANCH   3   4
HETATM    4  C   UNK N   1      28.907  18.362   7.606  0.00  0.00     0.138 C 
BRANCH   4   5
HETATM    5  N   UNK N   1      28.897  17.909   6.239  0.00  0.00    -0.227 N 
HETATM    6  C   UNK N   1      28.363  18.682   5.178  0.00  0.00     0.665 C 
HETATM    7  N   UNK N   1      27.838  19.830   5.403  0.00  0.00    -0.235 N 
HETATM    8  N   UNK N   1      28.433  18.191   3.856  0.00  0.00    -0.235 N 
HETATM    9  H   UNK N   1      26.932  20.109   5.141  0.00  0.00     0.174 HD
ATOM     10  HN  UNK N   1      28.411  20.513   5.898  1.00  0.00     0.174 HD
HETATM   11  H   UNK N   1      28.914  17.521   3.318  0.00  0.00     0.174 HD
HETATM   12  H   UNK N   1      27.795  18.678   3.287  0.00  0.00     0.174 HD
HETATM   13  H   UNK N   1      29.278  17.026   6.032  0.00  0.00     0.177 HD
ENDBRANCH   4   5
ENDBRANCH   3   4
ENDBRANCH   2   3
ENDBRANCH   1   2
BRANCH   1  14
HETATM   14  C   UNK N   1      32.532  15.731   8.995  0.00  0.00     0.205 C 
HETATM   15  O   UNK N   1      31.934  14.757   8.563  0.00  0.00    -0.288 OA
BRANCH  14  16
HETATM   16  C   UNK N   1      33.756  15.533   9.765  0.00  0.00     0.123 A 
HETATM   17  N   UNK N   1      33.702  14.985  11.010  0.00  0.00    -0.346 N 
HETATM   18  C   UNK N   1      34.890  14.381  11.346  0.00  0.00     0.050 A 
ATOM     19  HN  UNK N   1      32.883  15.017  11.617  1.00  0.00     0.167 HD
HETATM   20  C   UNK N   1      35.095  13.649  12.511  0.00  0.00     0.031 A 
HETATM   21  C   UNK N   1      35.887  14.449  10.377  0.00  0.00     0.033 A 
HETATM   22  C   UNK N   1      36.326  12.987  12.675  0.00  0.00     0.002 A 
HETATM   23  C   UNK N   1      37.326  13.067  11.680  0.00  0.00     0.002 A 
HETATM   24  C   UNK N   1      37.108  13.810  10.510  0.00  0.00     0.021 A 
HETATM   25  S   UNK N   1      35.260  15.275   9.111  0.00  0.00    -0.067 SA
ENDBRANCH  14  16
ENDBRANCH   1  14
BRANCH   1  26
HETATM   26  N   UNK N   1      32.413  17.106   6.948  0.00  0.00    -0.361 N 
HETATM   27  C   UNK N   1      33.423  17.534   6.272  0.00  0.00     0.135 C 
ATOM     28  HN  UNK N   1      31.634  16.734   6.407  1.00  0.00     0.162 HD
BRANCH  27  29
HETATM   29  C   UNK N   1      33.356  17.384   4.778  0.00  0.00     0.164 C 
HETATM   30  C   UNK N   1      31.998  17.758   4.200  0.00  0.00     0.067 C 
HETATM   31  C   UNK N   1      32.001  17.003   2.885  0.00  0.00     0.138 C 
HETATM   32  C   UNK N   1      32.624  15.670   3.256  0.00  0.00     0.158 C 
HETATM   33  N   UNK N   1      33.556  16.029   4.296  0.00  0.00    -0.338 N 
HETATM   34  C   UNK N   1      34.537  15.159   4.695  0.00  0.00     0.216 C 
HETATM   35  C   UNK N   1      34.642  13.793   4.101  0.00  0.00     0.117 C 
HETATM   36  O   UNK N   1      35.346  15.474   5.556  0.00  0.00    -0.274 OA
BRANCH  31  37
HETATM   37  O   UNK N   1      30.717  16.843   2.369  0.00  0.00    -0.394 OA
HETATM   38  H   UNK N   1      30.022  17.278   1.852  0.00  0.00     0.210 HD
ENDBRANCH  31  37
ENDBRANCH  27  29
BRANCH  27  39
HETATM   39  O   UNK N   1      34.519  18.037   6.883  0.00  0.00    -0.348 OA
HETATM   40  H   UNK N   1      35.263  17.830   7.413  0.00  0.00     0.219 HD
ENDBRANCH  27  39
ENDBRANCH   1  26
TORSDOF 10
ENDMDL
MODEL 3
REMARK VINA RESULT:      -7.1      6.154      9.531
REMARK  10 active torsions:
REMARK  status: ('A' for Active; 'I' for Inactive)
REMARK    1  A    between atoms: C_6  and  C_4 
REMARK    2  A    between atoms: C_8  and  C_4 
REMARK    3  A    between atoms: C_14  and  C_6 
REMARK    4  A    between atoms: N_24  and  C_8 
REMARK       I    between atoms: N_29  and  C_11 
REMARK    5  A    between atoms: C_12  and  O_31 
REMARK    6  A    between atoms: C_17  and  C_14 
REMARK    7  A    between atoms: C_14  and  N_25 
REMARK    8  A    between atoms: C_15  and  C_18 
REMARK    9  A    between atoms: C_19  and  C_17 
REMARK   10  A    between atoms: C_18  and  O_33 
REMARK       I    between atoms: N_23  and  C_20 
REMARK       I    between atoms: N_24  and  C_20 
ROOT
HETATM    1  C   UNK N   1      25.008  15.942   5.414  0.00  0.00     0.160 C 
ENDROOT
BRANCH   1   2
HETATM    2  C   UNK N   1      25.442  16.846   4.234  0.00  0.00     0.035 C 
BRANCH   2   3
HETATM    3  C   UNK N   1      24.798  18.228   4.177  0.00  0.00     0.023 C 
BRANCH   3   4
HETATM    4  C   UNK N   1      25.796  19.316   4.532  0.00  0.00     0.138 C 
BRANCH   4   5
HETATM    5  N   UNK N   1      25.602  19.705   5.905  0.00  0.00    -0.227 N 
HETATM    6  C   UNK N   1      26.395  20.690   6.542  0.00  0.00     0.665 C 
HETATM    7  N   UNK N   1      27.350  21.271   5.914  0.00  0.00    -0.235 N 
HETATM    8  N   UNK N   1      26.113  21.054   7.878  0.00  0.00    -0.235 N 
HETATM    9  H   UNK N   1      28.288  21.317   6.209  0.00  0.00     0.174 HD
ATOM     10  HN  UNK N   1      27.117  21.723   5.031  1.00  0.00     0.174 HD
HETATM   11  H   UNK N   1      25.393  20.995   8.546  0.00  0.00     0.174 HD
HETATM   12  H   UNK N   1      26.889  21.517   8.266  0.00  0.00     0.174 HD
HETATM   13  H   UNK N   1      24.887  19.269   6.422  0.00  0.00     0.177 HD
ENDBRANCH   4   5
ENDBRANCH   3   4
ENDBRANCH   2   3
ENDBRANCH   1   2
BRANCH   1  14
HETATM   14  C   UNK N   1      25.994  15.689   6.544  0.00  0.00     0.205 C 
HETATM   15  O   UNK N   1      25.971  14.611   7.118  0.00  0.00    -0.288 OA
BRANCH  14  16
HETATM   16  C   UNK N   1      27.185  16.527   6.647  0.00  0.00     0.123 A 
HETATM   17  N   UNK N   1      27.319  17.405   7.679  0.00  0.00    -0.346 N 
HETATM   18  C   UNK N   1      28.640  17.683   7.936  0.00  0.00     0.050 A 
ATOM     19  HN  UNK N   1      26.537  17.807   8.197  1.00  0.00     0.167 HD
HETATM   20  C   UNK N   1      29.085  18.463   8.997  0.00  0.00     0.031 A 
HETATM   21  C   UNK N   1      29.555  17.032   7.113  0.00  0.00     0.033 A 
HETATM   22  C   UNK N   1      30.472  18.571   9.211  0.00  0.00     0.002 A 
HETATM   23  C   UNK N   1      31.386  17.903   8.366  0.00  0.00     0.002 A 
HETATM   24  C   UNK N   1      30.925  17.119   7.298  0.00  0.00     0.021 A 
HETATM   25  S   UNK N   1      28.687  16.120   6.068  0.00  0.00    -0.067 SA
ENDBRANCH  14  16
ENDBRANCH   1  14
BRANCH   1  26
HETATM   26  N   UNK N   1      23.675  16.220   5.882  0.00  0.00    -0.361 N 
HETATM   27  C   UNK N   1      22.603  15.548   5.639  0.00  0.00     0.135 C 
ATOM     28  HN  UNK N   1      23.567  17.043   6.474  1.00  0.00     0.162 HD
BRANCH  27  29
HETATM   29  C   UNK N   1      21.338  16.022   6.295  0.00  0.00     0.164 C 
HETATM   30  C   UNK N   1      21.287  17.534   6.474  0.00  0.00     0.067 C 
HETATM   31  C   UNK N   1      20.287  17.679   7.606  0.00  0.00     0.138 C 
HETATM   32  C   UNK N   1      20.665  16.549   8.545  0.00  0.00     0.158 C 
HETATM   33  N   UNK N   1      21.133  15.525   7.644  0.00  0.00    -0.338 N 
HETATM   34  C   UNK N   1      21.288  14.231   8.068  0.00  0.00     0.216 C 
HETATM   35  C   UNK N   1      21.023  13.849   9.487  0.00  0.00     0.117 C 
HETATM   36  O   UNK N   1      21.656  13.356   7.296  0.00  0.00    -0.274 OA
BRANCH  31  37
HETATM   37  O   UNK N   1      20.382  18.920   8.233  0.00  0.00    -0.394 OA
HETATM   38  H   UNK N   1      20.046  19.451   8.971  0.00  0.00     0.210 HD
ENDBRANCH  31  37
ENDBRANCH  27  29
BRANCH  27  39
HETATM   39  O   UNK N   1      22.628  14.432   4.877  0.00  0.00    -0.348 OA
HETATM   40  H   UNK N   1      22.150  13.667   4.624  0.00  0.00     0.219 HD
ENDBRANCH  27  39
ENDBRANCH   1  26
TORSDOF 10
ENDMDL
MODEL 4
REMARK VINA RESULT:      -7.0      8.223     11.865
REMARK  10 active torsions:
REMARK  status: ('A' for Active; 'I' for Inactive)
REMARK    1  A    between atoms: C_6  and  C_4 
REMARK    2  A    between atoms: C_8  and  C_4 
REMARK    3  A    between atoms: C_14  and  C_6 
REMARK    4  A    between atoms: N_24  and  C_8 
REMARK       I    between atoms: N_29  and  C_11 
REMARK    5  A    between atoms: C_12  and  O_31 
REMARK    6  A    between atoms: C_17  and  C_14 
REMARK    7  A    between atoms: C_14  and  N_25 
REMARK    8  A    between atoms: C_15  and  C_18 
REMARK    9  A    between atoms: C_19  and  C_17 
REMARK   10  A    between atoms: C_18  and  O_33 
REMARK       I    between atoms: N_23  and  C_20 
REMARK       I    between atoms: N_24  and  C_20 
ROOT
HETATM    1  C   UNK N   1      22.501  17.213   4.874  0.00  0.00     0.160 C 
ENDROOT
BRANCH   1   2
HETATM    2  C   UNK N   1      21.856  16.214   3.882  0.00  0.00     0.035 C 
BRANCH   2   3
HETATM    3  C   UNK N   1      21.148  16.828   2.678  0.00  0.00     0.023 C 
BRANCH   3   4
HETATM    4  C   UNK N   1      20.266  17.992   3.092  0.00  0.00     0.138 C 
BRANCH   4   5
HETATM    5  N   UNK N   1      20.080  18.867   1.963  0.00  0.00    -0.227 N 
HETATM    6  C   UNK N   1      20.802  20.075   1.802  0.00  0.00     0.665 C 
HETATM    7  N   UNK N   1      21.652  20.454   2.684  0.00  0.00    -0.235 N 
HETATM    8  N   UNK N   1      20.600  20.857   0.643  0.00  0.00    -0.235 N 
HETATM    9  H   UNK N   1      21.654  21.323   3.145  0.00  0.00     0.174 HD
ATOM     10  HN  UNK N   1      22.390  19.795   2.930  1.00  0.00     0.174 HD
HETATM   11  H   UNK N   1      20.233  20.787  -0.267  0.00  0.00     0.174 HD
HETATM   12  H   UNK N   1      20.937  21.769   0.796  0.00  0.00     0.174 HD
HETATM   13  H   UNK N   1      19.424  18.615   1.274  0.00  0.00     0.177 HD
ENDBRANCH   4   5
ENDBRANCH   3   4
ENDBRANCH   2   3
ENDBRANCH   1   2
BRANCH   1  14
HETATM   14  C   UNK N   1      22.008  17.243   6.311  0.00  0.00     0.205 C 
HETATM   15  O   UNK N   1      21.649  18.308   6.792  0.00  0.00    -0.288 OA
BRANCH  14  16
HETATM   16  C   UNK N   1      21.580  15.997   6.940  0.00  0.00     0.123 A 
HETATM   17  N   UNK N   1      22.498  15.055   7.290  0.00  0.00    -0.346 N 
HETATM   18  C   UNK N   1      22.038  14.256   8.309  0.00  0.00     0.050 A 
ATOM     19  HN  UNK N   1      23.414  14.954   6.852  1.00  0.00     0.167 HD
HETATM   20  C   UNK N   1      22.796  13.278   8.943  0.00  0.00     0.031 A 
HETATM   21  C   UNK N   1      20.758  14.557   8.768  0.00  0.00     0.033 A 
HETATM   22  C   UNK N   1      22.237  12.612  10.050  0.00  0.00     0.002 A 
HETATM   23  C   UNK N   1      20.936  12.931  10.502  0.00  0.00     0.002 A 
HETATM   24  C   UNK N   1      20.180  13.919   9.854  0.00  0.00     0.021 A 
HETATM   25  S   UNK N   1      20.222  15.822   7.879  0.00  0.00    -0.067 SA
ENDBRANCH  14  16
ENDBRANCH   1  14
BRANCH   1  26
HETATM   26  N   UNK N   1      23.936  17.268   4.770  0.00  0.00    -0.361 N 
HETATM   27  C   UNK N   1      24.644  18.137   4.135  0.00  0.00     0.135 C 
ATOM     28  HN  UNK N   1      24.452  16.535   5.256  1.00  0.00     0.162 HD
BRANCH  27  29
HETATM   29  C   UNK N   1      26.137  18.000   4.228  0.00  0.00     0.164 C 
HETATM   30  C   UNK N   1      26.589  16.579   4.535  0.00  0.00     0.067 C 
HETATM   31  C   UNK N   1      27.964  16.811   5.131  0.00  0.00     0.138 C 
HETATM   32  C   UNK N   1      27.755  18.031   6.010  0.00  0.00     0.158 C 
HETATM   33  N   UNK N   1      26.751  18.775   5.292  0.00  0.00    -0.338 N 
HETATM   34  C   UNK N   1      26.497  20.088   5.594  0.00  0.00     0.216 C 
HETATM   35  C   UNK N   1      27.217  20.775   6.706  0.00  0.00     0.117 C 
HETATM   36  O   UNK N   1      25.666  20.729   4.965  0.00  0.00    -0.274 OA
BRANCH  31  37
HETATM   37  O   UNK N   1      28.407  15.717   5.872  0.00  0.00    -0.394 OA
HETATM   38  H   UNK N   1      28.115  14.985   6.436  0.00  0.00     0.210 HD
ENDBRANCH  31  37
ENDBRANCH  27  29
BRANCH  27  39
HETATM   39  O   UNK N   1      24.070  19.162   3.467  0.00  0.00    -0.348 OA
HETATM   40  H   UNK N   1      24.204  19.824   2.818  0.00  0.00     0.219 HD
ENDBRANCH  27  39
ENDBRANCH   1  26
TORSDOF 10
ENDMDL
MODEL 5
REMARK VINA RESULT:      -7.0      2.140      2.882
REMARK  10 active torsions:
REMARK  status: ('A' for Active; 'I' for Inactive)
REMARK    1  A    between atoms: C_6  and  C_4 
REMARK    2  A    between atoms: C_8  and  C_4 
REMARK    3  A    between atoms: C_14  and  C_6 
REMARK    4  A    between atoms: N_24  and  C_8 
REMARK       I    between atoms: N_29  and  C_11 
REMARK    5  A    between atoms: C_12  and  O_31 
REMARK    6  A    between atoms: C_17  and  C_14 
REMARK    7  A    between atoms: C_14  and  N_25 
REMARK    8  A    between atoms: C_15  and  C_18 
REMARK    9  A    between atoms: C_19  and  C_17 
REMARK   10  A    between atoms: C_18  and  O_33 
REMARK       I    between atoms: N_23  and  C_20 
REMARK       I    between atoms: N_24  and  C_20 
ROOT
HETATM    1  C   UNK N   1      34.226  15.701   9.292  0.00  0.00     0.160 C 
ENDROOT
BRANCH   1   2
HETATM    2  C   UNK N   1      35.031  15.318   8.026  0.00  0.00     0.035 C 
BRANCH   2   3
HETATM    3  C   UNK N   1      36.067  14.212   8.199  0.00  0.00     0.023 C 
BRANCH   3   4
HETATM    4  C   UNK N   1      35.582  12.904   7.600  0.00  0.00     0.138 C 
BRANCH   4   5
HETATM    5  N   UNK N   1      34.770  12.214   8.568  0.00  0.00    -0.227 N 
HETATM    6  C   UNK N   1      33.368  12.065   8.427  0.00  0.00     0.665 C 
HETATM    7  N   UNK N   1      32.753  12.570   7.421  0.00  0.00    -0.235 N 
HETATM    8  N   UNK N   1      32.645  11.332   9.394  0.00  0.00    -0.235 N 
HETATM    9  H   UNK N   1      31.986  13.185   7.465  0.00  0.00     0.174 HD
ATOM     10  HN  UNK N   1      33.089  12.311   6.494  1.00  0.00     0.174 HD
HETATM   11  H   UNK N   1      32.787  10.676  10.113  0.00  0.00     0.174 HD
HETATM   12  H   UNK N   1      31.688  11.548   9.325  0.00  0.00     0.174 HD
HETATM   13  H   UNK N   1      35.207  11.827   9.360  0.00  0.00     0.177 HD
ENDBRANCH   4   5
ENDBRANCH   3   4
ENDBRANCH   2   3
ENDBRANCH   1   2
BRANCH   1  14
HETATM   14  C   UNK N   1      34.982  16.030  10.570  0.00  0.00     0.205 C 
HETATM   15  O   UNK N   1      35.247  17.198  10.816  0.00  0.00    -0.288 OA
BRANCH  14  16
HETATM   16  C   UNK N   1      35.008  15.050  11.651  0.00  0.00     0.123 A 
HETATM   17  N   UNK N   1      34.470  13.813  11.469  0.00  0.00    -0.346 N 
HETATM   18  C   UNK N   1      35.038  12.887  12.310  0.00  0.00     0.050 A 
ATOM     19  HN  UNK N   1      33.737  13.599  10.792  1.00  0.00     0.167 HD
HETATM   20  C   UNK N   1      34.762  11.525  12.277  0.00  0.00     0.031 A 
HETATM   21  C   UNK N   1      36.022  13.382  13.161  0.00  0.00     0.033 A 
HETATM   22  C   UNK N   1      35.502  10.673  13.119  0.00  0.00     0.002 A 
HETATM   23  C   UNK N   1      36.497  11.193  13.976  0.00  0.00     0.002 A 
HETATM   24  C   UNK N   1      36.766  12.570  14.002  0.00  0.00     0.021 A 
HETATM   25  S   UNK N   1      36.159  14.982  12.846  0.00  0.00    -0.067 SA
ENDBRANCH  14  16
ENDBRANCH   1  14
BRANCH   1  26
HETATM   26  N   UNK N   1      33.148  16.616   9.024  0.00  0.00    -0.361 N 
HETATM   27  C   UNK N   1      31.945  16.328   8.664  0.00  0.00     0.135 C 
ATOM     28  HN  UNK N   1      33.360  17.608   9.132  1.00  0.00     0.162 HD
BRANCH  27  29
HETATM   29  C   UNK N   1      30.989  17.475   8.499  0.00  0.00     0.164 C 
HETATM   30  C   UNK N   1      29.872  17.476   9.533  0.00  0.00     0.067 C 
HETATM   31  C   UNK N   1      28.803  18.295   8.836  0.00  0.00     0.138 C 
HETATM   32  C   UNK N   1      28.871  17.798   7.403  0.00  0.00     0.158 C 
HETATM   33  N   UNK N   1      30.268  17.484   7.238  0.00  0.00    -0.338 N 
HETATM   34  C   UNK N   1      30.804  17.287   5.992  0.00  0.00     0.216 C 
HETATM   35  C   UNK N   1      29.949  17.344   4.769  0.00  0.00     0.117 C 
HETATM   36  O   UNK N   1      31.995  17.050   5.850  0.00  0.00    -0.274 OA
BRANCH  31  37
HETATM   37  O   UNK N   1      27.540  18.090   9.389  0.00  0.00    -0.394 OA
HETATM   38  H   UNK N   1      26.598  18.007   9.178  0.00  0.00     0.210 HD
ENDBRANCH  31  37
ENDBRANCH  27  29
BRANCH  27  39
HETATM   39  O   UNK N   1      31.546  15.047   8.503  0.00  0.00    -0.348 OA
HETATM   40  H   UNK N   1      31.775  14.212   8.144  0.00  0.00     0.219 HD
ENDBRANCH  27  39
ENDBRANCH   1  26
TORSDOF 10
ENDMDL
MODEL 6
REMARK VINA RESULT:      -6.9      3.165      8.031
REMARK  10 active torsions:
REMARK  status: ('A' for Active; 'I' for Inactive)
REMARK    1  A    between atoms: C_6  and  C_4 
REMARK    2  A    between atoms: C_8  and  C_4 
REMARK    3  A    between atoms: C_14  and  C_6 
REMARK    4  A    between atoms: N_24  and  C_8 
REMARK       I    between atoms: N_29  and  C_11 
REMARK    5  A    between atoms: C_12  and  O_31 
REMARK    6  A    between atoms: C_17  and  C_14 
REMARK    7  A    between atoms: C_14  and  N_25 
REMARK    8  A    between atoms: C_15  and  C_18 
REMARK    9  A    between atoms: C_19  and  C_17 
REMARK   10  A    between atoms: C_18  and  O_33 
REMARK       I    between atoms: N_23  and  C_20 
REMARK       I    between atoms: N_24  and  C_20 
ROOT
HETATM    1  C   UNK N   1      35.062  15.546   8.896  0.00  0.00     0.160 C 
ENDROOT
BRANCH   1   2
HETATM    2  C   UNK N   1      34.524  14.626   7.772  0.00  0.00     0.035 C 
BRANCH   2   3
HETATM    3  C   UNK N   1      33.362  13.713   8.152  0.00  0.00     0.023 C 
BRANCH   3   4
HETATM    4  C   UNK N   1      33.429  12.394   7.403  0.00  0.00     0.138 C 
BRANCH   4   5
HETATM    5  N   UNK N   1      34.122  11.426   8.212  0.00  0.00    -0.227 N 
HETATM    6  C   UNK N   1      33.476  10.661   9.215  0.00  0.00     0.665 C 
HETATM    7  N   UNK N   1      32.228  10.821   9.459  0.00  0.00    -0.235 N 
HETATM    8  N   UNK N   1      34.213   9.695   9.935  0.00  0.00    -0.235 N 
HETATM    9  H   UNK N   1      31.835  11.026  10.338  0.00  0.00     0.174 HD
ATOM     10  HN  UNK N   1      31.586  10.728   8.673  1.00  0.00     0.174 HD
HETATM   11  H   UNK N   1      35.052   9.182   9.882  0.00  0.00     0.174 HD
HETATM   12  H   UNK N   1      33.729   9.456  10.758  0.00  0.00     0.174 HD
HETATM   13  H   UNK N   1      35.085  11.288   8.062  0.00  0.00     0.177 HD
ENDBRANCH   4   5
ENDBRANCH   3   4
ENDBRANCH   2   3
ENDBRANCH   1   2
BRANCH   1  14
HETATM   14  C   UNK N   1      34.553  16.976   8.980  0.00  0.00     0.205 C 
HETATM   15  O   UNK N   1      35.192  17.795   9.624  0.00  0.00    -0.288 OA
BRANCH  14  16
HETATM   16  C   UNK N   1      33.587  17.444   7.991  0.00  0.00     0.123 A 
HETATM   17  N   UNK N   1      33.957  17.597   6.689  0.00  0.00    -0.346 N 
HETATM   18  C   UNK N   1      32.879  17.499   5.844  0.00  0.00     0.050 A 
ATOM     19  HN  UNK N   1      34.915  17.763   6.380  1.00  0.00     0.167 HD
HETATM   20  C   UNK N   1      32.967  17.510   4.456  0.00  0.00     0.031 A 
HETATM   21  C   UNK N   1      31.654  17.271   6.466  0.00  0.00     0.033 A 
HETATM   22  C   UNK N   1      31.795  17.285   3.711  0.00  0.00     0.002 A 
HETATM   23  C   UNK N   1      30.560  17.055   4.359  0.00  0.00     0.002 A 
HETATM   24  C   UNK N   1      30.483  17.047   5.760  0.00  0.00     0.021 A 
HETATM   25  S   UNK N   1      31.946  17.203   8.074  0.00  0.00    -0.067 SA
ENDBRANCH  14  16
ENDBRANCH   1  14
BRANCH   1  26
HETATM   26  N   UNK N   1      35.126  14.896  10.179  0.00  0.00    -0.361 N 
HETATM   27  C   UNK N   1      36.069  14.977  11.053  0.00  0.00     0.135 C 
ATOM     28  HN  UNK N   1      34.334  14.302  10.425  1.00  0.00     0.162 HD
BRANCH  27  29
HETATM   29  C   UNK N   1      35.868  14.236  12.345  0.00  0.00     0.164 C 
HETATM   30  C   UNK N   1      36.383  14.999  13.558  0.00  0.00     0.067 C 
HETATM   31  C   UNK N   1      36.602  13.880  14.559  0.00  0.00     0.138 C 
HETATM   32  C   UNK N   1      37.207  12.775  13.711  0.00  0.00     0.158 C 
HETATM   33  N   UNK N   1      36.572  12.969  12.431  0.00  0.00    -0.338 N 
HETATM   34  C   UNK N   1      36.618  11.995  11.468  0.00  0.00     0.216 C 
HETATM   35  C   UNK N   1      37.366  10.723  11.695  0.00  0.00     0.117 C 
HETATM   36  O   UNK N   1      36.055  12.146  10.393  0.00  0.00    -0.274 OA
BRANCH  31  37
HETATM   37  O   UNK N   1      37.457  14.259  15.591  0.00  0.00    -0.394 OA
HETATM   38  H   UNK N   1      37.503  14.740  16.432  0.00  0.00     0.210 HD
ENDBRANCH  31  37
ENDBRANCH  27  29
BRANCH  27  39
HETATM   39  O   UNK N   1      37.162  15.744  10.842  0.00  0.00    -0.348 OA
HETATM   40  H   UNK N   1      38.098  15.749  10.800  0.00  0.00     0.219 HD
ENDBRANCH  27  39
ENDBRANCH   1  26
TORSDOF 10
ENDMDL
MODEL 7
REMARK VINA RESULT:      -6.8     11.454     14.765
REMARK  10 active torsions:
REMARK  status: ('A' for Active; 'I' for Inactive)
REMARK    1  A    between atoms: C_6  and  C_4 
REMARK    2  A    between atoms: C_8  and  C_4 
REMARK    3  A    between atoms: C_14  and  C_6 
REMARK    4  A    between atoms: N_24  and  C_8 
REMARK       I    between atoms: N_29  and  C_11 
REMARK    5  A    between atoms: C_12  and  O_31 
REMARK    6  A    between atoms: C_17  and  C_14 
REMARK    7  A    between atoms: C_14  and  N_25 
REMARK    8  A    between atoms: C_15  and  C_18 
REMARK    9  A    between atoms: C_19  and  C_17 
REMARK   10  A    between atoms: C_18  and  O_33 
REMARK       I    between atoms: N_23  and  C_20 
REMARK       I    between atoms: N_24  and  C_20 
ROOT
HETATM    1  C   UNK N   1      20.626  16.041   5.783  0.00  0.00     0.160 C 
ENDROOT
BRANCH   1   2
HETATM    2  C   UNK N   1      21.293  15.893   7.173  0.00  0.00     0.035 C 
BRANCH   2   3
HETATM    3  C   UNK N   1      20.668  14.864   8.110  0.00  0.00     0.023 C 
BRANCH   3   4
HETATM    4  C   UNK N   1      21.657  13.768   8.464  0.00  0.00     0.138 C 
BRANCH   4   5
HETATM    5  N   UNK N   1      21.111  12.965   9.527  0.00  0.00    -0.227 N 
HETATM    6  C   UNK N   1      21.869  12.568  10.655  0.00  0.00     0.665 C 
HETATM    7  N   UNK N   1      23.103  12.898  10.766  0.00  0.00    -0.235 N 
HETATM    8  N   UNK N   1      21.250  11.821  11.682  0.00  0.00    -0.235 N 
HETATM    9  H   UNK N   1      23.854  12.278  10.910  0.00  0.00     0.174 HD
ATOM     10  HN  UNK N   1      23.325  13.890  10.698  1.00  0.00     0.174 HD
HETATM   11  H   UNK N   1      20.355  11.592  12.022  0.00  0.00     0.174 HD
HETATM   12  H   UNK N   1      21.937  11.388  12.237  0.00  0.00     0.174 HD
HETATM   13  H   UNK N   1      20.170  12.681   9.467  0.00  0.00     0.177 HD
ENDBRANCH   4   5
ENDBRANCH   3   4
ENDBRANCH   2   3
ENDBRANCH   1   2
BRANCH   1  14
HETATM   14  C   UNK N   1      19.254  15.425   5.559  0.00  0.00     0.205 C 
HETATM   15  O   UNK N   1      18.263  16.035   5.934  0.00  0.00    -0.288 OA
BRANCH  14  16
HETATM   16  C   UNK N   1      19.106  14.367   4.564  0.00  0.00     0.123 A 
HETATM   17  N   UNK N   1      19.129  14.666   3.236  0.00  0.00    -0.346 N 
HETATM   18  C   UNK N   1      19.524  13.586   2.483  0.00  0.00     0.050 A 
ATOM     19  HN  UNK N   1      18.884  15.577   2.847  1.00  0.00     0.167 HD
HETATM   20  C   UNK N   1      19.741  13.625   1.110  0.00  0.00     0.031 A 
HETATM   21  C   UNK N   1      19.813  12.432   3.206  0.00  0.00     0.033 A 
HETATM   22  C   UNK N   1      20.255  12.475   0.483  0.00  0.00     0.002 A 
HETATM   23  C   UNK N   1      20.543  11.312   1.232  0.00  0.00     0.002 A 
HETATM   24  C   UNK N   1      20.320  11.285   2.617  0.00  0.00     0.021 A 
HETATM   25  S   UNK N   1      19.560  12.785   4.783  0.00  0.00    -0.067 SA
ENDBRANCH  14  16
ENDBRANCH   1  14
BRANCH   1  26
HETATM   26  N   UNK N   1      20.743  17.368   5.236  0.00  0.00    -0.361 N 
HETATM   27  C   UNK N   1      21.043  17.693   4.026  0.00  0.00     0.135 C 
ATOM     28  HN  UNK N   1      20.569  18.139   5.880  1.00  0.00     0.162 HD
BRANCH  27  29
HETATM   29  C   UNK N   1      21.048  19.159   3.695  0.00  0.00     0.164 C 
HETATM   30  C   UNK N   1      20.099  19.519   2.560  0.00  0.00     0.067 C 
HETATM   31  C   UNK N   1      20.694  20.821   2.058  0.00  0.00     0.138 C 
HETATM   32  C   UNK N   1      22.187  20.554   2.098  0.00  0.00     0.158 C 
HETATM   33  N   UNK N   1      22.325  19.669   3.229  0.00  0.00    -0.338 N 
HETATM   34  C   UNK N   1      23.553  19.429   3.790  0.00  0.00     0.216 C 
HETATM   35  C   UNK N   1      24.792  20.036   3.220  0.00  0.00     0.117 C 
HETATM   36  O   UNK N   1      23.666  18.703   4.767  0.00  0.00    -0.274 OA
BRANCH  31  37
HETATM   37  O   UNK N   1      20.264  21.133   0.770  0.00  0.00    -0.394 OA
HETATM   38  H   UNK N   1      20.164  20.781  -0.127  0.00  0.00     0.210 HD
ENDBRANCH  31  37
ENDBRANCH  27  29
BRANCH  27  39
HETATM   39  O   UNK N   1      21.282  16.756   3.082  0.00  0.00    -0.348 OA
HETATM   40  H   UNK N   1      21.889  16.108   2.782  0.00  0.00     0.219 HD
ENDBRANCH  27  39
ENDBRANCH   1  26
TORSDOF 10
ENDMDL
MODEL 8
REMARK VINA RESULT:      -6.8      2.858      8.034
REMARK  10 active torsions:
REMARK  status: ('A' for Active; 'I' for Inactive)
REMARK    1  A    between atoms: C_6  and  C_4 
REMARK    2  A    between atoms: C_8  and  C_4 
REMARK    3  A    between atoms: C_14  and  C_6 
REMARK    4  A    between atoms: N_24  and  C_8 
REMARK       I    between atoms: N_29  and  C_11 
REMARK    5  A    between atoms: C_12  and  O_31 
REMARK    6  A    between atoms: C_17  and  C_14 
REMARK    7  A    between atoms: C_14  and  N_25 
REMARK    8  A    between atoms: C_15  and  C_18 
REMARK    9  A    between atoms: C_19  and  C_17 
REMARK   10  A    between atoms: C_18  and  O_33 
REMARK       I    between atoms: N_23  and  C_20 
REMARK       I    between atoms: N_24  and  C_20 
ROOT
HETATM    1  C   UNK N   1      30.738  16.992   7.605  0.00  0.00     0.160 C 
ENDROOT
BRANCH   1   2
HETATM    2  C   UNK N   1      30.714  16.367   6.188  0.00  0.00     0.035 C 
BRANCH   2   3
HETATM    3  C   UNK N   1      31.093  17.297   5.039  0.00  0.00     0.023 C 
BRANCH   3   4
HETATM    4  C   UNK N   1      32.079  16.633   4.095  0.00  0.00     0.138 C 
BRANCH   4   5
HETATM    5  N   UNK N   1      33.367  16.556   4.736  0.00  0.00    -0.227 N 
HETATM    6  C   UNK N   1      33.977  15.327   5.086  0.00  0.00     0.665 C 
HETATM    7  N   UNK N   1      33.384  14.212   4.861  0.00  0.00    -0.235 N 
HETATM    8  N   UNK N   1      35.264  15.329   5.668  0.00  0.00    -0.235 N 
HETATM    9  H   UNK N   1      33.196  13.515   5.529  0.00  0.00     0.174 HD
ATOM     10  HN  UNK N   1      33.079  14.035   3.904  1.00  0.00     0.174 HD
HETATM   11  H   UNK N   1      36.047  15.915   5.779  0.00  0.00     0.174 HD
HETATM   12  H   UNK N   1      35.432  14.463   6.104  0.00  0.00     0.174 HD
HETATM   13  H   UNK N   1      33.844  17.393   4.937  0.00  0.00     0.177 HD
ENDBRANCH   4   5
ENDBRANCH   3   4
ENDBRANCH   2   3
ENDBRANCH   1   2
BRANCH   1  14
HETATM   14  C   UNK N   1      29.419  17.302   8.293  0.00  0.00     0.205 C 
HETATM   15  O   UNK N   1      29.406  17.458   9.505  0.00  0.00    -0.288 OA
BRANCH  14  16
HETATM   16  C   UNK N   1      28.306  17.810   7.497  0.00  0.00     0.123 A 
HETATM   17  N   UNK N   1      28.304  19.102   7.067  0.00  0.00    -0.346 N 
HETATM   18  C   UNK N   1      27.535  19.257   5.939  0.00  0.00     0.050 A 
ATOM     19  HN  UNK N   1      28.810  19.861   7.525  1.00  0.00     0.167 HD
HETATM   20  C   UNK N   1      27.430  20.441   5.218  0.00  0.00     0.031 A 
HETATM   21  C   UNK N   1      26.925  18.096   5.472  0.00  0.00     0.033 A 
HETATM   22  C   UNK N   1      26.699  20.428   4.015  0.00  0.00     0.002 A 
HETATM   23  C   UNK N   1      26.087  19.241   3.556  0.00  0.00     0.002 A 
HETATM   24  C   UNK N   1      26.198  18.052   4.293  0.00  0.00     0.021 A 
HETATM   25  S   UNK N   1      27.358  16.891   6.490  0.00  0.00    -0.067 SA
ENDBRANCH  14  16
ENDBRANCH   1  14
BRANCH   1  26
HETATM   26  N   UNK N   1      31.698  16.373   8.481  0.00  0.00    -0.361 N 
HETATM   27  C   UNK N   1      32.975  16.543   8.492  0.00  0.00     0.135 C 
ATOM     28  HN  UNK N   1      31.324  15.724   9.174  1.00  0.00     0.162 HD
BRANCH  27  29
HETATM   29  C   UNK N   1      33.752  15.812   9.550  0.00  0.00     0.164 C 
HETATM   30  C   UNK N   1      34.928  16.615  10.090  0.00  0.00     0.067 C 
HETATM   31  C   UNK N   1      35.824  15.522  10.640  0.00  0.00     0.138 C 
HETATM   32  C   UNK N   1      35.724  14.434   9.587  0.00  0.00     0.158 C 
HETATM   33  N   UNK N   1      34.375  14.580   9.101  0.00  0.00    -0.338 N 
HETATM   34  C   UNK N   1      33.785  13.595   8.352  0.00  0.00     0.216 C 
HETATM   35  C   UNK N   1      34.537  12.361   7.975  0.00  0.00     0.117 C 
HETATM   36  O   UNK N   1      32.630  13.705   7.965  0.00  0.00    -0.274 OA
BRANCH  31  37
HETATM   37  O   UNK N   1      37.138  15.955  10.807  0.00  0.00    -0.394 OA
HETATM   38  H   UNK N   1      37.693  16.618  11.245  0.00  0.00     0.210 HD
ENDBRANCH  31  37
ENDBRANCH  27  29
BRANCH  27  39
HETATM   39  O   UNK N   1      33.581  17.388   7.628  0.00  0.00    -0.348 OA
HETATM   40  H   UNK N   1      33.615  17.679   6.739  0.00  0.00     0.219 HD
ENDBRANCH  27  39
ENDBRANCH   1  26
TORSDOF 10
ENDMDL
MODEL 9
REMARK VINA RESULT:      -6.8      2.562      3.318
REMARK  10 active torsions:
REMARK  status: ('A' for Active; 'I' for Inactive)
REMARK    1  A    between atoms: C_6  and  C_4 
REMARK    2  A    between atoms: C_8  and  C_4 
REMARK    3  A    between atoms: C_14  and  C_6 
REMARK    4  A    between atoms: N_24  and  C_8 
REMARK       I    between atoms: N_29  and  C_11 
REMARK    5  A    between atoms: C_12  and  O_31 
REMARK    6  A    between atoms: C_17  and  C_14 
REMARK    7  A    between atoms: C_14  and  N_25 
REMARK    8  A    between atoms: C_15  and  C_18 
REMARK    9  A    between atoms: C_19  and  C_17 
REMARK   10  A    between atoms: C_18  and  O_33 
REMARK       I    between atoms: N_23  and  C_20 
REMARK       I    between atoms: N_24  and  C_20 
ROOT
HETATM    1  C   UNK N   1      35.468  14.794   9.354  0.00  0.00     0.160 C 
ENDROOT
BRANCH   1   2
HETATM    2  C   UNK N   1      36.260  14.218   8.153  0.00  0.00     0.035 C 
BRANCH   2   3
HETATM    3  C   UNK N   1      36.493  12.711   8.166  0.00  0.00     0.023 C 
BRANCH   3   4
HETATM    4  C   UNK N   1      35.304  11.964   7.589  0.00  0.00     0.138 C 
BRANCH   4   5
HETATM    5  N   UNK N   1      34.289  11.838   8.603  0.00  0.00    -0.227 N 
HETATM    6  C   UNK N   1      33.310  10.814   8.587  0.00  0.00     0.665 C 
HETATM    7  N   UNK N   1      33.277   9.954   7.637  0.00  0.00    -0.235 N 
HETATM    8  N   UNK N   1      32.377  10.727   9.643  0.00  0.00    -0.235 N 
HETATM    9  H   UNK N   1      32.498   9.753   7.070  0.00  0.00     0.174 HD
ATOM     10  HN  UNK N   1      34.134   9.434   7.452  1.00  0.00     0.174 HD
HETATM   11  H   UNK N   1      32.242  11.039  10.567  0.00  0.00     0.174 HD
HETATM   12  H   UNK N   1      31.614  10.172   9.366  0.00  0.00     0.174 HD
HETATM   13  H   UNK N   1      34.275  12.491   9.340  0.00  0.00     0.177 HD
ENDBRANCH   4   5
ENDBRANCH   3   4
ENDBRANCH   2   3
ENDBRANCH   1   2
BRANCH   1  14
HETATM   14  C   UNK N   1      36.225  15.175  10.616  0.00  0.00     0.205 C 
HETATM   15  O   UNK N   1      36.490  16.351  10.814  0.00  0.00    -0.288 OA
BRANCH  14  16
HETATM   16  C   UNK N   1      36.253  14.239  11.736  0.00  0.00     0.123 A 
HETATM   17  N   UNK N   1      36.793  14.612  12.929  0.00  0.00    -0.346 N 
HETATM   18  C   UNK N   1      36.269  13.884  13.969  0.00  0.00     0.050 A 
ATOM     19  HN  UNK N   1      37.498  15.342  13.037  1.00  0.00     0.167 HD
HETATM   20  C   UNK N   1      36.553  14.116  15.310  0.00  0.00     0.031 A 
HETATM   21  C   UNK N   1      35.317  12.933  13.609  0.00  0.00     0.033 A 
HETATM   22  C   UNK N   1      35.857  13.370  16.279  0.00  0.00     0.002 A 
HETATM   23  C   UNK N   1      34.895  12.409  15.896  0.00  0.00     0.002 A 
HETATM   24  C   UNK N   1      34.616  12.183  14.539  0.00  0.00     0.021 A 
HETATM   25  S   UNK N   1      35.154  13.019  11.984  0.00  0.00    -0.067 SA
ENDBRANCH  14  16
ENDBRANCH   1  14
BRANCH   1  26
HETATM   26  N   UNK N   1      34.487  15.774   8.969  0.00  0.00    -0.361 N 
HETATM   27  C   UNK N   1      33.284  15.561   8.558  0.00  0.00     0.135 C 
ATOM     28  HN  UNK N   1      34.776  16.750   9.028  1.00  0.00     0.162 HD
BRANCH  27  29
HETATM   29  C   UNK N   1      32.438  16.768   8.268  0.00  0.00     0.164 C 
HETATM   30  C   UNK N   1      30.998  16.615   8.737  0.00  0.00     0.067 C 
HETATM   31  C   UNK N   1      30.277  17.619   7.857  0.00  0.00     0.138 C 
HETATM   32  C   UNK N   1      30.939  17.429   6.505  0.00  0.00     0.158 C 
HETATM   33  N   UNK N   1      32.293  17.080   6.857  0.00  0.00    -0.338 N 
HETATM   34  C   UNK N   1      33.296  17.118   5.924  0.00  0.00     0.216 C 
HETATM   35  C   UNK N   1      33.011  17.476   4.503  0.00  0.00     0.117 C 
HETATM   36  O   UNK N   1      34.450  16.851   6.229  0.00  0.00    -0.274 OA
BRANCH  31  37
HETATM   37  O   UNK N   1      28.906  17.374   7.795  0.00  0.00    -0.394 OA
HETATM   38  H   UNK N   1      28.148  17.320   7.194  0.00  0.00     0.210 HD
ENDBRANCH  31  37
ENDBRANCH  27  29
BRANCH  27  39
HETATM   39  O   UNK N   1      32.787  14.308   8.453  0.00  0.00    -0.348 OA
HETATM   40  H   UNK N   1      32.994  13.396   8.497  0.00  0.00     0.219 HD
ENDBRANCH  27  39
ENDBRANCH   1  26
TORSDOF 10
ENDMDL
