MODEL 1
REMARK VINA RESULT:      -5.4      0.000      0.000
REMARK  12 active torsions:
REMARK  status: ('A' for Active; 'I' for Inactive)
REMARK    1  A    between atoms: P_1  and  O_3 
REMARK    2  A    between atoms: P_1  and  O_9 
REMARK    3  A    between atoms: P_1  and  O_10 
REMARK    4  A    between atoms: P_2  and  O_4 
REMARK    5  A    between atoms: P_2  and  O_11 
REMARK    6  A    between atoms: P_2  and  O_12 
REMARK    7  A    between atoms: C_15  and  O_3 
REMARK    8  A    between atoms: C_16  and  O_4 
REMARK    9  A    between atoms: C_17  and  O_5 
REMARK   10  A    between atoms: C_18  and  O_6 
REMARK   11  A    between atoms: C_19  and  O_7 
REMARK   12  A    between atoms: C_20  and  O_8 
ROOT
HETATM    1  C   UNK N   1      20.692  18.755   2.832  0.00  0.00     0.196 C 
HETATM    2  C   UNK N   1      20.570  17.510   5.056  0.00  0.00     0.196 C 
HETATM    3  C   UNK N   1      21.311  18.576   4.224  0.00  0.00     0.182 C 
HETATM    4  C   UNK N   1      20.680  17.434   2.035  0.00  0.00     0.181 C 
HETATM    5  C   UNK N   1      20.073  16.309   4.225  0.00  0.00     0.181 C 
HETATM    6  C   UNK N   1      20.859  16.191   2.923  0.00  0.00     0.180 C 
ENDROOT
BRANCH   1   7
HETATM    7  O   UNK N   1      21.394  19.723   2.101  0.00  0.00    -0.286 OA
BRANCH   7   8
HETATM    8  P   UNK N   1      20.194  20.813   1.461  0.00  0.00     0.391 P 
HETATM    9  O   UNK N   1      21.050  20.493   0.206  0.00  0.00    -0.632 OA
BRANCH   8  10
HETATM   10  O   UNK N   1      20.654  22.383   0.883  0.00  0.00    -0.307 OA
HETATM   11  H   UNK N   1      20.848  22.542  -0.053  0.00  0.00     0.222 HD
ENDBRANCH   8  10
BRANCH   8  12
HETATM   12  O   UNK N   1      21.165  21.639   2.640  0.00  0.00    -0.307 OA
HETATM   13  H   UNK N   1      21.102  21.502   3.598  0.00  0.00     0.222 HD
ENDBRANCH   8  12
ENDBRANCH   7   8
ENDBRANCH   1   7
BRANCH   3  14
HETATM   14  O   UNK N   1      21.331  19.788   4.918  0.00  0.00    -0.390 OA
HETATM   15  H   UNK N   1      21.723  20.600   4.561  0.00  0.00     0.210 HD
ENDBRANCH   3  14
BRANCH   4  16
HETATM   16  O   UNK N   1      19.491  17.364   1.305  0.00  0.00    -0.390 OA
HETATM   17  H   UNK N   1      18.563  17.609   1.447  0.00  0.00     0.210 HD
ENDBRANCH   4  16
BRANCH   2  18
HETATM   18  O   UNK N   1      21.414  17.061   6.080  0.00  0.00    -0.286 OA
BRANCH  18  19
HETATM   19  P   UNK N   1      20.362  16.485   7.344  0.00  0.00     0.391 P 
HETATM   20  O   UNK N   1      21.657  15.665   7.586  0.00  0.00    -0.632 OA
BRANCH  19  21
HETATM   21  O   UNK N   1      20.675  18.175   7.579  0.00  0.00    -0.307 OA
HETATM   22  H   UNK N   1      20.263  18.787   8.209  0.00  0.00     0.222 HD
ENDBRANCH  19  21
BRANCH  19  23
HETATM   23  O   UNK N   1      20.730  16.808   9.009  0.00  0.00    -0.307 OA
HETATM   24  H   UNK N   1      21.437  17.419   9.268  0.00  0.00     0.222 HD
ENDBRANCH  19  23
ENDBRANCH  18  19
ENDBRANCH   2  18
BRANCH   6  25
HETATM   25  O   UNK N   1      20.529  15.024   2.231  0.00  0.00    -0.390 OA
HETATM   26  H   UNK N   1      19.669  14.943   1.790  0.00  0.00     0.210 HD
ENDBRANCH   6  25
BRANCH   5  27
HETATM   27  O   UNK N   1      18.709  16.448   3.962  0.00  0.00    -0.390 OA
HETATM   28  H   UNK N   1      17.828  16.142   3.691  0.00  0.00     0.210 HD
ENDBRANCH   5  27
TORSDOF 12
ENDMDL
MODEL 2
REMARK VINA RESULT:      -5.3      2.030      4.123
REMARK  12 active torsions:
REMARK  status: ('A' for Active; 'I' for Inactive)
REMARK    1  A    between atoms: P_1  and  O_3 
REMARK    2  A    between atoms: P_1  and  O_9 
REMARK    3  A    between atoms: P_1  and  O_10 
REMARK    4  A    between atoms: P_2  and  O_4 
REMARK    5  A    between atoms: P_2  and  O_11 
REMARK    6  A    between atoms: P_2  and  O_12 
REMARK    7  A    between atoms: C_15  and  O_3 
REMARK    8  A    between atoms: C_16  and  O_4 
REMARK    9  A    between atoms: C_17  and  O_5 
REMARK   10  A    between atoms: C_18  and  O_6 
REMARK   11  A    between atoms: C_19  and  O_7 
REMARK   12  A    between atoms: C_20  and  O_8 
ROOT
HETATM    1  C   UNK N   1      21.030  18.126   4.391  0.00  0.00     0.196 C 
HETATM    2  C   UNK N   1      20.079  15.773   4.123  0.00  0.00     0.196 C 
HETATM    3  C   UNK N   1      19.798  17.287   4.031  0.00  0.00     0.182 C 
HETATM    4  C   UNK N   1      21.545  17.810   5.811  0.00  0.00     0.181 C 
HETATM    5  C   UNK N   1      21.017  15.386   5.285  0.00  0.00     0.181 C 
HETATM    6  C   UNK N   1      21.024  16.470   6.357  0.00  0.00     0.180 C 
ENDROOT
BRANCH   1   7
HETATM    7  O   UNK N   1      20.737  19.494   4.305  0.00  0.00    -0.286 OA
BRANCH   7   8
HETATM    8  P   UNK N   1      21.440  20.048   2.810  0.00  0.00     0.391 P 
HETATM    9  O   UNK N   1      22.685  19.912   3.728  0.00  0.00    -0.632 OA
BRANCH   8  10
HETATM   10  O   UNK N   1      22.176  21.616   2.714  0.00  0.00    -0.307 OA
HETATM   11  H   UNK N   1      22.876  21.886   3.329  0.00  0.00     0.222 HD
ENDBRANCH   8  10
BRANCH   8  12
HETATM   12  O   UNK N   1      20.374  21.264   3.441  0.00  0.00    -0.307 OA
HETATM   13  H   UNK N   1      20.615  21.905   4.127  0.00  0.00     0.222 HD
ENDBRANCH   8  12
ENDBRANCH   7   8
ENDBRANCH   1   7
BRANCH   3  14
HETATM   14  O   UNK N   1      19.337  17.605   2.751  0.00  0.00    -0.390 OA
HETATM   15  H   UNK N   1      18.403  17.559   2.495  0.00  0.00     0.210 HD
ENDBRANCH   3  14
BRANCH   4  16
HETATM   16  O   UNK N   1      22.942  17.838   5.795  0.00  0.00    -0.390 OA
HETATM   17  H   UNK N   1      23.630  18.309   5.299  0.00  0.00     0.210 HD
ENDBRANCH   4  16
BRANCH   2  18
HETATM   18  O   UNK N   1      18.863  15.088   4.248  0.00  0.00    -0.286 OA
BRANCH  18  19
HETATM   19  P   UNK N   1      19.185  13.453   3.739  0.00  0.00     0.391 P 
HETATM   20  O   UNK N   1      17.894  13.294   4.585  0.00  0.00    -0.632 OA
BRANCH  19  21
HETATM   21  O   UNK N   1      18.866  14.439   2.347  0.00  0.00    -0.307 OA
HETATM   22  H   UNK N   1      19.013  14.233   1.410  0.00  0.00     0.222 HD
ENDBRANCH  19  21
BRANCH  19  23
HETATM   23  O   UNK N   1      18.099  12.641   2.656  0.00  0.00    -0.307 OA
HETATM   24  H   UNK N   1      17.231  13.008   2.430  0.00  0.00     0.222 HD
ENDBRANCH  19  23
ENDBRANCH  18  19
ENDBRANCH   2  18
BRANCH   6  25
HETATM   25  O   UNK N   1      21.746  16.070   7.485  0.00  0.00    -0.390 OA
HETATM   26  H   UNK N   1      22.280  15.262   7.462  0.00  0.00     0.210 HD
ENDBRANCH   6  25
BRANCH   5  27
HETATM   27  O   UNK N   1      22.308  15.171   4.799  0.00  0.00    -0.390 OA
HETATM   28  H   UNK N   1      23.015  14.662   4.370  0.00  0.00     0.210 HD
ENDBRANCH   5  27
TORSDOF 12
ENDMDL
MODEL 3
REMARK VINA RESULT:      -5.1     10.249     11.419
REMARK  12 active torsions:
REMARK  status: ('A' for Active; 'I' for Inactive)
REMARK    1  A    between atoms: P_1  and  O_3 
REMARK    2  A    between atoms: P_1  and  O_9 
REMARK    3  A    between atoms: P_1  and  O_10 
REMARK    4  A    between atoms: P_2  and  O_4 
REMARK    5  A    between atoms: P_2  and  O_11 
REMARK    6  A    between atoms: P_2  and  O_12 
REMARK    7  A    between atoms: C_15  and  O_3 
REMARK    8  A    between atoms: C_16  and  O_4 
REMARK    9  A    between atoms: C_17  and  O_5 
REMARK   10  A    between atoms: C_18  and  O_6 
REMARK   11  A    between atoms: C_19  and  O_7 
REMARK   12  A    between atoms: C_20  and  O_8 
ROOT
HETATM    1  C   UNK N   1      29.674  16.889   7.068  0.00  0.00     0.196 C 
HETATM    2  C   UNK N   1      32.142  17.281   7.587  0.00  0.00     0.196 C 
HETATM    3  C   UNK N   1      30.686  17.673   7.913  0.00  0.00     0.182 C 
HETATM    4  C   UNK N   1      29.908  17.092   5.557  0.00  0.00     0.181 C 
HETATM    5  C   UNK N   1      32.384  16.985   6.092  0.00  0.00     0.181 C 
HETATM    6  C   UNK N   1      31.308  17.638   5.231  0.00  0.00     0.180 C 
ENDROOT
BRANCH   1   7
HETATM    7  O   UNK N   1      28.364  17.275   7.384  0.00  0.00    -0.286 OA
BRANCH   7   8
HETATM    8  P   UNK N   1      28.151  18.866   6.706  0.00  0.00     0.391 P 
HETATM    9  O   UNK N   1      28.010  19.135   8.229  0.00  0.00    -0.632 OA
BRANCH   8  10
HETATM   10  O   UNK N   1      26.619  19.673   6.827  0.00  0.00    -0.307 OA
HETATM   11  H   UNK N   1      25.803  19.186   7.020  0.00  0.00     0.222 HD
ENDBRANCH   8  10
BRANCH   8  12
HETATM   12  O   UNK N   1      26.868  17.827   6.171  0.00  0.00    -0.307 OA
HETATM   13  H   UNK N   1      26.163  17.484   6.742  0.00  0.00     0.222 HD
ENDBRANCH   8  12
ENDBRANCH   7   8
ENDBRANCH   1   7
BRANCH   3  14
HETATM   14  O   UNK N   1      30.442  17.491   9.277  0.00  0.00    -0.390 OA
HETATM   15  H   UNK N   1      29.975  18.140   9.825  0.00  0.00     0.210 HD
ENDBRANCH   3  14
BRANCH   4  16
HETATM   16  O   UNK N   1      29.675  15.880   4.902  0.00  0.00    -0.390 OA
HETATM   17  H   UNK N   1      29.344  15.602   4.033  0.00  0.00     0.210 HD
ENDBRANCH   4  16
BRANCH   2  18
HETATM   18  O   UNK N   1      32.997  18.307   8.011  0.00  0.00    -0.286 OA
BRANCH  18  19
HETATM   19  P   UNK N   1      34.550  17.556   8.260  0.00  0.00     0.391 P 
HETATM   20  O   UNK N   1      34.888  19.068   8.356  0.00  0.00    -0.632 OA
BRANCH  19  21
HETATM   21  O   UNK N   1      33.477  17.104   9.547  0.00  0.00    -0.307 OA
HETATM   22  H   UNK N   1      32.622  17.495   9.791  0.00  0.00     0.222 HD
ENDBRANCH  19  21
BRANCH  19  23
HETATM   23  O   UNK N   1      35.352  17.687   9.793  0.00  0.00    -0.307 OA
HETATM   24  H   UNK N   1      35.344  16.963  10.439  0.00  0.00     0.222 HD
ENDBRANCH  19  23
ENDBRANCH  18  19
ENDBRANCH   2  18
BRANCH   6  25
HETATM   25  O   UNK N   1      31.596  17.509   3.870  0.00  0.00    -0.390 OA
HETATM   26  H   UNK N   1      32.483  17.713   3.535  0.00  0.00     0.210 HD
ENDBRANCH   6  25
BRANCH   5  27
HETATM   27  O   UNK N   1      32.409  15.605   5.882  0.00  0.00    -0.390 OA
HETATM   28  H   UNK N   1      32.095  14.692   5.986  0.00  0.00     0.210 HD
ENDBRANCH   5  27
TORSDOF 12
ENDMDL
MODEL 4
REMARK VINA RESULT:      -5.1     11.108     12.407
REMARK  12 active torsions:
REMARK  status: ('A' for Active; 'I' for Inactive)
REMARK    1  A    between atoms: P_1  and  O_3 
REMARK    2  A    between atoms: P_1  and  O_9 
REMARK    3  A    between atoms: P_1  and  O_10 
REMARK    4  A    between atoms: P_2  and  O_4 
REMARK    5  A    between atoms: P_2  and  O_11 
REMARK    6  A    between atoms: P_2  and  O_12 
REMARK    7  A    between atoms: C_15  and  O_3 
REMARK    8  A    between atoms: C_16  and  O_4 
REMARK    9  A    between atoms: C_17  and  O_5 
REMARK   10  A    between atoms: C_18  and  O_6 
REMARK   11  A    between atoms: C_19  and  O_7 
REMARK   12  A    between atoms: C_20  and  O_8 
ROOT
HETATM    1  C   UNK N   1      32.668  16.454   6.006  0.00  0.00     0.196 C 
HETATM    2  C   UNK N   1      31.265  17.285   7.969  0.00  0.00     0.196 C 
HETATM    3  C   UNK N   1      31.354  17.116   6.438  0.00  0.00     0.182 C 
HETATM    4  C   UNK N   1      33.898  17.254   6.482  0.00  0.00     0.181 C 
HETATM    5  C   UNK N   1      32.612  17.637   8.633  0.00  0.00     0.181 C 
HETATM    6  C   UNK N   1      33.574  18.241   7.616  0.00  0.00     0.180 C 
ENDROOT
BRANCH   1   7
HETATM    7  O   UNK N   1      32.719  16.324   4.611  0.00  0.00    -0.286 OA
BRANCH   7   8
HETATM    8  P   UNK N   1      32.783  14.613   4.285  0.00  0.00     0.391 P 
HETATM    9  O   UNK N   1      34.118  15.115   3.670  0.00  0.00    -0.632 OA
BRANCH   8  10
HETATM   10  O   UNK N   1      32.713  14.027   2.653  0.00  0.00    -0.307 OA
HETATM   11  H   UNK N   1      32.058  13.367   2.379  0.00  0.00     0.222 HD
ENDBRANCH   8  10
BRANCH   8  12
HETATM   12  O   UNK N   1      31.442  15.319   3.439  0.00  0.00    -0.307 OA
HETATM   13  H   UNK N   1      31.128  15.032   2.567  0.00  0.00     0.222 HD
ENDBRANCH   8  12
ENDBRANCH   7   8
ENDBRANCH   1   7
BRANCH   3  14
HETATM   14  O   UNK N   1      30.255  16.386   5.978  0.00  0.00    -0.390 OA
HETATM   15  H   UNK N   1      29.347  16.544   6.281  0.00  0.00     0.210 HD
ENDBRANCH   3  14
BRANCH   4  16
HETATM   16  O   UNK N   1      34.895  16.354   6.866  0.00  0.00    -0.390 OA
HETATM   17  H   UNK N   1      35.529  15.773   6.418  0.00  0.00     0.210 HD
ENDBRANCH   4  16
BRANCH   2  18
HETATM   18  O   UNK N   1      30.318  18.274   8.266  0.00  0.00    -0.286 OA
BRANCH  18  19
HETATM   19  P   UNK N   1      29.094  17.486   9.223  0.00  0.00     0.391 P 
HETATM   20  O   UNK N   1      29.443  18.730  10.082  0.00  0.00    -0.632 OA
BRANCH  19  21
HETATM   21  O   UNK N   1      28.411  17.982   7.707  0.00  0.00    -0.307 OA
HETATM   22  H   UNK N   1      28.108  17.431   6.968  0.00  0.00     0.222 HD
ENDBRANCH  19  21
BRANCH  19  23
HETATM   23  O   UNK N   1      27.552  18.241   9.471  0.00  0.00    -0.307 OA
HETATM   24  H   UNK N   1      26.757  17.953   8.996  0.00  0.00     0.222 HD
ENDBRANCH  19  23
ENDBRANCH  18  19
ENDBRANCH   2  18
BRANCH   6  25
HETATM   25  O   UNK N   1      34.741  18.705   8.229  0.00  0.00    -0.390 OA
HETATM   26  H   UNK N   1      35.259  18.120   8.801  0.00  0.00     0.210 HD
ENDBRANCH   6  25
BRANCH   5  27
HETATM   27  O   UNK N   1      33.167  16.494   9.212  0.00  0.00    -0.390 OA
HETATM   28  H   UNK N   1      33.159  15.689   9.754  0.00  0.00     0.210 HD
ENDBRANCH   5  27
TORSDOF 12
ENDMDL
MODEL 5
REMARK VINA RESULT:      -5.1     15.050     17.485
REMARK  12 active torsions:
REMARK  status: ('A' for Active; 'I' for Inactive)
REMARK    1  A    between atoms: P_1  and  O_3 
REMARK    2  A    between atoms: P_1  and  O_9 
REMARK    3  A    between atoms: P_1  and  O_10 
REMARK    4  A    between atoms: P_2  and  O_4 
REMARK    5  A    between atoms: P_2  and  O_11 
REMARK    6  A    between atoms: P_2  and  O_12 
REMARK    7  A    between atoms: C_15  and  O_3 
REMARK    8  A    between atoms: C_16  and  O_4 
REMARK    9  A    between atoms: C_17  and  O_5 
REMARK   10  A    between atoms: C_18  and  O_6 
REMARK   11  A    between atoms: C_19  and  O_7 
REMARK   12  A    between atoms: C_20  and  O_8 
ROOT
HETATM    1  C   UNK N   1      35.245  13.634  11.762  0.00  0.00     0.196 C 
HETATM    2  C   UNK N   1      35.089  15.435   9.960  0.00  0.00     0.196 C 
HETATM    3  C   UNK N   1      34.348  14.318  10.723  0.00  0.00     0.182 C 
HETATM    4  C   UNK N   1      36.511  13.030  11.119  0.00  0.00     0.181 C 
HETATM    5  C   UNK N   1      36.570  15.111   9.671  0.00  0.00     0.181 C 
HETATM    6  C   UNK N   1      36.814  13.607   9.726  0.00  0.00     0.180 C 
ENDROOT
BRANCH   1   7
HETATM    7  O   UNK N   1      34.543  12.621  12.429  0.00  0.00    -0.286 OA
BRANCH   7   8
HETATM    8  P   UNK N   1      35.310  12.442  13.984  0.00  0.00     0.391 P 
HETATM    9  O   UNK N   1      33.933  11.763  14.217  0.00  0.00    -0.632 OA
BRANCH   8  10
HETATM   10  O   UNK N   1      34.687  13.276  15.372  0.00  0.00    -0.307 OA
HETATM   11  H   UNK N   1      33.821  13.056  15.749  0.00  0.00     0.222 HD
ENDBRANCH   8  10
BRANCH   8  12
HETATM   12  O   UNK N   1      35.085  14.127  13.634  0.00  0.00    -0.307 OA
HETATM   13  H   UNK N   1      35.041  14.503  12.741  0.00  0.00     0.222 HD
ENDBRANCH   8  12
ENDBRANCH   7   8
ENDBRANCH   1   7
BRANCH   3  14
HETATM   14  O   UNK N   1      33.199  14.839  11.325  0.00  0.00    -0.390 OA
HETATM   15  H   UNK N   1      32.324  14.429  11.244  0.00  0.00     0.210 HD
ENDBRANCH   3  14
BRANCH   4  16
HETATM   16  O   UNK N   1      37.587  13.220  11.988  0.00  0.00    -0.390 OA
HETATM   17  H   UNK N   1      38.508  12.919  12.045  0.00  0.00     0.210 HD
ENDBRANCH   4  16
BRANCH   2  18
HETATM   18  O   UNK N   1      34.417  15.692   8.758  0.00  0.00    -0.286 OA
BRANCH  18  19
HETATM   19  P   UNK N   1      34.391  17.426   8.591  0.00  0.00     0.391 P 
HETATM   20  O   UNK N   1      34.675  16.953   7.140  0.00  0.00    -0.632 OA
BRANCH  19  21
HETATM   21  O   UNK N   1      32.828  16.872   9.103  0.00  0.00    -0.307 OA
HETATM   22  H   UNK N   1      32.266  16.189   8.703  0.00  0.00     0.222 HD
ENDBRANCH  19  21
BRANCH  19  23
HETATM   23  O   UNK N   1      33.141  18.201   7.670  0.00  0.00    -0.307 OA
HETATM   24  H   UNK N   1      32.365  18.600   8.093  0.00  0.00     0.222 HD
ENDBRANCH  19  23
ENDBRANCH  18  19
ENDBRANCH   2  18
BRANCH   6  25
HETATM   25  O   UNK N   1      38.110  13.284   9.318  0.00  0.00    -0.390 OA
HETATM   26  H   UNK N   1      38.644  12.659   9.832  0.00  0.00     0.210 HD
ENDBRANCH   6  25
BRANCH   5  27
HETATM   27  O   UNK N   1      37.387  15.773  10.590  0.00  0.00    -0.390 OA
HETATM   28  H   UNK N   1      37.959  16.492  10.902  0.00  0.00     0.210 HD
ENDBRANCH   5  27
TORSDOF 12
ENDMDL
MODEL 6
REMARK VINA RESULT:      -5.0      2.544      3.725
REMARK  12 active torsions:
REMARK  status: ('A' for Active; 'I' for Inactive)
REMARK    1  A    between atoms: P_1  and  O_3 
REMARK    2  A    between atoms: P_1  and  O_9 
REMARK    3  A    between atoms: P_1  and  O_10 
REMARK    4  A    between atoms: P_2  and  O_4 
REMARK    5  A    between atoms: P_2  and  O_11 
REMARK    6  A    between atoms: P_2  and  O_12 
REMARK    7  A    between atoms: C_15  and  O_3 
REMARK    8  A    between atoms: C_16  and  O_4 
REMARK    9  A    between atoms: C_17  and  O_5 
REMARK   10  A    between atoms: C_18  and  O_6 
REMARK   11  A    between atoms: C_19  and  O_7 
REMARK   12  A    between atoms: C_20  and  O_8 
ROOT
HETATM    1  C   UNK N   1      20.695  18.139   3.639  0.00  0.00     0.196 C 
HETATM    2  C   UNK N   1      21.531  15.822   2.969  0.00  0.00     0.196 C 
HETATM    3  C   UNK N   1      21.919  17.233   3.457  0.00  0.00     0.182 C 
HETATM    4  C   UNK N   1      19.885  18.278   2.334  0.00  0.00     0.181 C 
HETATM    5  C   UNK N   1      20.354  15.814   1.970  0.00  0.00     0.181 C 
HETATM    6  C   UNK N   1      20.200  17.178   1.307  0.00  0.00     0.180 C 
ENDROOT
BRANCH   1   7
HETATM    7  O   UNK N   1      21.085  19.413   4.074  0.00  0.00    -0.286 OA
BRANCH   7   8
HETATM    8  P   UNK N   1      21.649  20.257   2.658  0.00  0.00     0.391 P 
HETATM    9  O   UNK N   1      22.945  20.135   3.505  0.00  0.00    -0.632 OA
BRANCH   8  10
HETATM   10  O   UNK N   1      22.202  21.898   2.776  0.00  0.00    -0.307 OA
HETATM   11  H   UNK N   1      21.807  22.522   3.404  0.00  0.00     0.222 HD
ENDBRANCH   8  10
BRANCH   8  12
HETATM   12  O   UNK N   1      20.487  21.236   3.498  0.00  0.00    -0.307 OA
HETATM   13  H   UNK N   1      19.905  20.915   4.204  0.00  0.00     0.222 HD
ENDBRANCH   8  12
ENDBRANCH   7   8
ENDBRANCH   1   7
BRANCH   3  14
HETATM   14  O   UNK N   1      22.649  17.138   4.645  0.00  0.00    -0.390 OA
HETATM   15  H   UNK N   1      23.069  17.899   5.074  0.00  0.00     0.210 HD
ENDBRANCH   3  14
BRANCH   4  16
HETATM   16  O   UNK N   1      18.525  18.297   2.652  0.00  0.00    -0.390 OA
HETATM   17  H   UNK N   1      17.699  18.532   2.200  0.00  0.00     0.210 HD
ENDBRANCH   4  16
BRANCH   2  18
HETATM   18  O   UNK N   1      22.651  15.214   2.387  0.00  0.00    -0.286 OA
BRANCH  18  19
HETATM   19  P   UNK N   1      22.441  13.502   2.629  0.00  0.00     0.391 P 
HETATM   20  O   UNK N   1      23.332  13.555   1.359  0.00  0.00    -0.632 OA
BRANCH  19  21
HETATM   21  O   UNK N   1      23.293  14.176   3.982  0.00  0.00    -0.307 OA
HETATM   22  H   UNK N   1      24.042  14.793   3.982  0.00  0.00     0.222 HD
ENDBRANCH  19  21
BRANCH  19  23
HETATM   23  O   UNK N   1      23.795  12.503   3.053  0.00  0.00    -0.307 OA
HETATM   24  H   UNK N   1      23.949  12.207   3.963  0.00  0.00     0.222 HD
ENDBRANCH  19  23
ENDBRANCH  18  19
ENDBRANCH   2  18
BRANCH   6  25
HETATM   25  O   UNK N   1      19.241  17.146   0.291  0.00  0.00    -0.390 OA
HETATM   26  H   UNK N   1      19.023  16.311  -0.150  0.00  0.00     0.210 HD
ENDBRANCH   6  25
BRANCH   5  27
HETATM   27  O   UNK N   1      19.177  15.453   2.629  0.00  0.00    -0.390 OA
HETATM   28  H   UNK N   1      18.381  14.920   2.782  0.00  0.00     0.210 HD
ENDBRANCH   5  27
TORSDOF 12
ENDMDL
MODEL 7
REMARK VINA RESULT:      -5.0     12.539     13.701
REMARK  12 active torsions:
REMARK  status: ('A' for Active; 'I' for Inactive)
REMARK    1  A    between atoms: P_1  and  O_3 
REMARK    2  A    between atoms: P_1  and  O_9 
REMARK    3  A    between atoms: P_1  and  O_10 
REMARK    4  A    between atoms: P_2  and  O_4 
REMARK    5  A    between atoms: P_2  and  O_11 
REMARK    6  A    between atoms: P_2  and  O_12 
REMARK    7  A    between atoms: C_15  and  O_3 
REMARK    8  A    between atoms: C_16  and  O_4 
REMARK    9  A    between atoms: C_17  and  O_5 
REMARK   10  A    between atoms: C_18  and  O_6 
REMARK   11  A    between atoms: C_19  and  O_7 
REMARK   12  A    between atoms: C_20  and  O_8 
ROOT
HETATM    1  C   UNK N   1      26.820  26.158  -4.410  0.00  0.00     0.196 C 
HETATM    2  C   UNK N   1      26.210  24.195  -5.922  0.00  0.00     0.196 C 
HETATM    3  C   UNK N   1      25.697  25.243  -4.913  0.00  0.00     0.182 C 
HETATM    4  C   UNK N   1      27.960  25.358  -3.747  0.00  0.00     0.181 C 
HETATM    5  C   UNK N   1      27.617  23.653  -5.592  0.00  0.00     0.181 C 
HETATM    6  C   UNK N   1      27.946  23.866  -4.119  0.00  0.00     0.180 C 
ENDROOT
BRANCH   1   7
HETATM    7  O   UNK N   1      26.322  27.091  -3.491  0.00  0.00    -0.286 OA
BRANCH   7   8
HETATM    8  P   UNK N   1      26.872  28.652  -4.036  0.00  0.00     0.391 P 
HETATM    9  O   UNK N   1      27.149  28.721  -2.510  0.00  0.00    -0.632 OA
BRANCH   8  10
HETATM   10  O   UNK N   1      26.042  30.096  -3.546  0.00  0.00    -0.307 OA
HETATM   11  H   UNK N   1      26.521  30.920  -3.369  0.00  0.00     0.222 HD
ENDBRANCH   8  10
BRANCH   8  12
HETATM   12  O   UNK N   1      25.166  28.503  -4.318  0.00  0.00    -0.307 OA
HETATM   13  H   UNK N   1      24.665  29.033  -4.958  0.00  0.00     0.222 HD
ENDBRANCH   8  12
ENDBRANCH   7   8
ENDBRANCH   1   7
BRANCH   3  14
HETATM   14  O   UNK N   1      24.667  25.990  -5.490  0.00  0.00    -0.390 OA
HETATM   15  H   UNK N   1      24.099  26.592  -4.985  0.00  0.00     0.210 HD
ENDBRANCH   3  14
BRANCH   4  16
HETATM   16  O   UNK N   1      29.179  25.950  -4.088  0.00  0.00    -0.390 OA
HETATM   17  H   UNK N   1      29.712  26.695  -3.769  0.00  0.00     0.210 HD
ENDBRANCH   4  16
BRANCH   2  18
HETATM   18  O   UNK N   1      25.297  23.134  -5.983  0.00  0.00    -0.286 OA
BRANCH  18  19
HETATM   19  P   UNK N   1      25.655  22.284  -7.461  0.00  0.00     0.391 P 
HETATM   20  O   UNK N   1      24.539  21.408  -6.833  0.00  0.00    -0.632 OA
BRANCH  19  21
HETATM   21  O   UNK N   1      25.034  23.860  -7.837  0.00  0.00    -0.307 OA
HETATM   22  H   UNK N   1      24.270  24.096  -8.387  0.00  0.00     0.222 HD
ENDBRANCH  19  21
BRANCH  19  23
HETATM   23  O   UNK N   1      24.471  22.183  -8.726  0.00  0.00    -0.307 OA
HETATM   24  H   UNK N   1      24.618  21.654  -9.525  0.00  0.00     0.222 HD
ENDBRANCH  19  23
ENDBRANCH  18  19
ENDBRANCH   2  18
BRANCH   6  25
HETATM   25  O   UNK N   1      29.149  23.247  -3.769  0.00  0.00    -0.390 OA
HETATM   26  H   UNK N   1      29.988  23.573  -4.127  0.00  0.00     0.210 HD
ENDBRANCH   6  25
BRANCH   5  27
HETATM   27  O   UNK N   1      28.566  24.281  -6.401  0.00  0.00    -0.390 OA
HETATM   28  H   UNK N   1      29.222  24.329  -7.115  0.00  0.00     0.210 HD
ENDBRANCH   5  27
TORSDOF 12
ENDMDL
MODEL 8
REMARK VINA RESULT:      -4.9     14.075     16.283
REMARK  12 active torsions:
REMARK  status: ('A' for Active; 'I' for Inactive)
REMARK    1  A    between atoms: P_1  and  O_3 
REMARK    2  A    between atoms: P_1  and  O_9 
REMARK    3  A    between atoms: P_1  and  O_10 
REMARK    4  A    between atoms: P_2  and  O_4 
REMARK    5  A    between atoms: P_2  and  O_11 
REMARK    6  A    between atoms: P_2  and  O_12 
REMARK    7  A    between atoms: C_15  and  O_3 
REMARK    8  A    between atoms: C_16  and  O_4 
REMARK    9  A    between atoms: C_17  and  O_5 
REMARK   10  A    between atoms: C_18  and  O_6 
REMARK   11  A    between atoms: C_19  and  O_7 
REMARK   12  A    between atoms: C_20  and  O_8 
ROOT
HETATM    1  C   UNK N   1      34.829  14.489  10.671  0.00  0.00     0.196 C 
HETATM    2  C   UNK N   1      34.426  15.762   8.496  0.00  0.00     0.196 C 
HETATM    3  C   UNK N   1      34.261  15.761  10.030  0.00  0.00     0.182 C 
HETATM    4  C   UNK N   1      34.163  13.216  10.107  0.00  0.00     0.181 C 
HETATM    5  C   UNK N   1      34.240  14.372   7.852  0.00  0.00     0.181 C 
HETATM    6  C   UNK N   1      33.441  13.454   8.771  0.00  0.00     0.180 C 
ENDROOT
BRANCH   1   7
HETATM    7  O   UNK N   1      34.655  14.517  12.061  0.00  0.00    -0.286 OA
BRANCH   7   8
HETATM    8  P   UNK N   1      36.046  13.717  12.741  0.00  0.00     0.391 P 
HETATM    9  O   UNK N   1      34.966  13.479  13.830  0.00  0.00    -0.632 OA
BRANCH   8  10
HETATM   10  O   UNK N   1      36.794  14.329  14.182  0.00  0.00    -0.307 OA
HETATM   11  H   UNK N   1      37.514  14.977  14.144  0.00  0.00     0.222 HD
ENDBRANCH   8  10
BRANCH   8  12
HETATM   12  O   UNK N   1      36.365  15.417  12.590  0.00  0.00    -0.307 OA
HETATM   13  H   UNK N   1      37.222  15.834  12.769  0.00  0.00     0.222 HD
ENDBRANCH   8  12
ENDBRANCH   7   8
ENDBRANCH   1   7
BRANCH   3  14
HETATM   14  O   UNK N   1      34.863  16.901  10.571  0.00  0.00    -0.390 OA
HETATM   15  H   UNK N   1      34.471  17.419  11.290  0.00  0.00     0.210 HD
ENDBRANCH   3  14
BRANCH   4  16
HETATM   16  O   UNK N   1      35.136  12.221   9.984  0.00  0.00    -0.390 OA
HETATM   17  H   UNK N   1      35.388  11.420  10.469  0.00  0.00     0.210 HD
ENDBRANCH   4  16
BRANCH   2  18
HETATM   18  O   UNK N   1      33.514  16.669   7.939  0.00  0.00    -0.286 OA
BRANCH  18  19
HETATM   19  P   UNK N   1      33.798  16.630   6.221  0.00  0.00     0.391 P 
HETATM   20  O   UNK N   1      32.260  16.822   6.303  0.00  0.00    -0.632 OA
BRANCH  19  21
HETATM   21  O   UNK N   1      34.606  18.002   6.908  0.00  0.00    -0.307 OA
HETATM   22  H   UNK N   1      34.433  18.946   6.761  0.00  0.00     0.222 HD
ENDBRANCH  19  21
BRANCH  19  23
HETATM   23  O   UNK N   1      33.522  18.044   5.253  0.00  0.00    -0.307 OA
HETATM   24  H   UNK N   1      32.639  18.281   4.932  0.00  0.00     0.222 HD
ENDBRANCH  19  23
ENDBRANCH  18  19
ENDBRANCH   2  18
BRANCH   6  25
HETATM   25  O   UNK N   1      33.132  12.245   8.141  0.00  0.00    -0.390 OA
HETATM   26  H   UNK N   1      33.835  11.704   7.751  0.00  0.00     0.210 HD
ENDBRANCH   6  25
BRANCH   5  27
HETATM   27  O   UNK N   1      35.487  13.814   7.565  0.00  0.00    -0.390 OA
HETATM   28  H   UNK N   1      36.131  13.327   7.027  0.00  0.00     0.210 HD
ENDBRANCH   5  27
TORSDOF 12
ENDMDL
MODEL 9
REMARK VINA RESULT:      -4.9     12.364     14.685
REMARK  12 active torsions:
REMARK  status: ('A' for Active; 'I' for Inactive)
REMARK    1  A    between atoms: P_1  and  O_3 
REMARK    2  A    between atoms: P_1  and  O_9 
REMARK    3  A    between atoms: P_1  and  O_10 
REMARK    4  A    between atoms: P_2  and  O_4 
REMARK    5  A    between atoms: P_2  and  O_11 
REMARK    6  A    between atoms: P_2  and  O_12 
REMARK    7  A    between atoms: C_15  and  O_3 
REMARK    8  A    between atoms: C_16  and  O_4 
REMARK    9  A    between atoms: C_17  and  O_5 
REMARK   10  A    between atoms: C_18  and  O_6 
REMARK   11  A    between atoms: C_19  and  O_7 
REMARK   12  A    between atoms: C_20  and  O_8 
ROOT
HETATM    1  C   UNK N   1      33.898  15.458   9.324  0.00  0.00     0.196 C 
HETATM    2  C   UNK N   1      32.222  16.360   7.624  0.00  0.00     0.196 C 
HETATM    3  C   UNK N   1      33.131  15.180   8.025  0.00  0.00     0.182 C 
HETATM    4  C   UNK N   1      34.765  16.730   9.218  0.00  0.00     0.181 C 
HETATM    5  C   UNK N   1      32.831  17.744   7.931  0.00  0.00     0.181 C 
HETATM    6  C   UNK N   1      34.347  17.650   8.059  0.00  0.00     0.180 C 
ENDROOT
BRANCH   1   7
HETATM    7  O   UNK N   1      34.719  14.371   9.654  0.00  0.00    -0.286 OA
BRANCH   7   8
HETATM    8  P   UNK N   1      35.120  14.560  11.339  0.00  0.00     0.391 P 
HETATM    9  O   UNK N   1      35.631  13.124  11.038  0.00  0.00    -0.632 OA
BRANCH   8  10
HETATM   10  O   UNK N   1      34.327  13.596  12.544  0.00  0.00    -0.307 OA
HETATM   11  H   UNK N   1      34.076  12.675  12.372  0.00  0.00     0.222 HD
ENDBRANCH   8  10
BRANCH   8  12
HETATM   12  O   UNK N   1      33.397  14.626  11.138  0.00  0.00    -0.307 OA
HETATM   13  H   UNK N   1      32.915  14.238  10.391  0.00  0.00     0.222 HD
ENDBRANCH   8  12
ENDBRANCH   7   8
ENDBRANCH   1   7
BRANCH   3  14
HETATM   14  O   UNK N   1      32.369  14.014   8.137  0.00  0.00    -0.390 OA
HETATM   15  H   UNK N   1      32.411  13.423   8.905  0.00  0.00     0.210 HD
ENDBRANCH   3  14
BRANCH   4  16
HETATM   16  O   UNK N   1      34.719  17.404  10.440  0.00  0.00    -0.390 OA
HETATM   17  H   UNK N   1      34.759  18.327  10.736  0.00  0.00     0.210 HD
ENDBRANCH   4  16
BRANCH   2  18
HETATM   18  O   UNK N   1      31.925  16.265   6.258  0.00  0.00    -0.286 OA
BRANCH  18  19
HETATM   19  P   UNK N   1      30.252  16.724   6.103  0.00  0.00     0.391 P 
HETATM   20  O   UNK N   1      30.911  17.444   4.896  0.00  0.00    -0.632 OA
BRANCH  19  21
HETATM   21  O   UNK N   1      30.398  15.005   5.922  0.00  0.00    -0.307 OA
HETATM   22  H   UNK N   1      30.285  14.312   6.592  0.00  0.00     0.222 HD
ENDBRANCH  19  21
BRANCH  19  23
HETATM   23  O   UNK N   1      29.312  16.174   4.752  0.00  0.00    -0.307 OA
HETATM   24  H   UNK N   1      29.658  16.190   3.846  0.00  0.00     0.222 HD
ENDBRANCH  19  23
ENDBRANCH  18  19
ENDBRANCH   2  18
BRANCH   6  25
HETATM   25  O   UNK N   1      34.928  18.915   8.185  0.00  0.00    -0.390 OA
HETATM   26  H   UNK N   1      34.980  19.508   7.420  0.00  0.00     0.210 HD
ENDBRANCH   6  25
BRANCH   5  27
HETATM   27  O   UNK N   1      32.271  18.258   9.102  0.00  0.00    -0.390 OA
HETATM   28  H   UNK N   1      31.553  18.595   9.661  0.00  0.00     0.210 HD
ENDBRANCH   5  27
TORSDOF 12
ENDMDL
