MODEL 1
REMARK VINA RESULT:      -3.4      0.000      0.000
REMARK  1 active torsions:
REMARK  status: ('A' for Active; 'I' for Inactive)
REMARK    1  A    between atoms: C_2  and  C_5 
ROOT
HETATM    1 Cl   UNK N   1      22.588  12.447   9.723  0.00  0.00    -0.076 Cl
HETATM    2  C   UNK N   1      22.972  12.097  11.423  0.00  0.00     0.241 C 
HETATM    3 Cl   UNK N   1      21.194  12.067  11.485  0.00  0.00    -0.076 Cl
HETATM    4 Cl   UNK N   1      24.705  12.208  10.968  0.00  0.00    -0.076 Cl
ENDROOT
BRANCH   2   5
HETATM    5  C   UNK N   1      23.013  11.789  12.906  0.00  0.00     0.290 C 
HETATM    6  O   UNK N   1      23.900  12.176  13.652  0.00  0.00    -0.302 OA
ENDBRANCH   2   5
TORSDOF 1
ENDMDL
MODEL 2
REMARK VINA RESULT:      -3.4      0.265      2.062
REMARK  1 active torsions:
REMARK  status: ('A' for Active; 'I' for Inactive)
REMARK    1  A    between atoms: C_2  and  C_5 
ROOT
HETATM    1 Cl   UNK N   1      22.831  12.512   9.870  0.00  0.00    -0.076 Cl
HETATM    2  C   UNK N   1      22.806  12.073  11.592  0.00  0.00     0.241 C 
HETATM    3 Cl   UNK N   1      24.559  12.071  11.288  0.00  0.00    -0.076 Cl
HETATM    4 Cl   UNK N   1      21.016  12.177  11.507  0.00  0.00    -0.076 Cl
ENDROOT
BRANCH   2   5
HETATM    5  C   UNK N   1      23.071  11.692  13.034  0.00  0.00     0.290 C 
HETATM    6  O   UNK N   1      23.773  12.350  13.789  0.00  0.00    -0.302 OA
ENDBRANCH   2   5
TORSDOF 1
ENDMDL
MODEL 3
REMARK VINA RESULT:      -3.2      1.668      2.294
REMARK  1 active torsions:
REMARK  status: ('A' for Active; 'I' for Inactive)
REMARK    1  A    between atoms: C_2  and  C_5 
ROOT
HETATM    1 Cl   UNK N   1      20.835  12.139  11.577  0.00  0.00    -0.076 Cl
HETATM    2  C   UNK N   1      22.524  12.162  11.025  0.00  0.00     0.241 C 
HETATM    3 Cl   UNK N   1      22.758  11.811  12.754  0.00  0.00    -0.076 Cl
HETATM    4 Cl   UNK N   1      21.895  12.516   9.382  0.00  0.00    -0.076 Cl
ENDROOT
BRANCH   2   5
HETATM    5  C   UNK N   1      24.026  12.124  10.830  0.00  0.00     0.290 C 
HETATM    6  O   UNK N   1      24.823  11.967  11.743  0.00  0.00    -0.302 OA
ENDBRANCH   2   5
TORSDOF 1
ENDMDL
MODEL 4
REMARK VINA RESULT:      -3.2      3.023      3.855
REMARK  1 active torsions:
REMARK  status: ('A' for Active; 'I' for Inactive)
REMARK    1  A    between atoms: C_2  and  C_5 
ROOT
HETATM    1 Cl   UNK N   1      22.837  11.830  11.313  0.00  0.00    -0.076 Cl
HETATM    2  C   UNK N   1      21.595  12.860  10.568  0.00  0.00     0.241 C 
HETATM    3 Cl   UNK N   1      23.022  13.348   9.624  0.00  0.00    -0.076 Cl
HETATM    4 Cl   UNK N   1      20.419  12.123  11.707  0.00  0.00    -0.076 Cl
ENDROOT
BRANCH   2   5
HETATM    5  C   UNK N   1      20.753  13.832   9.769  0.00  0.00     0.290 C 
HETATM    6  O   UNK N   1      19.534  13.895   9.847  0.00  0.00    -0.302 OA
ENDBRANCH   2   5
TORSDOF 1
ENDMDL
MODEL 5
REMARK VINA RESULT:      -3.2      2.449      2.847
REMARK  1 active torsions:
REMARK  status: ('A' for Active; 'I' for Inactive)
REMARK    1  A    between atoms: C_2  and  C_5 
ROOT
HETATM    1 Cl   UNK N   1      22.997  11.872  12.769  0.00  0.00    -0.076 Cl
HETATM    2  C   UNK N   1      22.681  12.169  11.046  0.00  0.00     0.241 C 
HETATM    3 Cl   UNK N   1      21.015  12.078  11.665  0.00  0.00    -0.076 Cl
HETATM    4 Cl   UNK N   1      24.460  12.194  10.808  0.00  0.00    -0.076 Cl
ENDROOT
BRANCH   2   5
HETATM    5  C   UNK N   1      22.134  12.411   9.654  0.00  0.00     0.290 C 
HETATM    6  O   UNK N   1      20.966  12.690   9.425  0.00  0.00    -0.302 OA
ENDBRANCH   2   5
TORSDOF 1
ENDMDL
MODEL 6
REMARK VINA RESULT:      -3.1     21.114     21.584
REMARK  1 active torsions:
REMARK  status: ('A' for Active; 'I' for Inactive)
REMARK    1  A    between atoms: C_2  and  C_5 
ROOT
HETATM    1 Cl   UNK N   1      24.634  27.172  -5.687  0.00  0.00    -0.076 Cl
HETATM    2  C   UNK N   1      25.755  26.483  -4.492  0.00  0.00     0.241 C 
HETATM    3 Cl   UNK N   1      25.591  25.106  -5.607  0.00  0.00    -0.076 Cl
HETATM    4 Cl   UNK N   1      25.665  28.053  -3.625  0.00  0.00    -0.076 Cl
ENDROOT
BRANCH   2   5
HETATM    5  C   UNK N   1      26.699  25.661  -3.639  0.00  0.00     0.290 C 
HETATM    6  O   UNK N   1      26.404  24.577  -3.156  0.00  0.00    -0.302 OA
ENDBRANCH   2   5
TORSDOF 1
ENDMDL
MODEL 7
REMARK VINA RESULT:      -3.1     12.261     12.678
REMARK  1 active torsions:
REMARK  status: ('A' for Active; 'I' for Inactive)
REMARK    1  A    between atoms: C_2  and  C_5 
ROOT
HETATM    1 Cl   UNK N   1      31.780  17.275   6.486  0.00  0.00    -0.076 Cl
HETATM    2  C   UNK N   1      33.297  17.624   7.342  0.00  0.00     0.241 C 
HETATM    3 Cl   UNK N   1      32.114  18.145   8.565  0.00  0.00    -0.076 Cl
HETATM    4 Cl   UNK N   1      34.160  17.011   5.892  0.00  0.00    -0.076 Cl
ENDROOT
BRANCH   2   5
HETATM    5  C   UNK N   1      34.418  18.012   8.284  0.00  0.00     0.290 C 
HETATM    6  O   UNK N   1      34.953  19.111   8.282  0.00  0.00    -0.302 OA
ENDBRANCH   2   5
TORSDOF 1
ENDMDL
MODEL 8
REMARK VINA RESULT:      -3.1     20.981     21.648
REMARK  1 active torsions:
REMARK  status: ('A' for Active; 'I' for Inactive)
REMARK    1  A    between atoms: C_2  and  C_5 
ROOT
HETATM    1 Cl   UNK N   1      25.641  24.788  -5.711  0.00  0.00    -0.076 Cl
HETATM    2  C   UNK N   1      25.857  26.087  -4.519  0.00  0.00     0.241 C 
HETATM    3 Cl   UNK N   1      26.807  24.792  -3.753  0.00  0.00    -0.076 Cl
HETATM    4 Cl   UNK N   1      24.834  27.115  -5.577  0.00  0.00    -0.076 Cl
ENDROOT
BRANCH   2   5
HETATM    5  C   UNK N   1      26.199  27.002  -3.360  0.00  0.00     0.290 C 
HETATM    6  O   UNK N   1      25.467  27.899  -2.968  0.00  0.00    -0.302 OA
ENDBRANCH   2   5
TORSDOF 1
ENDMDL
MODEL 9
REMARK VINA RESULT:      -3.0     12.288     12.860
REMARK  1 active torsions:
REMARK  status: ('A' for Active; 'I' for Inactive)
REMARK    1  A    between atoms: C_2  and  C_5 
ROOT
HETATM    1 Cl   UNK N   1      33.273  15.657   9.257  0.00  0.00    -0.076 Cl
HETATM    2  C   UNK N   1      34.033  17.180   8.746  0.00  0.00     0.241 C 
HETATM    3 Cl   UNK N   1      32.731  17.054   7.540  0.00  0.00    -0.076 Cl
HETATM    4 Cl   UNK N   1      35.191  16.959  10.100  0.00  0.00    -0.076 Cl
ENDROOT
BRANCH   2   5
HETATM    5  C   UNK N   1      34.478  18.479   8.107  0.00  0.00     0.290 C 
HETATM    6  O   UNK N   1      35.347  19.200   8.574  0.00  0.00    -0.302 OA
ENDBRANCH   2   5
TORSDOF 1
ENDMDL
