MODEL 1
REMARK VINA RESULT:      -5.4      0.000      0.000
REMARK  8 active torsions:
REMARK  status: ('A' for Active; 'I' for Inactive)
REMARK    1  A    between atoms: C_2  and  C_1 
REMARK    2  A    between atoms: C_3  and  C_1 
REMARK    3  A    between atoms: C_1  and  N_4 
REMARK    4  A    between atoms: O_6  and  C_2 
REMARK    5  A    between atoms: C_3  and  O_7 
REMARK    6  A    between atoms: O_11  and  C_3 
REMARK    7  A    between atoms: S_12  and  O_8 
REMARK    8  A    between atoms: S_12  and  O_11 
ROOT
HETATM    1  C   UNK N   1      19.488  18.754   2.660  0.00  0.00     0.310 C 
ENDROOT
BRANCH   1   2
HETATM    2  C   UNK N   1      20.257  17.499   2.214  0.00  0.00     0.230 C 
BRANCH   2   3
HETATM    3  C   UNK N   1      20.198  17.294   0.717  0.00  0.00     0.168 C 
HETATM    4  O   UNK N   1      20.097  16.175   0.243  0.00  0.00    -0.648 OA
BRANCH   3   5
HETATM    5  O   UNK N   1      20.296  18.357  -0.107  0.00  0.00    -0.775 OA
HETATM    6  H   UNK N   1      19.659  18.489  -0.781  0.00  0.00     0.167 HD
ENDBRANCH   3   5
ENDBRANCH   2   3
BRANCH   2   7
HETATM    7  N   UNK N   1      19.719  16.335   2.908  0.00  0.00    -0.414 N 
HETATM    8  H   UNK N   1      18.841  16.408   3.423  0.00  0.00     0.150 HD
HETATM    9  H   UNK N   1      20.220  15.447   2.880  0.00  0.00     0.150 HD
ENDBRANCH   2   7
ENDBRANCH   1   2
BRANCH   1  10
HETATM   10  O   UNK N   1      18.150  18.652   2.260  0.00  0.00    -0.367 OA
HETATM   11  H   UNK N   1      17.917  18.699   1.320  0.00  0.00     0.212 HD
ENDBRANCH   1  10
BRANCH   1  12
HETATM   12  O   UNK N   1      20.080  19.884   2.049  0.00  0.00    -0.228 OA
BRANCH  12  13
HETATM   13  S   UNK N   1      21.642  20.144   2.753  0.00  0.00     0.243 S 
HETATM   14  O   UNK N   1      21.689  20.751   1.342  0.00  0.00    -0.579 OA
HETATM   15  O   UNK N   1      20.660  21.031   3.535  0.00  0.00    -0.579 OA
BRANCH  13  16
HETATM   16  O   UNK N   1      22.324  21.712   2.900  0.00  0.00    -0.273 OA
HETATM   17  H   UNK N   1      22.552  22.295   2.159  0.00  0.00     0.234 HD
ENDBRANCH  13  16
ENDBRANCH  12  13
ENDBRANCH   1  12
TORSDOF 8
ENDMDL
MODEL 2
REMARK VINA RESULT:      -5.0     15.064     16.148
REMARK  8 active torsions:
REMARK  status: ('A' for Active; 'I' for Inactive)
REMARK    1  A    between atoms: C_2  and  C_1 
REMARK    2  A    between atoms: C_3  and  C_1 
REMARK    3  A    between atoms: C_1  and  N_4 
REMARK    4  A    between atoms: O_6  and  C_2 
REMARK    5  A    between atoms: C_3  and  O_7 
REMARK    6  A    between atoms: O_11  and  C_3 
REMARK    7  A    between atoms: S_12  and  O_8 
REMARK    8  A    between atoms: S_12  and  O_11 
ROOT
HETATM    1  C   UNK N   1      33.540  15.880   8.756  0.00  0.00     0.310 C 
ENDROOT
BRANCH   1   2
HETATM    2  C   UNK N   1      32.911  17.059   7.995  0.00  0.00     0.230 C 
BRANCH   2   3
HETATM    3  C   UNK N   1      33.955  17.996   7.429  0.00  0.00     0.168 C 
HETATM    4  O   UNK N   1      34.258  17.953   6.248  0.00  0.00    -0.648 OA
BRANCH   3   5
HETATM    5  O   UNK N   1      34.587  18.864   8.244  0.00  0.00    -0.775 OA
HETATM    6  H   UNK N   1      35.426  18.648   8.600  0.00  0.00     0.167 HD
ENDBRANCH   3   5
ENDBRANCH   2   3
BRANCH   2   7
HETATM    7  N   UNK N   1      32.011  17.781   8.887  0.00  0.00    -0.414 N 
HETATM    8  H   UNK N   1      31.001  17.661   8.799  0.00  0.00     0.150 HD
HETATM    9  H   UNK N   1      32.389  18.406   9.598  0.00  0.00     0.150 HD
ENDBRANCH   2   7
ENDBRANCH   1   2
BRANCH   1  10
HETATM   10  O   UNK N   1      32.947  15.767  10.020  0.00  0.00    -0.367 OA
HETATM   11  H   UNK N   1      32.342  16.455  10.338  0.00  0.00     0.212 HD
ENDBRANCH   1  10
BRANCH   1  12
HETATM   12  O   UNK N   1      34.924  16.127   8.903  0.00  0.00    -0.228 OA
BRANCH  12  13
HETATM   13  S   UNK N   1      35.390  15.739  10.525  0.00  0.00     0.243 S 
HETATM   14  O   UNK N   1      36.383  15.019   9.599  0.00  0.00    -0.579 OA
HETATM   15  O   UNK N   1      35.684  17.236  10.335  0.00  0.00    -0.579 OA
BRANCH  13  16
HETATM   16  O   UNK N   1      36.966  16.065  11.122  0.00  0.00    -0.273 OA
HETATM   17  H   UNK N   1      37.216  16.088  12.059  0.00  0.00     0.234 HD
ENDBRANCH  13  16
ENDBRANCH  12  13
ENDBRANCH   1  12
TORSDOF 8
ENDMDL
MODEL 3
REMARK VINA RESULT:      -4.9     10.371     11.031
REMARK  8 active torsions:
REMARK  status: ('A' for Active; 'I' for Inactive)
REMARK    1  A    between atoms: C_2  and  C_1 
REMARK    2  A    between atoms: C_3  and  C_1 
REMARK    3  A    between atoms: C_1  and  N_4 
REMARK    4  A    between atoms: O_6  and  C_2 
REMARK    5  A    between atoms: C_3  and  O_7 
REMARK    6  A    between atoms: O_11  and  C_3 
REMARK    7  A    between atoms: S_12  and  O_8 
REMARK    8  A    between atoms: S_12  and  O_11 
ROOT
HETATM    1  C   UNK N   1      21.542  12.480  10.967  0.00  0.00     0.310 C 
ENDROOT
BRANCH   1   2
HETATM    2  C   UNK N   1      22.829  11.662  10.771  0.00  0.00     0.230 C 
BRANCH   2   3
HETATM    3  C   UNK N   1      23.881  11.994  11.805  0.00  0.00     0.168 C 
HETATM    4  O   UNK N   1      23.617  11.967  12.996  0.00  0.00    -0.648 OA
BRANCH   3   5
HETATM    5  O   UNK N   1      25.116  12.362  11.409  0.00  0.00    -0.775 OA
HETATM    6  H   UNK N   1      25.559  13.063  11.844  0.00  0.00     0.167 HD
ENDBRANCH   3   5
ENDBRANCH   2   3
BRANCH   2   7
HETATM    7  N   UNK N   1      23.346  11.895   9.427  0.00  0.00    -0.414 N 
HETATM    8  H   UNK N   1      23.544  11.104   8.813  0.00  0.00     0.150 HD
HETATM    9  H   UNK N   1      23.510  12.847   9.101  0.00  0.00     0.150 HD
ENDBRANCH   2   7
ENDBRANCH   1   2
BRANCH   1  10
HETATM   10  O   UNK N   1      20.704  11.825  11.878  0.00  0.00    -0.367 OA
HETATM   11  H   UNK N   1      20.428  10.909  11.717  0.00  0.00     0.212 HD
ENDBRANCH   1  10
BRANCH   1  12
HETATM   12  O   UNK N   1      20.887  12.595   9.719  0.00  0.00    -0.228 OA
BRANCH  12  13
HETATM   13  S   UNK N   1      20.830  14.267   9.272  0.00  0.00     0.243 S 
HETATM   14  O   UNK N   1      20.818  13.462   7.963  0.00  0.00    -0.579 OA
HETATM   15  O   UNK N   1      19.484  13.951   9.945  0.00  0.00    -0.579 OA
BRANCH  13  16
HETATM   16  O   UNK N   1      19.570  14.906   8.297  0.00  0.00    -0.273 OA
HETATM   17  H   UNK N   1      18.733  15.267   8.631  0.00  0.00     0.234 HD
ENDBRANCH  13  16
ENDBRANCH  12  13
ENDBRANCH   1  12
TORSDOF 8
ENDMDL
MODEL 4
REMARK VINA RESULT:      -4.8     18.348     19.356
REMARK  8 active torsions:
REMARK  status: ('A' for Active; 'I' for Inactive)
REMARK    1  A    between atoms: C_2  and  C_1 
REMARK    2  A    between atoms: C_3  and  C_1 
REMARK    3  A    between atoms: C_1  and  N_4 
REMARK    4  A    between atoms: O_6  and  C_2 
REMARK    5  A    between atoms: C_3  and  O_7 
REMARK    6  A    between atoms: O_11  and  C_3 
REMARK    7  A    between atoms: S_12  and  O_8 
REMARK    8  A    between atoms: S_12  and  O_11 
ROOT
HETATM    1  C   UNK N   1      35.383  13.917  11.968  0.00  0.00     0.310 C 
ENDROOT
BRANCH   1   2
HETATM    2  C   UNK N   1      34.957  14.842  10.816  0.00  0.00     0.230 C 
BRANCH   2   3
HETATM    3  C   UNK N   1      35.750  16.130  10.794  0.00  0.00     0.168 C 
HETATM    4  O   UNK N   1      35.192  17.206  10.664  0.00  0.00    -0.648 OA
BRANCH   3   5
HETATM    5  O   UNK N   1      37.095  16.088  10.881  0.00  0.00    -0.775 OA
HETATM    6  H   UNK N   1      37.615  16.714  10.417  0.00  0.00     0.167 HD
ENDBRANCH   3   5
ENDBRANCH   2   3
BRANCH   2   7
HETATM    7  N   UNK N   1      33.531  15.126  10.930  0.00  0.00    -0.414 N 
HETATM    8  H   UNK N   1      33.208  15.879  11.539  0.00  0.00     0.150 HD
HETATM    9  H   UNK N   1      32.856  14.573  10.402  0.00  0.00     0.150 HD
ENDBRANCH   2   7
ENDBRANCH   1   2
BRANCH   1  10
HETATM   10  O   UNK N   1      34.271  13.207  12.436  0.00  0.00    -0.367 OA
HETATM   11  H   UNK N   1      34.343  12.657  13.232  0.00  0.00     0.212 HD
ENDBRANCH   1  10
BRANCH   1  12
HETATM   12  O   UNK N   1      35.911  14.712  13.011  0.00  0.00    -0.228 OA
BRANCH  12  13
HETATM   13  S   UNK N   1      36.153  13.713  14.405  0.00  0.00     0.243 S 
HETATM   14  O   UNK N   1      36.946  13.066  13.260  0.00  0.00    -0.579 OA
HETATM   15  O   UNK N   1      36.877  15.039  14.690  0.00  0.00    -0.579 OA
BRANCH  13  16
HETATM   16  O   UNK N   1      37.719  13.360  15.011  0.00  0.00    -0.273 OA
HETATM   17  H   UNK N   1      37.909  12.794  15.776  0.00  0.00     0.234 HD
ENDBRANCH  13  16
ENDBRANCH  12  13
ENDBRANCH   1  12
TORSDOF 8
ENDMDL
MODEL 5
REMARK VINA RESULT:      -4.7     16.352     17.499
REMARK  8 active torsions:
REMARK  status: ('A' for Active; 'I' for Inactive)
REMARK    1  A    between atoms: C_2  and  C_1 
REMARK    2  A    between atoms: C_3  and  C_1 
REMARK    3  A    between atoms: C_1  and  N_4 
REMARK    4  A    between atoms: O_6  and  C_2 
REMARK    5  A    between atoms: C_3  and  O_7 
REMARK    6  A    between atoms: O_11  and  C_3 
REMARK    7  A    between atoms: S_12  and  O_8 
REMARK    8  A    between atoms: S_12  and  O_11 
ROOT
HETATM    1  C   UNK N   1      35.635  16.163  10.161  0.00  0.00     0.310 C 
ENDROOT
BRANCH   1   2
HETATM    2  C   UNK N   1      34.745  15.677  11.317  0.00  0.00     0.230 C 
BRANCH   2   3
HETATM    3  C   UNK N   1      35.470  14.712  12.228  0.00  0.00     0.168 C 
HETATM    4  O   UNK N   1      35.151  13.536  12.274  0.00  0.00    -0.648 OA
BRANCH   3   5
HETATM    5  O   UNK N   1      36.458  15.161  13.029  0.00  0.00    -0.775 OA
HETATM    6  H   UNK N   1      37.161  15.666  12.669  0.00  0.00     0.167 HD
ENDBRANCH   3   5
ENDBRANCH   2   3
BRANCH   2   7
HETATM    7  N   UNK N   1      33.545  15.056  10.771  0.00  0.00    -0.414 N 
HETATM    8  H   UNK N   1      33.202  15.331   9.850  0.00  0.00     0.150 HD
HETATM    9  H   UNK N   1      33.047  14.347  11.308  0.00  0.00     0.150 HD
ENDBRANCH   2   7
ENDBRANCH   1   2
BRANCH   1  10
HETATM   10  O   UNK N   1      36.982  15.974  10.493  0.00  0.00    -0.367 OA
HETATM   11  H   UNK N   1      37.246  15.233  11.060  0.00  0.00     0.212 HD
ENDBRANCH   1  10
BRANCH   1  12
HETATM   12  O   UNK N   1      35.387  17.539   9.951  0.00  0.00    -0.228 OA
BRANCH  12  13
HETATM   13  S   UNK N   1      34.226  17.708   8.677  0.00  0.00     0.243 S 
HETATM   14  O   UNK N   1      35.179  18.908   8.563  0.00  0.00    -0.579 OA
HETATM   15  O   UNK N   1      35.084  16.484   8.322  0.00  0.00    -0.579 OA
BRANCH  13  16
HETATM   16  O   UNK N   1      34.692  17.829   7.029  0.00  0.00    -0.273 OA
HETATM   17  H   UNK N   1      35.297  18.495   6.667  0.00  0.00     0.234 HD
ENDBRANCH  13  16
ENDBRANCH  12  13
ENDBRANCH   1  12
TORSDOF 8
ENDMDL
MODEL 6
REMARK VINA RESULT:      -4.5     13.848     14.746
REMARK  8 active torsions:
REMARK  status: ('A' for Active; 'I' for Inactive)
REMARK    1  A    between atoms: C_2  and  C_1 
REMARK    2  A    between atoms: C_3  and  C_1 
REMARK    3  A    between atoms: C_1  and  N_4 
REMARK    4  A    between atoms: O_6  and  C_2 
REMARK    5  A    between atoms: C_3  and  O_7 
REMARK    6  A    between atoms: O_11  and  C_3 
REMARK    7  A    between atoms: S_12  and  O_8 
REMARK    8  A    between atoms: S_12  and  O_11 
ROOT
HETATM    1  C   UNK N   1      33.512  15.581   8.982  0.00  0.00     0.310 C 
ENDROOT
BRANCH   1   2
HETATM    2  C   UNK N   1      33.117  14.348   8.153  0.00  0.00     0.230 C 
BRANCH   2   3
HETATM    3  C   UNK N   1      32.267  14.712   6.956  0.00  0.00     0.168 C 
HETATM    4  O   UNK N   1      31.470  13.916   6.490  0.00  0.00    -0.648 OA
BRANCH   3   5
HETATM    5  O   UNK N   1      32.417  15.919   6.372  0.00  0.00    -0.775 OA
HETATM    6  H   UNK N   1      32.824  16.620   6.841  0.00  0.00     0.167 HD
ENDBRANCH   3   5
ENDBRANCH   2   3
BRANCH   2   7
HETATM    7  N   UNK N   1      32.411  13.401   9.008  0.00  0.00    -0.414 N 
HETATM    8  H   UNK N   1      32.740  13.228   9.959  0.00  0.00     0.150 HD
HETATM    9  H   UNK N   1      31.589  12.909   8.657  0.00  0.00     0.150 HD
ENDBRANCH   2   7
ENDBRANCH   1   2
BRANCH   1  10
HETATM   10  O   UNK N   1      32.369  16.331   9.284  0.00  0.00    -0.367 OA
HETATM   11  H   UNK N   1      31.528  15.884   9.471  0.00  0.00     0.212 HD
ENDBRANCH   1  10
BRANCH   1  12
HETATM   12  O   UNK N   1      34.406  16.367   8.219  0.00  0.00    -0.228 OA
BRANCH  12  13
HETATM   13  S   UNK N   1      34.060  18.040   8.505  0.00  0.00     0.243 S 
HETATM   14  O   UNK N   1      35.175  17.650   9.487  0.00  0.00    -0.579 OA
HETATM   15  O   UNK N   1      34.710  17.962   7.114  0.00  0.00    -0.579 OA
BRANCH  13  16
HETATM   16  O   UNK N   1      35.272  19.251   8.402  0.00  0.00    -0.273 OA
HETATM   17  H   UNK N   1      36.071  19.291   8.950  0.00  0.00     0.234 HD
ENDBRANCH  13  16
ENDBRANCH  12  13
ENDBRANCH   1  12
TORSDOF 8
ENDMDL
MODEL 7
REMARK VINA RESULT:      -4.4      2.712      3.875
REMARK  8 active torsions:
REMARK  status: ('A' for Active; 'I' for Inactive)
REMARK    1  A    between atoms: C_2  and  C_1 
REMARK    2  A    between atoms: C_3  and  C_1 
REMARK    3  A    between atoms: C_1  and  N_4 
REMARK    4  A    between atoms: O_6  and  C_2 
REMARK    5  A    between atoms: C_3  and  O_7 
REMARK    6  A    between atoms: O_11  and  C_3 
REMARK    7  A    between atoms: S_12  and  O_8 
REMARK    8  A    between atoms: S_12  and  O_11 
ROOT
HETATM    1  C   UNK N   1      21.479  19.507   3.999  0.00  0.00     0.310 C 
ENDROOT
BRANCH   1   2
HETATM    2  C   UNK N   1      21.119  18.104   4.516  0.00  0.00     0.230 C 
BRANCH   2   3
HETATM    3  C   UNK N   1      21.453  17.932   5.981  0.00  0.00     0.168 C 
HETATM    4  O   UNK N   1      22.063  16.951   6.372  0.00  0.00    -0.648 OA
BRANCH   3   5
HETATM    5  O   UNK N   1      21.041  18.855   6.874  0.00  0.00    -0.775 OA
HETATM    6  H   UNK N   1      20.777  18.592   7.733  0.00  0.00     0.167 HD
ENDBRANCH   3   5
ENDBRANCH   2   3
BRANCH   2   7
HETATM    7  N   UNK N   1      21.814  17.104   3.715  0.00  0.00    -0.414 N 
HETATM    8  H   UNK N   1      22.285  17.378   2.852  0.00  0.00     0.150 HD
HETATM    9  H   UNK N   1      21.831  16.129   4.016  0.00  0.00     0.150 HD
ENDBRANCH   2   7
ENDBRANCH   1   2
BRANCH   1  10
HETATM   10  O   UNK N   1      20.369  20.352   4.120  0.00  0.00    -0.367 OA
HETATM   11  H   UNK N   1      20.483  21.314   4.093  0.00  0.00     0.212 HD
ENDBRANCH   1  10
BRANCH   1  12
HETATM   12  O   UNK N   1      21.849  19.403   2.639  0.00  0.00    -0.228 OA
BRANCH  12  13
HETATM   13  S   UNK N   1      20.737  20.329   1.686  0.00  0.00     0.243 S 
HETATM   14  O   UNK N   1      22.140  20.620   1.130  0.00  0.00    -0.579 OA
HETATM   15  O   UNK N   1      20.475  18.852   1.348  0.00  0.00    -0.579 OA
BRANCH  13  16
HETATM   16  O   UNK N   1      20.648  20.168  -0.020  0.00  0.00    -0.273 OA
HETATM   17  H   UNK N   1      19.851  19.927  -0.519  0.00  0.00     0.234 HD
ENDBRANCH  13  16
ENDBRANCH  12  13
ENDBRANCH   1  12
TORSDOF 8
ENDMDL
MODEL 8
REMARK VINA RESULT:      -4.4     10.831     11.903
REMARK  8 active torsions:
REMARK  status: ('A' for Active; 'I' for Inactive)
REMARK    1  A    between atoms: C_2  and  C_1 
REMARK    2  A    between atoms: C_3  and  C_1 
REMARK    3  A    between atoms: C_1  and  N_4 
REMARK    4  A    between atoms: O_6  and  C_2 
REMARK    5  A    between atoms: C_3  and  O_7 
REMARK    6  A    between atoms: O_11  and  C_3 
REMARK    7  A    between atoms: S_12  and  O_8 
REMARK    8  A    between atoms: S_12  and  O_11 
ROOT
HETATM    1  C   UNK N   1      29.452  24.445  -4.129  0.00  0.00     0.310 C 
ENDROOT
BRANCH   1   2
HETATM    2  C   UNK N   1      28.206  25.310  -3.873  0.00  0.00     0.230 C 
BRANCH   2   3
HETATM    3  C   UNK N   1      27.041  24.494  -3.358  0.00  0.00     0.168 C 
HETATM    4  O   UNK N   1      25.941  24.575  -3.880  0.00  0.00    -0.648 OA
BRANCH   3   5
HETATM    5  O   UNK N   1      27.207  23.694  -2.286  0.00  0.00    -0.775 OA
HETATM    6  H   UNK N   1      27.482  24.057  -1.467  0.00  0.00     0.167 HD
ENDBRANCH   3   5
ENDBRANCH   2   3
BRANCH   2   7
HETATM    7  N   UNK N   1      27.838  25.999  -5.104  0.00  0.00    -0.414 N 
HETATM    8  H   UNK N   1      27.012  25.705  -5.627  0.00  0.00     0.150 HD
HETATM    9  H   UNK N   1      28.406  26.775  -5.444  0.00  0.00     0.150 HD
ENDBRANCH   2   7
ENDBRANCH   1   2
BRANCH   1  10
HETATM   10  O   UNK N   1      29.073  23.247  -4.747  0.00  0.00    -0.367 OA
HETATM   11  H   UNK N   1      29.647  22.467  -4.690  0.00  0.00     0.212 HD
ENDBRANCH   1  10
BRANCH   1  12
HETATM   12  O   UNK N   1      30.066  24.165  -2.887  0.00  0.00    -0.228 OA
BRANCH  12  13
HETATM   13  S   UNK N   1      30.503  22.489  -2.848  0.00  0.00     0.243 S 
HETATM   14  O   UNK N   1      31.664  23.228  -3.529  0.00  0.00    -0.579 OA
HETATM   15  O   UNK N   1      30.522  22.977  -1.390  0.00  0.00    -0.579 OA
BRANCH  13  16
HETATM   16  O   UNK N   1      31.953  21.943  -2.109  0.00  0.00    -0.273 OA
HETATM   17  H   UNK N   1      32.758  21.681  -2.582  0.00  0.00     0.234 HD
ENDBRANCH  13  16
ENDBRANCH  12  13
ENDBRANCH   1  12
TORSDOF 8
ENDMDL
MODEL 9
REMARK VINA RESULT:      -4.2     17.349     18.411
REMARK  8 active torsions:
REMARK  status: ('A' for Active; 'I' for Inactive)
REMARK    1  A    between atoms: C_2  and  C_1 
REMARK    2  A    between atoms: C_3  and  C_1 
REMARK    3  A    between atoms: C_1  and  N_4 
REMARK    4  A    between atoms: O_6  and  C_2 
REMARK    5  A    between atoms: C_3  and  O_7 
REMARK    6  A    between atoms: O_11  and  C_3 
REMARK    7  A    between atoms: S_12  and  O_8 
REMARK    8  A    between atoms: S_12  and  O_11 
ROOT
HETATM    1  C   UNK N   1      36.707  14.859  10.241  0.00  0.00     0.310 C 
ENDROOT
BRANCH   1   2
HETATM    2  C   UNK N   1      36.674  13.698  11.250  0.00  0.00     0.230 C 
BRANCH   2   3
HETATM    3  C   UNK N   1      36.056  14.106  12.569  0.00  0.00     0.168 C 
HETATM    4  O   UNK N   1      34.887  13.862  12.814  0.00  0.00    -0.648 OA
BRANCH   3   5
HETATM    5  O   UNK N   1      36.795  14.782  13.472  0.00  0.00    -0.775 OA
HETATM    6  H   UNK N   1      37.606  15.174  13.216  0.00  0.00     0.167 HD
ENDBRANCH   3   5
ENDBRANCH   2   3
BRANCH   2   7
HETATM    7  N   UNK N   1      38.028  13.200  11.455  0.00  0.00    -0.414 N 
HETATM    8  H   UNK N   1      38.320  12.882  12.380  0.00  0.00     0.150 HD
HETATM    9  H   UNK N   1      38.685  13.169  10.675  0.00  0.00     0.150 HD
ENDBRANCH   2   7
ENDBRANCH   1   2
BRANCH   1  10
HETATM   10  O   UNK N   1      36.937  16.063  10.918  0.00  0.00    -0.367 OA
HETATM   11  H   UNK N   1      37.578  16.703  10.571  0.00  0.00     0.212 HD
ENDBRANCH   1  10
BRANCH   1  12
HETATM   12  O   UNK N   1      35.459  14.917   9.581  0.00  0.00    -0.228 OA
BRANCH  12  13
HETATM   13  S   UNK N   1      34.682  16.410   9.988  0.00  0.00     0.243 S 
HETATM   14  O   UNK N   1      34.969  16.463   8.480  0.00  0.00    -0.579 OA
HETATM   15  O   UNK N   1      33.621  15.309  10.152  0.00  0.00    -0.579 OA
BRANCH  13  16
HETATM   16  O   UNK N   1      33.238  16.925   9.216  0.00  0.00    -0.273 OA
HETATM   17  H   UNK N   1      32.411  17.153   9.670  0.00  0.00     0.234 HD
ENDBRANCH  13  16
ENDBRANCH  12  13
ENDBRANCH   1  12
TORSDOF 8
ENDMDL
