MODEL 1
REMARK VINA RESULT:      -3.5      0.000      0.000
REMARK  6 active torsions:
REMARK  status: ('A' for Active; 'I' for Inactive)
REMARK    1  A    between atoms: O_2  and  C_3 
REMARK    2  A    between atoms: C_3  and  C_4 
REMARK    3  A    between atoms: C_4  and  O_5 
REMARK    4  A    between atoms: O_5  and  C_6 
REMARK    5  A    between atoms: C_6  and  C_7 
REMARK    6  A    between atoms: C_7  and  O_8 
ROOT
HETATM    1  O   UNK N   1      34.602  17.965   6.901  0.00  0.00    -0.387 OA
ENDROOT
BRANCH   1   2
HETATM    2  C   UNK N   1      33.609  17.479   6.054  0.00  0.00     0.193 C 
BRANCH   2   3
HETATM    3  C   UNK N   1      34.079  16.149   5.504  0.00  0.00     0.193 C 
BRANCH   3   4
HETATM    4  O   UNK N   1      35.387  15.889   5.902  0.00  0.00    -0.394 OA
HETATM    5  C   UNK N   1      35.597  14.560   5.534  0.00  0.00     0.201 C 
ENDBRANCH   3   4
ENDBRANCH   2   3
ENDBRANCH   1   2
BRANCH   1   6
HETATM    6  C   UNK N   1      33.971  18.280   8.102  0.00  0.00     0.193 C 
BRANCH   6   7
HETATM    7  C   UNK N   1      34.305  17.191   9.101  0.00  0.00     0.193 C 
BRANCH   7   8
HETATM    8  O   UNK N   1      35.378  17.574   9.900  0.00  0.00    -0.394 OA
HETATM    9  C   UNK N   1      35.480  16.551  10.843  0.00  0.00     0.201 C 
ENDBRANCH   7   8
ENDBRANCH   6   7
ENDBRANCH   1   6
TORSDOF 6
ENDMDL
MODEL 2
REMARK VINA RESULT:      -3.4      1.592      4.513
REMARK  6 active torsions:
REMARK  status: ('A' for Active; 'I' for Inactive)
REMARK    1  A    between atoms: O_2  and  C_3 
REMARK    2  A    between atoms: C_3  and  C_4 
REMARK    3  A    between atoms: C_4  and  O_5 
REMARK    4  A    between atoms: O_5  and  C_6 
REMARK    5  A    between atoms: C_6  and  C_7 
REMARK    6  A    between atoms: C_7  and  O_8 
ROOT
HETATM    1  O   UNK N   1      35.400  17.626  10.006  0.00  0.00    -0.387 OA
ENDROOT
BRANCH   1   2
HETATM    2  C   UNK N   1      35.528  16.598  10.936  0.00  0.00     0.193 C 
BRANCH   2   3
HETATM    3  C   UNK N   1      36.019  15.367  10.203  0.00  0.00     0.193 C 
BRANCH   3   4
HETATM    4  O   UNK N   1      36.536  14.437  11.099  0.00  0.00    -0.394 OA
HETATM    5  C   UNK N   1      35.929  14.759  12.312  0.00  0.00     0.201 C 
ENDBRANCH   3   4
ENDBRANCH   2   3
ENDBRANCH   1   2
BRANCH   1   6
HETATM    6  C   UNK N   1      34.529  17.158   9.025  0.00  0.00     0.193 C 
BRANCH   6   7
HETATM    7  C   UNK N   1      34.226  18.309   8.087  0.00  0.00     0.193 C 
BRANCH   7   8
HETATM    8  O   UNK N   1      34.545  17.967   6.776  0.00  0.00    -0.394 OA
HETATM    9  C   UNK N   1      33.354  17.455   6.260  0.00  0.00     0.201 C 
ENDBRANCH   7   8
ENDBRANCH   6   7
ENDBRANCH   1   6
TORSDOF 6
ENDMDL
MODEL 3
REMARK VINA RESULT:      -3.4      1.682      3.326
REMARK  6 active torsions:
REMARK  status: ('A' for Active; 'I' for Inactive)
REMARK    1  A    between atoms: O_2  and  C_3 
REMARK    2  A    between atoms: C_3  and  C_4 
REMARK    3  A    between atoms: C_4  and  O_5 
REMARK    4  A    between atoms: O_5  and  C_6 
REMARK    5  A    between atoms: C_6  and  C_7 
REMARK    6  A    between atoms: C_7  and  O_8 
ROOT
HETATM    1  O   UNK N   1      35.466  17.469  10.117  0.00  0.00    -0.387 OA
ENDROOT
BRANCH   1   2
HETATM    2  C   UNK N   1      34.569  17.179   9.093  0.00  0.00     0.193 C 
BRANCH   2   3
HETATM    3  C   UNK N   1      34.488  18.391   8.189  0.00  0.00     0.193 C 
BRANCH   3   4
HETATM    4  O   UNK N   1      34.557  18.011   6.852  0.00  0.00    -0.394 OA
HETATM    5  C   UNK N   1      33.294  17.483   6.583  0.00  0.00     0.201 C 
ENDBRANCH   3   4
ENDBRANCH   2   3
ENDBRANCH   1   2
BRANCH   1   6
HETATM    6  C   UNK N   1      35.423  16.387  10.992  0.00  0.00     0.193 C 
BRANCH   6   7
HETATM    7  C   UNK N   1      36.421  15.356  10.504  0.00  0.00     0.193 C 
BRANCH   7   8
HETATM    8  O   UNK N   1      36.467  14.271  11.375  0.00  0.00    -0.394 OA
HETATM    9  C   UNK N   1      35.258  14.341  12.068  0.00  0.00     0.201 C 
ENDBRANCH   7   8
ENDBRANCH   6   7
ENDBRANCH   1   6
TORSDOF 6
ENDMDL
MODEL 4
REMARK VINA RESULT:      -3.4      3.635      6.581
REMARK  6 active torsions:
REMARK  status: ('A' for Active; 'I' for Inactive)
REMARK    1  A    between atoms: O_2  and  C_3 
REMARK    2  A    between atoms: C_3  and  C_4 
REMARK    3  A    between atoms: C_4  and  O_5 
REMARK    4  A    between atoms: O_5  and  C_6 
REMARK    5  A    between atoms: C_6  and  C_7 
REMARK    6  A    between atoms: C_7  and  O_8 
ROOT
HETATM    1  O   UNK N   1      34.654  14.355  12.106  0.00  0.00    -0.387 OA
ENDROOT
BRANCH   1   2
HETATM    2  C   UNK N   1      35.950  14.474  12.600  0.00  0.00     0.193 C 
BRANCH   2   3
HETATM    3  C   UNK N   1      35.968  13.892  13.998  0.00  0.00     0.193 C 
BRANCH   3   4
HETATM    4  O   UNK N   1      34.760  13.263  14.283  0.00  0.00    -0.394 OA
HETATM    5  C   UNK N   1      34.868  12.913  15.628  0.00  0.00     0.201 C 
ENDBRANCH   3   4
ENDBRANCH   2   3
ENDBRANCH   1   2
BRANCH   1   6
HETATM    6  C   UNK N   1      34.561  15.244  11.037  0.00  0.00     0.193 C 
BRANCH   6   7
HETATM    7  C   UNK N   1      35.821  16.086  11.023  0.00  0.00     0.193 C 
BRANCH   7   8
HETATM    8  O   UNK N   1      35.582  17.311  10.409  0.00  0.00    -0.394 OA
HETATM    9  C   UNK N   1      34.692  17.006   9.379  0.00  0.00     0.201 C 
ENDBRANCH   7   8
ENDBRANCH   6   7
ENDBRANCH   1   6
TORSDOF 6
ENDMDL
MODEL 5
REMARK VINA RESULT:      -3.3     14.536     15.112
REMARK  6 active torsions:
REMARK  status: ('A' for Active; 'I' for Inactive)
REMARK    1  A    between atoms: O_2  and  C_3 
REMARK    2  A    between atoms: C_3  and  C_4 
REMARK    3  A    between atoms: C_4  and  O_5 
REMARK    4  A    between atoms: O_5  and  C_6 
REMARK    5  A    between atoms: C_6  and  C_7 
REMARK    6  A    between atoms: C_7  and  O_8 
ROOT
HETATM    1  O   UNK N   1      19.741  14.135   9.361  0.00  0.00    -0.387 OA
ENDROOT
BRANCH   1   2
HETATM    2  C   UNK N   1      20.631  13.423  10.161  0.00  0.00     0.193 C 
BRANCH   2   3
HETATM    3  C   UNK N   1      22.035  13.754   9.702  0.00  0.00     0.193 C 
BRANCH   3   4
HETATM    4  O   UNK N   1      22.970  13.003  10.406  0.00  0.00    -0.394 OA
HETATM    5  C   UNK N   1      22.198  12.159  11.205  0.00  0.00     0.201 C 
ENDBRANCH   3   4
ENDBRANCH   2   3
ENDBRANCH   1   2
BRANCH   1   6
HETATM    6  C   UNK N   1      20.425  15.270   8.933  0.00  0.00     0.193 C 
BRANCH   6   7
HETATM    7  C   UNK N   1      19.415  16.389   8.775  0.00  0.00     0.193 C 
BRANCH   7   8
HETATM    8  O   UNK N   1      18.187  16.018   9.315  0.00  0.00    -0.394 OA
HETATM    9  C   UNK N   1      17.415  17.176   9.229  0.00  0.00     0.201 C 
ENDBRANCH   7   8
ENDBRANCH   6   7
ENDBRANCH   1   6
TORSDOF 6
ENDMDL
MODEL 6
REMARK VINA RESULT:      -3.2     13.276     15.061
REMARK  6 active torsions:
REMARK  status: ('A' for Active; 'I' for Inactive)
REMARK    1  A    between atoms: O_2  and  C_3 
REMARK    2  A    between atoms: C_3  and  C_4 
REMARK    3  A    between atoms: C_4  and  O_5 
REMARK    4  A    between atoms: O_5  and  C_6 
REMARK    5  A    between atoms: C_6  and  C_7 
REMARK    6  A    between atoms: C_7  and  O_8 
ROOT
HETATM    1  O   UNK N   1      27.054  23.882  -2.654  0.00  0.00    -0.387 OA
ENDROOT
BRANCH   1   2
HETATM    2  C   UNK N   1      26.568  24.507  -3.799  0.00  0.00     0.193 C 
BRANCH   2   3
HETATM    3  C   UNK N   1      27.047  25.944  -3.783  0.00  0.00     0.193 C 
BRANCH   3   4
HETATM    4  O   UNK N   1      26.048  26.788  -3.310  0.00  0.00    -0.394 OA
HETATM    5  C   UNK N   1      26.663  28.038  -3.241  0.00  0.00     0.201 C 
ENDBRANCH   3   4
ENDBRANCH   2   3
ENDBRANCH   1   2
BRANCH   1   6
HETATM    6  C   UNK N   1      28.417  23.691  -2.863  0.00  0.00     0.193 C 
BRANCH   6   7
HETATM    7  C   UNK N   1      28.966  22.925  -1.677  0.00  0.00     0.193 C 
BRANCH   7   8
HETATM    8  O   UNK N   1      30.338  23.125  -1.559  0.00  0.00    -0.394 OA
HETATM    9  C   UNK N   1      30.770  23.291  -2.875  0.00  0.00     0.201 C 
ENDBRANCH   7   8
ENDBRANCH   6   7
ENDBRANCH   1   6
TORSDOF 6
ENDMDL
MODEL 7
REMARK VINA RESULT:      -3.2      3.489      4.316
REMARK  6 active torsions:
REMARK  status: ('A' for Active; 'I' for Inactive)
REMARK    1  A    between atoms: O_2  and  C_3 
REMARK    2  A    between atoms: C_3  and  C_4 
REMARK    3  A    between atoms: C_4  and  O_5 
REMARK    4  A    between atoms: O_5  and  C_6 
REMARK    5  A    between atoms: C_6  and  C_7 
REMARK    6  A    between atoms: C_7  and  O_8 
ROOT
HETATM    1  O   UNK N   1      31.272  16.691   7.399  0.00  0.00    -0.387 OA
ENDROOT
BRANCH   1   2
HETATM    2  C   UNK N   1      32.375  17.490   7.685  0.00  0.00     0.193 C 
BRANCH   2   3
HETATM    3  C   UNK N   1      33.266  17.506   6.460  0.00  0.00     0.193 C 
BRANCH   3   4
HETATM    4  O   UNK N   1      34.536  17.972   6.785  0.00  0.00    -0.394 OA
HETATM    5  C   UNK N   1      34.433  18.332   8.129  0.00  0.00     0.201 C 
ENDBRANCH   3   4
ENDBRANCH   2   3
ENDBRANCH   1   2
BRANCH   1   6
HETATM    6  C   UNK N   1      30.161  17.365   7.901  0.00  0.00     0.193 C 
BRANCH   6   7
HETATM    7  C   UNK N   1      30.644  18.319   8.974  0.00  0.00     0.193 C 
BRANCH   7   8
HETATM    8  O   UNK N   1      29.595  18.680   9.814  0.00  0.00    -0.394 OA
HETATM    9  C   UNK N   1      28.471  18.108   9.217  0.00  0.00     0.201 C 
ENDBRANCH   7   8
ENDBRANCH   6   7
ENDBRANCH   1   6
TORSDOF 6
ENDMDL
MODEL 8
REMARK VINA RESULT:      -3.2      3.697      5.726
REMARK  6 active torsions:
REMARK  status: ('A' for Active; 'I' for Inactive)
REMARK    1  A    between atoms: O_2  and  C_3 
REMARK    2  A    between atoms: C_3  and  C_4 
REMARK    3  A    between atoms: C_4  and  O_5 
REMARK    4  A    between atoms: O_5  and  C_6 
REMARK    5  A    between atoms: C_6  and  C_7 
REMARK    6  A    between atoms: C_7  and  O_8 
ROOT
HETATM    1  O   UNK N   1      34.360  14.296  11.782  0.00  0.00    -0.387 OA
ENDROOT
BRANCH   1   2
HETATM    2  C   UNK N   1      34.482  15.229  10.756  0.00  0.00     0.193 C 
BRANCH   2   3
HETATM    3  C   UNK N   1      35.422  16.319  11.229  0.00  0.00     0.193 C 
BRANCH   3   4
HETATM    4  O   UNK N   1      35.570  17.297  10.251  0.00  0.00    -0.394 OA
HETATM    5  C   UNK N   1      34.540  17.034   9.348  0.00  0.00     0.201 C 
ENDBRANCH   3   4
ENDBRANCH   2   3
ENDBRANCH   1   2
BRANCH   1   6
HETATM    6  C   UNK N   1      35.531  14.384  12.531  0.00  0.00     0.193 C 
BRANCH   6   7
HETATM    7  C   UNK N   1      35.581  13.187  13.457  0.00  0.00     0.193 C 
BRANCH   7   8
HETATM    8  O   UNK N   1      34.567  13.262  14.408  0.00  0.00    -0.394 OA
HETATM    9  C   UNK N   1      34.762  12.131  15.201  0.00  0.00     0.201 C 
ENDBRANCH   7   8
ENDBRANCH   6   7
ENDBRANCH   1   6
TORSDOF 6
ENDMDL
MODEL 9
REMARK VINA RESULT:      -3.1      3.814      5.441
REMARK  6 active torsions:
REMARK  status: ('A' for Active; 'I' for Inactive)
REMARK    1  A    between atoms: O_2  and  C_3 
REMARK    2  A    between atoms: C_3  and  C_4 
REMARK    3  A    between atoms: C_4  and  O_5 
REMARK    4  A    between atoms: O_5  and  C_6 
REMARK    5  A    between atoms: C_6  and  C_7 
REMARK    6  A    between atoms: C_7  and  O_8 
ROOT
HETATM    1  O   UNK N   1      31.767  17.605   8.751  0.00  0.00    -0.387 OA
ENDROOT
BRANCH   1   2
HETATM    2  C   UNK N   1      30.425  17.746   8.408  0.00  0.00     0.193 C 
BRANCH   2   3
HETATM    3  C   UNK N   1      29.758  18.583   9.479  0.00  0.00     0.193 C 
BRANCH   3   4
HETATM    4  O   UNK N   1      28.385  18.649   9.265  0.00  0.00    -0.394 OA
HETATM    5  C   UNK N   1      28.002  17.318   9.103  0.00  0.00     0.201 C 
ENDBRANCH   3   4
ENDBRANCH   2   3
ENDBRANCH   1   2
BRANCH   1   6
HETATM    6  C   UNK N   1      32.445  17.324   7.567  0.00  0.00     0.193 C 
BRANCH   6   7
HETATM    7  C   UNK N   1      33.799  18.000   7.635  0.00  0.00     0.193 C 
BRANCH   7   8
HETATM    8  O   UNK N   1      34.430  17.957   6.396  0.00  0.00    -0.394 OA
HETATM    9  C   UNK N   1      33.471  17.402   5.547  0.00  0.00     0.201 C 
ENDBRANCH   7   8
ENDBRANCH   6   7
ENDBRANCH   1   6
TORSDOF 6
ENDMDL
