MODEL 1
REMARK VINA RESULT:      -4.5      0.000      0.000
REMARK  3 active torsions:
REMARK  status: ('A' for Active; 'I' for Inactive)
REMARK    1  A    between atoms: C_2  and  C_3 
REMARK    2  A    between atoms: C_3  and  N_4 
REMARK    3  A    between atoms: N_4  and  C_5 
ROOT
HETATM    1  C   UNK N   1      27.611  19.448   7.146  0.00  0.00     0.028 A 
HETATM    2  C   UNK N   1      27.096  20.663   6.680  0.00  0.00     0.029 A 
HETATM    3  C   UNK N   1      27.150  20.971   5.316  0.00  0.00     0.002 A 
HETATM    4  C   UNK N   1      27.719  20.066   4.415  0.00  0.00     0.000 A 
HETATM    5  C   UNK N   1      28.235  18.852   4.875  0.00  0.00     0.002 A 
HETATM    6  C   UNK N   1      28.181  18.543   6.236  0.00  0.00     0.029 A 
ENDROOT
BRANCH   1   7
HETATM    7  N   UNK N   1      27.552  19.142   8.529  0.00  0.00    -0.386 N 
HETATM    8  H   UNK N   1      27.011  19.707   9.128  0.00  0.00     0.160 HD
BRANCH   7   9
HETATM    9  C   UNK N   1      28.271  18.018   9.075  0.00  0.00     0.146 C 
BRANCH   9  10
HETATM   10  C   UNK N   1      29.550  18.466   9.686  0.00  0.00    -0.018 C 
HETATM   11  C   UNK N   1      30.672  18.395   8.976  0.00  0.00     0.008 C 
ENDBRANCH   9  10
ENDBRANCH   7   9
ENDBRANCH   1   7
TORSDOF 3
ENDMDL
MODEL 2
REMARK VINA RESULT:      -4.4     13.054     14.754
REMARK  3 active torsions:
REMARK  status: ('A' for Active; 'I' for Inactive)
REMARK    1  A    between atoms: C_2  and  C_3 
REMARK    2  A    between atoms: C_3  and  N_4 
REMARK    3  A    between atoms: N_4  and  C_5 
ROOT
HETATM    1  C   UNK N   1      25.770  27.559  -3.983  0.00  0.00     0.028 A 
HETATM    2  C   UNK N   1      26.414  26.491  -3.348  0.00  0.00     0.029 A 
HETATM    3  C   UNK N   1      26.426  25.225  -3.944  0.00  0.00     0.002 A 
HETATM    4  C   UNK N   1      25.795  25.023  -5.175  0.00  0.00     0.000 A 
HETATM    5  C   UNK N   1      25.150  26.086  -5.813  0.00  0.00     0.002 A 
HETATM    6  C   UNK N   1      25.137  27.350  -5.219  0.00  0.00     0.029 A 
ENDROOT
BRANCH   1   7
HETATM    7  N   UNK N   1      25.762  28.839  -3.373  0.00  0.00    -0.386 N 
HETATM    8  H   UNK N   1      24.925  29.188  -2.991  0.00  0.00     0.160 HD
BRANCH   7   9
HETATM    9  C   UNK N   1      26.960  29.638  -3.304  0.00  0.00     0.146 C 
BRANCH   9  10
HETATM   10  C   UNK N   1      27.142  30.412  -4.560  0.00  0.00    -0.018 C 
HETATM   11  C   UNK N   1      28.049  30.012  -5.446  0.00  0.00     0.008 C 
ENDBRANCH   9  10
ENDBRANCH   7   9
ENDBRANCH   1   7
TORSDOF 3
ENDMDL
MODEL 3
REMARK VINA RESULT:      -4.3     12.775     14.713
REMARK  3 active torsions:
REMARK  status: ('A' for Active; 'I' for Inactive)
REMARK    1  A    between atoms: C_2  and  C_3 
REMARK    2  A    between atoms: C_3  and  N_4 
REMARK    3  A    between atoms: N_4  and  C_5 
ROOT
HETATM    1  C   UNK N   1      35.525  12.534  16.975  0.00  0.00     0.028 A 
HETATM    2  C   UNK N   1      35.235  13.405  18.032  0.00  0.00     0.029 A 
HETATM    3  C   UNK N   1      35.150  12.915  19.340  0.00  0.00     0.002 A 
HETATM    4  C   UNK N   1      35.355  11.556  19.596  0.00  0.00     0.000 A 
HETATM    5  C   UNK N   1      35.645  10.683  18.544  0.00  0.00     0.002 A 
HETATM    6  C   UNK N   1      35.730  11.170  17.238  0.00  0.00     0.029 A 
ENDROOT
BRANCH   1   7
HETATM    7  N   UNK N   1      35.610  13.037  15.652  0.00  0.00    -0.386 N 
HETATM    8  H   UNK N   1      34.798  13.078  15.097  0.00  0.00     0.160 HD
BRANCH   7   9
HETATM    9  C   UNK N   1      36.865  13.489  15.106  0.00  0.00     0.146 C 
BRANCH   9  10
HETATM   10  C   UNK N   1      36.904  14.974  15.050  0.00  0.00    -0.018 C 
HETATM   11  C   UNK N   1      37.454  15.650  16.054  0.00  0.00     0.008 C 
ENDBRANCH   9  10
ENDBRANCH   7   9
ENDBRANCH   1   7
TORSDOF 3
ENDMDL
MODEL 4
REMARK VINA RESULT:      -4.3      2.771      4.804
REMARK  3 active torsions:
REMARK  status: ('A' for Active; 'I' for Inactive)
REMARK    1  A    between atoms: C_2  and  C_3 
REMARK    2  A    between atoms: C_3  and  N_4 
REMARK    3  A    between atoms: N_4  and  C_5 
ROOT
HETATM    1  C   UNK N   1      31.726  17.509   8.143  0.00  0.00     0.028 A 
HETATM    2  C   UNK N   1      31.306  17.102   6.872  0.00  0.00     0.029 A 
HETATM    3  C   UNK N   1      32.214  17.085   5.807  0.00  0.00     0.002 A 
HETATM    4  C   UNK N   1      33.542  17.473   6.009  0.00  0.00     0.000 A 
HETATM    5  C   UNK N   1      33.965  17.879   7.278  0.00  0.00     0.002 A 
HETATM    6  C   UNK N   1      33.060  17.897   8.342  0.00  0.00     0.029 A 
ENDROOT
BRANCH   1   7
HETATM    7  N   UNK N   1      30.800  17.524   9.218  0.00  0.00    -0.386 N 
HETATM    8  H   UNK N   1      30.716  16.732   9.796  0.00  0.00     0.160 HD
BRANCH   7   9
HETATM    9  C   UNK N   1      29.980  18.681   9.478  0.00  0.00     0.146 C 
BRANCH   9  10
HETATM   10  C   UNK N   1      28.583  18.439   9.031  0.00  0.00    -0.018 C 
HETATM   11  C   UNK N   1      28.177  18.933   7.865  0.00  0.00     0.008 C 
ENDBRANCH   9  10
ENDBRANCH   7   9
ENDBRANCH   1   7
TORSDOF 3
ENDMDL
MODEL 5
REMARK VINA RESULT:      -4.2     10.657     12.668
REMARK  3 active torsions:
REMARK  status: ('A' for Active; 'I' for Inactive)
REMARK    1  A    between atoms: C_2  and  C_3 
REMARK    2  A    between atoms: C_3  and  N_4 
REMARK    3  A    between atoms: N_4  and  C_5 
ROOT
HETATM    1  C   UNK N   1      26.445  25.369  -3.821  0.00  0.00     0.028 A 
HETATM    2  C   UNK N   1      26.361  26.646  -3.255  0.00  0.00     0.029 A 
HETATM    3  C   UNK N   1      25.694  27.671  -3.935  0.00  0.00     0.002 A 
HETATM    4  C   UNK N   1      25.110  27.423  -5.181  0.00  0.00     0.000 A 
HETATM    5  C   UNK N   1      25.191  26.149  -5.749  0.00  0.00     0.002 A 
HETATM    6  C   UNK N   1      25.856  25.125  -5.072  0.00  0.00     0.029 A 
ENDROOT
BRANCH   1   7
HETATM    7  N   UNK N   1      27.122  24.334  -3.126  0.00  0.00    -0.386 N 
HETATM    8  H   UNK N   1      26.678  23.887  -2.369  0.00  0.00     0.160 HD
BRANCH   7   9
HETATM    9  C   UNK N   1      28.451  23.926  -3.509  0.00  0.00     0.146 C 
BRANCH   9  10
HETATM   10  C   UNK N   1      29.080  23.121  -2.429  0.00  0.00    -0.018 C 
HETATM   11  C   UNK N   1      30.403  22.995  -2.397  0.00  0.00     0.008 C 
ENDBRANCH   9  10
ENDBRANCH   7   9
ENDBRANCH   1   7
TORSDOF 3
ENDMDL
MODEL 6
REMARK VINA RESULT:      -4.2     12.632     14.723
REMARK  3 active torsions:
REMARK  status: ('A' for Active; 'I' for Inactive)
REMARK    1  A    between atoms: C_2  and  C_3 
REMARK    2  A    between atoms: C_3  and  N_4 
REMARK    3  A    between atoms: N_4  and  C_5 
ROOT
HETATM    1  C   UNK N   1      25.760  27.110  -5.415  0.00  0.00     0.028 A 
HETATM    2  C   UNK N   1      26.738  27.513  -6.331  0.00  0.00     0.029 A 
HETATM    3  C   UNK N   1      27.444  28.704  -6.123  0.00  0.00     0.002 A 
HETATM    4  C   UNK N   1      27.174  29.494  -5.002  0.00  0.00     0.000 A 
HETATM    5  C   UNK N   1      26.197  29.095  -4.085  0.00  0.00     0.002 A 
HETATM    6  C   UNK N   1      25.493  27.907  -4.290  0.00  0.00     0.029 A 
ENDROOT
BRANCH   1   7
HETATM    7  N   UNK N   1      25.049  25.902  -5.631  0.00  0.00    -0.386 N 
HETATM    8  H   UNK N   1      24.083  25.935  -5.814  0.00  0.00     0.160 HD
BRANCH   7   9
HETATM    9  C   UNK N   1      25.719  24.626  -5.588  0.00  0.00     0.146 C 
BRANCH   9  10
HETATM   10  C   UNK N   1      26.165  24.319  -4.204  0.00  0.00    -0.018 C 
HETATM   11  C   UNK N   1      27.466  24.254  -3.937  0.00  0.00     0.008 C 
ENDBRANCH   9  10
ENDBRANCH   7   9
ENDBRANCH   1   7
TORSDOF 3
ENDMDL
MODEL 7
REMARK VINA RESULT:      -4.1      1.251      4.114
REMARK  3 active torsions:
REMARK  status: ('A' for Active; 'I' for Inactive)
REMARK    1  A    between atoms: C_2  and  C_3 
REMARK    2  A    between atoms: C_3  and  N_4 
REMARK    3  A    between atoms: N_4  and  C_5 
ROOT
HETATM    1  C   UNK N   1      28.368  18.304   7.369  0.00  0.00     0.028 A 
HETATM    2  C   UNK N   1      28.491  18.696   8.707  0.00  0.00     0.029 A 
HETATM    3  C   UNK N   1      29.653  18.388   9.424  0.00  0.00     0.002 A 
HETATM    4  C   UNK N   1      30.693  17.688   8.807  0.00  0.00     0.000 A 
HETATM    5  C   UNK N   1      30.575  17.294   7.471  0.00  0.00     0.002 A 
HETATM    6  C   UNK N   1      29.416  17.601   6.754  0.00  0.00     0.029 A 
ENDROOT
BRANCH   1   7
HETATM    7  N   UNK N   1      27.188  18.620   6.649  0.00  0.00    -0.386 N 
HETATM    8  H   UNK N   1      26.320  18.288   6.972  0.00  0.00     0.160 HD
BRANCH   7   9
HETATM    9  C   UNK N   1      27.239  19.420   5.451  0.00  0.00     0.146 C 
BRANCH   9  10
HETATM   10  C   UNK N   1      27.525  20.840   5.785  0.00  0.00    -0.018 C 
HETATM   11  C   UNK N   1      26.684  21.506   6.570  0.00  0.00     0.008 C 
ENDBRANCH   9  10
ENDBRANCH   7   9
ENDBRANCH   1   7
TORSDOF 3
ENDMDL
MODEL 8
REMARK VINA RESULT:      -4.1      8.220      9.747
REMARK  3 active torsions:
REMARK  status: ('A' for Active; 'I' for Inactive)
REMARK    1  A    between atoms: C_2  and  C_3 
REMARK    2  A    between atoms: C_3  and  N_4 
REMARK    3  A    between atoms: N_4  and  C_5 
ROOT
HETATM    1  C   UNK N   1      22.299  12.966   9.774  0.00  0.00     0.028 A 
HETATM    2  C   UNK N   1      22.009  12.375  11.008  0.00  0.00     0.029 A 
HETATM    3  C   UNK N   1      23.046  11.907  11.822  0.00  0.00     0.002 A 
HETATM    4  C   UNK N   1      24.375  12.028  11.406  0.00  0.00     0.000 A 
HETATM    5  C   UNK N   1      24.670  12.619  10.174  0.00  0.00     0.002 A 
HETATM    6  C   UNK N   1      23.636  13.086   9.360  0.00  0.00     0.029 A 
ENDROOT
BRANCH   1   7
HETATM    7  N   UNK N   1      21.243  13.439   8.954  0.00  0.00    -0.386 N 
HETATM    8  H   UNK N   1      21.101  13.037   8.067  0.00  0.00     0.160 HD
BRANCH   7   9
HETATM    9  C   UNK N   1      20.372  14.498   9.399  0.00  0.00     0.146 C 
BRANCH   9  10
HETATM   10  C   UNK N   1      20.709  15.772   8.711  0.00  0.00    -0.018 C 
HETATM   11  C   UNK N   1      19.836  16.774   8.730  0.00  0.00     0.008 C 
ENDBRANCH   9  10
ENDBRANCH   7   9
ENDBRANCH   1   7
TORSDOF 3
ENDMDL
MODEL 9
REMARK VINA RESULT:      -4.0     11.368     14.597
REMARK  3 active torsions:
REMARK  status: ('A' for Active; 'I' for Inactive)
REMARK    1  A    between atoms: C_2  and  C_3 
REMARK    2  A    between atoms: C_3  and  N_4 
REMARK    3  A    between atoms: N_4  and  C_5 
ROOT
HETATM    1  C   UNK N   1      35.340  12.659  17.114  0.00  0.00     0.028 A 
HETATM    2  C   UNK N   1      35.637  11.296  17.224  0.00  0.00     0.029 A 
HETATM    3  C   UNK N   1      35.707  10.694  18.486  0.00  0.00     0.002 A 
HETATM    4  C   UNK N   1      35.482  11.452  19.639  0.00  0.00     0.000 A 
HETATM    5  C   UNK N   1      35.186  12.813  19.533  0.00  0.00     0.002 A 
HETATM    6  C   UNK N   1      35.115  13.416  18.275  0.00  0.00     0.029 A 
ENDROOT
BRANCH   1   7
HETATM    7  N   UNK N   1      35.270  13.262  15.833  0.00  0.00    -0.386 N 
HETATM    8  H   UNK N   1      34.399  13.342  15.381  0.00  0.00     0.160 HD
BRANCH   7   9
HETATM    9  C   UNK N   1      36.455  13.762  15.179  0.00  0.00     0.146 C 
BRANCH   9  10
HETATM   10  C   UNK N   1      36.372  13.541  13.711  0.00  0.00    -0.018 C 
HETATM   11  C   UNK N   1      36.084  14.564  12.913  0.00  0.00     0.008 C 
ENDBRANCH   9  10
ENDBRANCH   7   9
ENDBRANCH   1   7
TORSDOF 3
ENDMDL
