MODEL 1
REMARK VINA RESULT:      -7.2      0.000      0.000
REMARK  15 active torsions:
REMARK  status: ('A' for Active; 'I' for Inactive)
REMARK    1  A    between atoms: C_7  and  C_3 
REMARK    2  A    between atoms: O_32  and  C_3 
REMARK    3  A    between atoms: C_16  and  C_4 
REMARK    4  A    between atoms: O_25  and  C_4 
REMARK    5  A    between atoms: C_9  and  O_26 
REMARK    6  A    between atoms: C_10  and  O_27 
REMARK    7  A    between atoms: C_15  and  C_11 
REMARK    8  A    between atoms: C_16  and  C_11 
REMARK    9  A    between atoms: C_11  and  O_28 
REMARK   10  A    between atoms: N_17  and  C_12 
REMARK   11  A    between atoms: C_14  and  N_24 
REMARK   12  A    between atoms: O_34  and  C_15 
REMARK   13  A    between atoms: P_35  and  O_30 
REMARK   14  A    between atoms: P_35  and  O_32 
REMARK   15  A    between atoms: P_35  and  O_34 
ROOT
HETATM    1  C   UNK N   1      33.004  17.433   4.481  0.00  0.00     0.180 C 
HETATM    2  C   UNK N   1      33.241  16.034   3.915  0.00  0.00     0.182 C 
HETATM    3  C   UNK N   1      31.852  15.461   3.986  0.00  0.00     0.198 C 
HETATM    4  C   UNK N   1      31.107  16.687   3.463  0.00  0.00     0.262 C 
HETATM    5  O   UNK N   1      31.704  17.821   4.062  0.00  0.00    -0.353 OA
ENDROOT
BRANCH   1   6
HETATM    6  C   UNK N   1      33.098  17.500   6.019  0.00  0.00     0.215 C 
BRANCH   6   7
HETATM    7  O   UNK N   1      34.417  17.641   6.499  0.00  0.00    -0.294 OA
BRANCH   7   8
HETATM    8  P   UNK N   1      34.416  17.881   8.238  0.00  0.00     0.400 P 
HETATM    9  O   UNK N   1      35.237  19.154   8.578  0.00  0.00    -0.631 OA
BRANCH   8  10
HETATM   10  O   UNK N   1      32.788  18.083   8.802  0.00  0.00    -0.307 OA
HETATM   11  H   UNK N   1      31.995  18.515   9.155  0.00  0.00     0.222 HD
ENDBRANCH   8  10
BRANCH   8  12
HETATM   12  O   UNK N   1      35.042  16.446   8.971  0.00  0.00    -0.218 OA
BRANCH  12  13
HETATM   13  C   UNK N   1      35.388  16.078  10.237  0.00  0.00     0.297 C 
HETATM   14  O   UNK N   1      36.330  16.669  10.736  0.00  0.00    -0.262 OA
BRANCH  13  15
HETATM   15  C   UNK N   1      34.719  14.986  11.077  0.00  0.00     0.228 C 
BRANCH  15  16
HETATM   16  C   UNK N   1      35.091  13.547  10.602  0.00  0.00     0.009 C 
HETATM   17  C   UNK N   1      36.526  13.514  10.090  0.00  0.00     0.020 C 
HETATM   18  C   UNK N   1      34.167  13.131   9.463  0.00  0.00     0.020 C 
BRANCH  16  19
HETATM   19  C   UNK N   1      34.923  12.527  11.737  0.00  0.00     0.175 C 
BRANCH  19  20
HETATM   20  O   UNK N   1      34.471  13.126  12.916  0.00  0.00    -0.400 OA
HETATM   21  H   UNK N   1      33.635  13.587  13.089  0.00  0.00     0.209 HD
ENDBRANCH  19  20
ENDBRANCH  16  19
ENDBRANCH  15  16
BRANCH  15  22
HETATM   22  O   UNK N   1      33.331  15.109  11.089  0.00  0.00    -0.385 OA
HETATM   23  H   UNK N   1      32.663  14.441  11.313  0.00  0.00     0.210 HD
ENDBRANCH  15  22
ENDBRANCH  13  15
ENDBRANCH  12  13
ENDBRANCH   8  12
ENDBRANCH   7   8
ENDBRANCH   6   7
ENDBRANCH   1   6
BRANCH   2  24
HETATM   24  O   UNK N   1      34.206  15.292   4.601  0.00  0.00    -0.390 OA
HETATM   25  H   UNK N   1      34.284  14.375   4.909  0.00  0.00     0.210 HD
ENDBRANCH   2  24
BRANCH   3  26
HETATM   26  O   UNK N   1      31.493  15.197   5.314  0.00  0.00    -0.388 OA
HETATM   27  H   UNK N   1      31.566  15.004   6.261  0.00  0.00     0.210 HD
ENDBRANCH   3  26
BRANCH   4  28
HETATM   28  N   UNK N   1      29.667  16.651   3.723  0.00  0.00    -0.297 N 
HETATM   29  C   UNK N   1      28.699  16.148   2.913  0.00  0.00     0.188 A 
HETATM   30  N   UNK N   1      27.470  16.224   3.500  0.00  0.00    -0.346 N 
HETATM   31  C   UNK N   1      27.710  16.790   4.696  0.00  0.00     0.122 A 
ATOM     32  HN  UNK N   1      26.573  15.923   3.118  1.00  0.00     0.167 HD
HETATM   33  C   UNK N   1      26.838  17.093   5.729  0.00  0.00     0.131 A 
HETATM   34  C   UNK N   1      29.025  17.050   4.828  0.00  0.00     0.142 A 
HETATM   35  N   UNK N   1      27.355  17.665   6.857  0.00  0.00    -0.337 N 
HETATM   36  C   UNK N   1      28.701  17.926   6.964  0.00  0.00     0.183 A 
ATOM     37  HN  UNK N   1      26.735  17.901   7.631  1.00  0.00     0.168 HD
HETATM   38  N   UNK N   1      29.553  17.611   5.940  0.00  0.00    -0.336 N 
ATOM     39  HN  UNK N   1      30.555  17.792   6.013  1.00  0.00     0.168 HD
BRANCH  33  40
HETATM   40  N   UNK N   1      25.460  16.813   5.632  0.00  0.00    -0.383 N 
HETATM   41  H   UNK N   1      25.141  15.983   5.210  0.00  0.00     0.157 HD
HETATM   42  H   UNK N   1      24.808  17.456   5.991  0.00  0.00     0.157 HD
ENDBRANCH  33  40
ENDBRANCH   4  28
TORSDOF 15
ENDMDL
MODEL 2
REMARK VINA RESULT:      -7.1      6.733     10.990
REMARK  15 active torsions:
REMARK  status: ('A' for Active; 'I' for Inactive)
REMARK    1  A    between atoms: C_7  and  C_3 
REMARK    2  A    between atoms: O_32  and  C_3 
REMARK    3  A    between atoms: C_16  and  C_4 
REMARK    4  A    between atoms: O_25  and  C_4 
REMARK    5  A    between atoms: C_9  and  O_26 
REMARK    6  A    between atoms: C_10  and  O_27 
REMARK    7  A    between atoms: C_15  and  C_11 
REMARK    8  A    between atoms: C_16  and  C_11 
REMARK    9  A    between atoms: C_11  and  O_28 
REMARK   10  A    between atoms: N_17  and  C_12 
REMARK   11  A    between atoms: C_14  and  N_24 
REMARK   12  A    between atoms: O_34  and  C_15 
REMARK   13  A    between atoms: P_35  and  O_30 
REMARK   14  A    between atoms: P_35  and  O_32 
REMARK   15  A    between atoms: P_35  and  O_34 
ROOT
HETATM    1  C   UNK N   1      35.417  13.464  12.722  0.00  0.00     0.180 C 
HETATM    2  C   UNK N   1      36.714  12.662  12.638  0.00  0.00     0.182 C 
HETATM    3  C   UNK N   1      37.035  12.490  14.097  0.00  0.00     0.198 C 
HETATM    4  C   UNK N   1      35.624  12.147  14.570  0.00  0.00     0.262 C 
HETATM    5  O   UNK N   1      34.737  13.008  13.883  0.00  0.00    -0.353 OA
ENDROOT
BRANCH   1   6
HETATM    6  C   UNK N   1      35.639  14.988  12.812  0.00  0.00     0.215 C 
BRANCH   6   7
HETATM    7  O   UNK N   1      36.105  15.563  11.612  0.00  0.00    -0.294 OA
BRANCH   7   8
HETATM    8  P   UNK N   1      34.840  15.557  10.396  0.00  0.00     0.400 P 
HETATM    9  O   UNK N   1      35.231  14.578   9.256  0.00  0.00    -0.631 OA
BRANCH   8  10
HETATM   10  O   UNK N   1      33.345  15.039  11.106  0.00  0.00    -0.307 OA
HETATM   11  H   UNK N   1      32.574  15.026  11.695  0.00  0.00     0.222 HD
ENDBRANCH   8  10
BRANCH   8  12
HETATM   12  O   UNK N   1      34.617  17.184   9.854  0.00  0.00    -0.218 OA
BRANCH  12  13
HETATM   13  C   UNK N   1      34.741  17.832   8.662  0.00  0.00     0.297 C 
HETATM   14  O   UNK N   1      35.277  18.927   8.692  0.00  0.00    -0.262 OA
BRANCH  13  15
HETATM   15  C   UNK N   1      34.256  17.325   7.301  0.00  0.00     0.228 C 
BRANCH  15  16
HETATM   16  C   UNK N   1      32.716  17.079   7.263  0.00  0.00     0.009 C 
HETATM   17  C   UNK N   1      32.011  17.982   8.269  0.00  0.00     0.020 C 
HETATM   18  C   UNK N   1      32.422  15.629   7.633  0.00  0.00     0.020 C 
BRANCH  16  19
HETATM   19  C   UNK N   1      32.148  17.327   5.859  0.00  0.00     0.175 C 
BRANCH  19  20
HETATM   20  O   UNK N   1      33.143  17.702   4.951  0.00  0.00    -0.400 OA
HETATM   21  H   UNK N   1      33.810  18.402   5.027  0.00  0.00     0.209 HD
ENDBRANCH  19  20
ENDBRANCH  16  19
ENDBRANCH  15  16
BRANCH  15  22
HETATM   22  O   UNK N   1      34.906  16.155   6.914  0.00  0.00    -0.385 OA
HETATM   23  H   UNK N   1      35.340  15.488   7.470  0.00  0.00     0.210 HD
ENDBRANCH  15  22
ENDBRANCH  13  15
ENDBRANCH  12  13
ENDBRANCH   8  12
ENDBRANCH   7   8
ENDBRANCH   6   7
ENDBRANCH   1   6
BRANCH   2  24
HETATM   24  O   UNK N   1      37.724  13.278  11.894  0.00  0.00    -0.390 OA
HETATM   25  H   UNK N   1      38.694  13.285  11.917  0.00  0.00     0.210 HD
ENDBRANCH   2  24
BRANCH   3  26
HETATM   26  O   UNK N   1      37.461  13.701  14.657  0.00  0.00    -0.388 OA
HETATM   27  H   UNK N   1      37.441  14.604  15.009  0.00  0.00     0.210 HD
ENDBRANCH   3  26
BRANCH   4  28
HETATM   28  N   UNK N   1      35.449  12.259  16.019  0.00  0.00    -0.297 N 
HETATM   29  C   UNK N   1      34.854  13.273  16.698  0.00  0.00     0.188 A 
HETATM   30  N   UNK N   1      34.811  13.019  18.037  0.00  0.00    -0.346 N 
HETATM   31  C   UNK N   1      35.398  11.815  18.163  0.00  0.00     0.122 A 
ATOM     32  HN  UNK N   1      34.424  13.607  18.775  1.00  0.00     0.167 HD
HETATM   33  C   UNK N   1      35.616  11.044  19.293  0.00  0.00     0.131 A 
HETATM   34  C   UNK N   1      35.784  11.362  16.955  0.00  0.00     0.142 A 
HETATM   35  N   UNK N   1      36.236   9.836  19.135  0.00  0.00    -0.337 N 
HETATM   36  C   UNK N   1      36.627   9.400  17.891  0.00  0.00     0.183 A 
ATOM     37  HN  UNK N   1      36.411   9.251  19.951  1.00  0.00     0.168 HD
HETATM   38  N   UNK N   1      36.395  10.167  16.781  0.00  0.00    -0.336 N 
ATOM     39  HN  UNK N   1      36.672   9.848  15.853  1.00  0.00     0.168 HD
BRANCH  33  40
HETATM   40  N   UNK N   1      35.203  11.479  20.569  0.00  0.00    -0.383 N 
HETATM   41  H   UNK N   1      35.207  12.435  20.803  0.00  0.00     0.157 HD
HETATM   42  H   UNK N   1      34.907  10.818  21.234  0.00  0.00     0.157 HD
ENDBRANCH  33  40
ENDBRANCH   4  28
TORSDOF 15
ENDMDL
MODEL 3
REMARK VINA RESULT:      -6.9      1.631      2.481
REMARK  15 active torsions:
REMARK  status: ('A' for Active; 'I' for Inactive)
REMARK    1  A    between atoms: C_7  and  C_3 
REMARK    2  A    between atoms: O_32  and  C_3 
REMARK    3  A    between atoms: C_16  and  C_4 
REMARK    4  A    between atoms: O_25  and  C_4 
REMARK    5  A    between atoms: C_9  and  O_26 
REMARK    6  A    between atoms: C_10  and  O_27 
REMARK    7  A    between atoms: C_15  and  C_11 
REMARK    8  A    between atoms: C_16  and  C_11 
REMARK    9  A    between atoms: C_11  and  O_28 
REMARK   10  A    between atoms: N_17  and  C_12 
REMARK   11  A    between atoms: C_14  and  N_24 
REMARK   12  A    between atoms: O_34  and  C_15 
REMARK   13  A    between atoms: P_35  and  O_30 
REMARK   14  A    between atoms: P_35  and  O_32 
REMARK   15  A    between atoms: P_35  and  O_34 
ROOT
HETATM    1  C   UNK N   1      32.766  15.223   4.650  0.00  0.00     0.180 C 
HETATM    2  C   UNK N   1      31.856  14.343   3.797  0.00  0.00     0.182 C 
HETATM    3  C   UNK N   1      30.518  14.632   4.420  0.00  0.00     0.198 C 
HETATM    4  C   UNK N   1      30.685  16.144   4.550  0.00  0.00     0.262 C 
HETATM    5  O   UNK N   1      32.010  16.378   4.984  0.00  0.00    -0.353 OA
ENDROOT
BRANCH   1   6
HETATM    6  C   UNK N   1      33.261  14.533   5.938  0.00  0.00     0.215 C 
BRANCH   6   7
HETATM    7  O   UNK N   1      33.060  15.301   7.104  0.00  0.00    -0.294 OA
BRANCH   7   8
HETATM    8  P   UNK N   1      34.456  16.317   7.418  0.00  0.00     0.400 P 
HETATM    9  O   UNK N   1      35.744  15.562   6.992  0.00  0.00    -0.631 OA
BRANCH   8  10
HETATM   10  O   UNK N   1      34.329  17.788   6.510  0.00  0.00    -0.307 OA
HETATM   11  H   UNK N   1      34.559  18.662   6.156  0.00  0.00     0.222 HD
ENDBRANCH   8  10
BRANCH   8  12
HETATM   12  O   UNK N   1      34.435  16.741   9.095  0.00  0.00    -0.218 OA
BRANCH  12  13
HETATM   13  C   UNK N   1      35.055  16.280  10.218  0.00  0.00     0.297 C 
HETATM   14  O   UNK N   1      36.081  16.851  10.545  0.00  0.00    -0.262 OA
BRANCH  13  15
HETATM   15  C   UNK N   1      34.595  15.107  11.089  0.00  0.00     0.228 C 
BRANCH  15  16
HETATM   16  C   UNK N   1      35.183  13.741  10.619  0.00  0.00     0.009 C 
HETATM   17  C   UNK N   1      34.269  13.100   9.581  0.00  0.00     0.020 C 
HETATM   18  C   UNK N   1      35.291  12.796  11.810  0.00  0.00     0.020 C 
BRANCH  16  19
HETATM   19  C   UNK N   1      36.591  13.914  10.031  0.00  0.00     0.175 C 
BRANCH  19  20
HETATM   20  O   UNK N   1      37.546  14.148  11.023  0.00  0.00    -0.400 OA
HETATM   21  H   UNK N   1      38.466  14.445  10.932  0.00  0.00     0.209 HD
ENDBRANCH  19  20
ENDBRANCH  16  19
ENDBRANCH  15  16
BRANCH  15  22
HETATM   22  O   UNK N   1      33.207  15.003  11.140  0.00  0.00    -0.385 OA
HETATM   23  H   UNK N   1      32.592  15.380  11.790  0.00  0.00     0.210 HD
ENDBRANCH  15  22
ENDBRANCH  13  15
ENDBRANCH  12  13
ENDBRANCH   8  12
ENDBRANCH   7   8
ENDBRANCH   6   7
ENDBRANCH   1   6
BRANCH   2  24
HETATM   24  O   UNK N   1      32.206  12.990   3.788  0.00  0.00    -0.390 OA
HETATM   25  H   UNK N   1      32.059  12.233   4.377  0.00  0.00     0.210 HD
ENDBRANCH   2  24
BRANCH   3  26
HETATM   26  O   UNK N   1      30.420  14.037   5.684  0.00  0.00    -0.388 OA
HETATM   27  H   UNK N   1      30.372  13.937   6.648  0.00  0.00     0.210 HD
ENDBRANCH   3  26
BRANCH   4  28
HETATM   28  N   UNK N   1      29.717  16.764   5.458  0.00  0.00    -0.297 N 
HETATM   29  C   UNK N   1      28.377  16.882   5.272  0.00  0.00     0.188 A 
HETATM   30  N   UNK N   1      27.773  17.459   6.350  0.00  0.00    -0.346 N 
HETATM   31  C   UNK N   1      28.783  17.694   7.207  0.00  0.00     0.122 A 
ATOM     32  HN  UNK N   1      26.783  17.668   6.477  1.00  0.00     0.167 HD
HETATM   33  C   UNK N   1      28.764  18.246   8.477  0.00  0.00     0.131 A 
HETATM   34  C   UNK N   1      29.948  17.281   6.670  0.00  0.00     0.142 A 
HETATM   35  N   UNK N   1      29.951  18.362   9.144  0.00  0.00    -0.337 N 
HETATM   36  C   UNK N   1      31.128  17.940   8.570  0.00  0.00     0.183 A 
ATOM     37  HN  UNK N   1      29.965  18.768  10.079  1.00  0.00     0.168 HD
HETATM   38  N   UNK N   1      31.131  17.386   7.319  0.00  0.00    -0.336 N 
ATOM     39  HN  UNK N   1      31.997  17.060   6.889  1.00  0.00     0.168 HD
BRANCH  33  40
HETATM   40  N   UNK N   1      27.559  18.666   9.076  0.00  0.00    -0.383 N 
HETATM   41  H   UNK N   1      27.465  18.701  10.055  0.00  0.00     0.157 HD
HETATM   42  H   UNK N   1      26.800  18.928   8.506  0.00  0.00     0.157 HD
ENDBRANCH  33  40
ENDBRANCH   4  28
TORSDOF 15
ENDMDL
MODEL 4
REMARK VINA RESULT:      -6.7      1.730      2.491
REMARK  15 active torsions:
REMARK  status: ('A' for Active; 'I' for Inactive)
REMARK    1  A    between atoms: C_7  and  C_3 
REMARK    2  A    between atoms: O_32  and  C_3 
REMARK    3  A    between atoms: C_16  and  C_4 
REMARK    4  A    between atoms: O_25  and  C_4 
REMARK    5  A    between atoms: C_9  and  O_26 
REMARK    6  A    between atoms: C_10  and  O_27 
REMARK    7  A    between atoms: C_15  and  C_11 
REMARK    8  A    between atoms: C_16  and  C_11 
REMARK    9  A    between atoms: C_11  and  O_28 
REMARK   10  A    between atoms: N_17  and  C_12 
REMARK   11  A    between atoms: C_14  and  N_24 
REMARK   12  A    between atoms: O_34  and  C_15 
REMARK   13  A    between atoms: P_35  and  O_30 
REMARK   14  A    between atoms: P_35  and  O_32 
REMARK   15  A    between atoms: P_35  and  O_34 
ROOT
HETATM    1  C   UNK N   1      32.159  15.943   4.573  0.00  0.00     0.180 C 
HETATM    2  C   UNK N   1      31.119  15.246   3.699  0.00  0.00     0.182 C 
HETATM    3  C   UNK N   1      29.847  15.673   4.378  0.00  0.00     0.198 C 
HETATM    4  C   UNK N   1      30.219  17.139   4.589  0.00  0.00     0.262 C 
HETATM    5  O   UNK N   1      31.574  17.167   4.995  0.00  0.00    -0.353 OA
ENDROOT
BRANCH   1   6
HETATM    6  C   UNK N   1      32.585  15.117   5.805  0.00  0.00     0.215 C 
BRANCH   6   7
HETATM    7  O   UNK N   1      32.531  15.838   7.015  0.00  0.00    -0.294 OA
BRANCH   7   8
HETATM    8  P   UNK N   1      34.089  16.569   7.363  0.00  0.00     0.400 P 
HETATM    9  O   UNK N   1      35.218  15.583   6.957  0.00  0.00    -0.631 OA
BRANCH   8  10
HETATM   10  O   UNK N   1      34.263  18.040   6.462  0.00  0.00    -0.307 OA
HETATM   11  H   UNK N   1      34.176  18.977   6.224  0.00  0.00     0.222 HD
ENDBRANCH   8  10
BRANCH   8  12
HETATM   12  O   UNK N   1      34.115  16.985   9.042  0.00  0.00    -0.218 OA
BRANCH  12  13
HETATM   13  C   UNK N   1      34.787  16.537  10.139  0.00  0.00     0.297 C 
HETATM   14  O   UNK N   1      35.772  17.175  10.471  0.00  0.00    -0.262 OA
BRANCH  13  15
HETATM   15  C   UNK N   1      34.433  15.305  10.977  0.00  0.00     0.228 C 
BRANCH  15  16
HETATM   16  C   UNK N   1      35.110  14.002  10.450  0.00  0.00     0.009 C 
HETATM   17  C   UNK N   1      36.459  14.326   9.817  0.00  0.00     0.020 C 
HETATM   18  C   UNK N   1      34.225  13.362   9.387  0.00  0.00     0.020 C 
BRANCH  16  19
HETATM   19  C   UNK N   1      35.301  12.979  11.578  0.00  0.00     0.175 C 
BRANCH  19  20
HETATM   20  O   UNK N   1      34.456  13.233  12.662  0.00  0.00    -0.400 OA
HETATM   21  H   UNK N   1      33.895  14.006  12.835  0.00  0.00     0.209 HD
ENDBRANCH  19  20
ENDBRANCH  16  19
ENDBRANCH  15  16
BRANCH  15  22
HETATM   22  O   UNK N   1      33.057  15.097  11.051  0.00  0.00    -0.385 OA
HETATM   23  H   UNK N   1      32.406  15.079  10.331  0.00  0.00     0.210 HD
ENDBRANCH  15  22
ENDBRANCH  13  15
ENDBRANCH  12  13
ENDBRANCH   8  12
ENDBRANCH   7   8
ENDBRANCH   6   7
ENDBRANCH   1   6
BRANCH   2  24
HETATM   24  O   UNK N   1      31.283  13.861   3.603  0.00  0.00    -0.390 OA
HETATM   25  H   UNK N   1      30.870  13.149   3.089  0.00  0.00     0.210 HD
ENDBRANCH   2  24
BRANCH   3  26
HETATM   26  O   UNK N   1      29.698  15.022   5.608  0.00  0.00    -0.388 OA
HETATM   27  H   UNK N   1      29.326  14.751   6.462  0.00  0.00     0.210 HD
ENDBRANCH   3  26
BRANCH   4  28
HETATM   28  N   UNK N   1      29.365  17.827   5.558  0.00  0.00    -0.297 N 
HETATM   29  C   UNK N   1      29.402  17.711   6.911  0.00  0.00     0.188 A 
HETATM   30  N   UNK N   1      28.502  18.546   7.506  0.00  0.00    -0.346 N 
HETATM   31  C   UNK N   1      27.910  19.180   6.479  0.00  0.00     0.122 A 
ATOM     32  HN  UNK N   1      28.319  18.662   8.503  1.00  0.00     0.167 HD
HETATM   33  C   UNK N   1      26.929  20.158   6.482  0.00  0.00     0.131 A 
HETATM   34  C   UNK N   1      28.423  18.746   5.312  0.00  0.00     0.142 A 
HETATM   35  N   UNK N   1      26.506  20.645   5.277  0.00  0.00    -0.337 N 
HETATM   36  C   UNK N   1      27.042  20.180   4.099  0.00  0.00     0.183 A 
ATOM     37  HN  UNK N   1      25.783  21.363   5.251  1.00  0.00     0.168 HD
HETATM   38  N   UNK N   1      28.019  19.221   4.111  0.00  0.00    -0.336 N 
ATOM     39  HN  UNK N   1      28.430  18.876   3.243  1.00  0.00     0.168 HD
BRANCH  33  40
HETATM   40  N   UNK N   1      26.387  20.650   7.687  0.00  0.00    -0.383 N 
HETATM   41  H   UNK N   1      25.423  20.583   7.873  0.00  0.00     0.157 HD
HETATM   42  H   UNK N   1      26.982  21.067   8.351  0.00  0.00     0.157 HD
ENDBRANCH  33  40
ENDBRANCH   4  28
TORSDOF 15
ENDMDL
MODEL 5
REMARK VINA RESULT:      -6.7      5.087      8.872
REMARK  15 active torsions:
REMARK  status: ('A' for Active; 'I' for Inactive)
REMARK    1  A    between atoms: C_7  and  C_3 
REMARK    2  A    between atoms: O_32  and  C_3 
REMARK    3  A    between atoms: C_16  and  C_4 
REMARK    4  A    between atoms: O_25  and  C_4 
REMARK    5  A    between atoms: C_9  and  O_26 
REMARK    6  A    between atoms: C_10  and  O_27 
REMARK    7  A    between atoms: C_15  and  C_11 
REMARK    8  A    between atoms: C_16  and  C_11 
REMARK    9  A    between atoms: C_11  and  O_28 
REMARK   10  A    between atoms: N_17  and  C_12 
REMARK   11  A    between atoms: C_14  and  N_24 
REMARK   12  A    between atoms: O_34  and  C_15 
REMARK   13  A    between atoms: P_35  and  O_30 
REMARK   14  A    between atoms: P_35  and  O_32 
REMARK   15  A    between atoms: P_35  and  O_34 
ROOT
HETATM    1  C   UNK N   1      35.696  15.083   9.407  0.00  0.00     0.180 C 
HETATM    2  C   UNK N   1      35.436  16.201  10.414  0.00  0.00     0.182 C 
HETATM    3  C   UNK N   1      34.871  15.418  11.567  0.00  0.00     0.198 C 
HETATM    4  C   UNK N   1      35.868  14.261  11.525  0.00  0.00     0.262 C 
HETATM    5  O   UNK N   1      36.073  13.941  10.163  0.00  0.00    -0.353 OA
ENDROOT
BRANCH   1   6
HETATM    6  C   UNK N   1      34.473  14.747   8.528  0.00  0.00     0.215 C 
BRANCH   6   7
HETATM    7  O   UNK N   1      34.662  15.040   7.162  0.00  0.00    -0.294 OA
BRANCH   7   8
HETATM    8  P   UNK N   1      33.612  16.356   6.666  0.00  0.00     0.400 P 
HETATM    9  O   UNK N   1      34.457  17.647   6.494  0.00  0.00    -0.631 OA
BRANCH   8  10
HETATM   10  O   UNK N   1      32.851  15.965   5.158  0.00  0.00    -0.307 OA
HETATM   11  H   UNK N   1      32.737  15.612   4.261  0.00  0.00     0.222 HD
ENDBRANCH   8  10
BRANCH   8  12
HETATM   12  O   UNK N   1      32.361  16.510   7.850  0.00  0.00    -0.218 OA
BRANCH  12  13
HETATM   13  C   UNK N   1      31.685  17.551   8.413  0.00  0.00     0.297 C 
HETATM   14  O   UNK N   1      32.275  18.615   8.470  0.00  0.00    -0.262 OA
BRANCH  13  15
HETATM   15  C   UNK N   1      30.268  17.502   8.995  0.00  0.00     0.228 C 
BRANCH  15  16
HETATM   16  C   UNK N   1      29.163  17.615   7.900  0.00  0.00     0.009 C 
HETATM   17  C   UNK N   1      29.579  16.852   6.647  0.00  0.00     0.020 C 
HETATM   18  C   UNK N   1      28.966  19.079   7.524  0.00  0.00     0.020 C 
BRANCH  16  19
HETATM   19  C   UNK N   1      27.818  17.078   8.410  0.00  0.00     0.175 C 
BRANCH  19  20
HETATM   20  O   UNK N   1      27.348  17.805   9.507  0.00  0.00    -0.400 OA
HETATM   21  H   UNK N   1      26.488  18.236   9.635  0.00  0.00     0.209 HD
ENDBRANCH  19  20
ENDBRANCH  16  19
ENDBRANCH  15  16
BRANCH  15  22
HETATM   22  O   UNK N   1      30.058  18.496   9.948  0.00  0.00    -0.385 OA
HETATM   23  H   UNK N   1      29.374  19.184   9.969  0.00  0.00     0.210 HD
ENDBRANCH  15  22
ENDBRANCH  13  15
ENDBRANCH  12  13
ENDBRANCH   8  12
ENDBRANCH   7   8
ENDBRANCH   6   7
ENDBRANCH   1   6
BRANCH   2  24
HETATM   24  O   UNK N   1      34.599  17.217   9.943  0.00  0.00    -0.390 OA
HETATM   25  H   UNK N   1      34.720  18.034   9.435  0.00  0.00     0.210 HD
ENDBRANCH   2  24
BRANCH   3  26
HETATM   26  O   UNK N   1      33.579  14.964  11.273  0.00  0.00    -0.388 OA
HETATM   27  H   UNK N   1      32.856  14.397  10.964  0.00  0.00     0.210 HD
ENDBRANCH   3  26
BRANCH   4  28
HETATM   28  N   UNK N   1      35.433  13.086  12.282  0.00  0.00    -0.297 N 
HETATM   29  C   UNK N   1      34.942  11.923  11.781  0.00  0.00     0.188 A 
HETATM   30  N   UNK N   1      34.695  11.019  12.772  0.00  0.00    -0.346 N 
HETATM   31  C   UNK N   1      35.051  11.660  13.900  0.00  0.00     0.122 A 
ATOM     32  HN  UNK N   1      34.325  10.073  12.679  1.00  0.00     0.167 HD
HETATM   33  C   UNK N   1      35.038  11.224  15.214  0.00  0.00     0.131 A 
HETATM   34  C   UNK N   1      35.489  12.900  13.607  0.00  0.00     0.142 A 
HETATM   35  N   UNK N   1      35.469  12.089  16.181  0.00  0.00    -0.337 N 
HETATM   36  C   UNK N   1      35.904  13.352  15.855  0.00  0.00     0.183 A 
ATOM     37  HN  UNK N   1      35.466  11.794  17.157  1.00  0.00     0.168 HD
HETATM   38  N   UNK N   1      35.922  13.766  14.551  0.00  0.00    -0.336 N 
ATOM     39  HN  UNK N   1      36.253  14.698  14.299  1.00  0.00     0.168 HD
BRANCH  33  40
HETATM   40  N   UNK N   1      34.608   9.924  15.552  0.00  0.00    -0.383 N 
HETATM   41  H   UNK N   1      34.785   9.162  14.955  0.00  0.00     0.157 HD
HETATM   42  H   UNK N   1      34.124   9.778  16.396  0.00  0.00     0.157 HD
ENDBRANCH  33  40
ENDBRANCH   4  28
TORSDOF 15
ENDMDL
MODEL 6
REMARK VINA RESULT:      -6.6      8.778     11.256
REMARK  15 active torsions:
REMARK  status: ('A' for Active; 'I' for Inactive)
REMARK    1  A    between atoms: C_7  and  C_3 
REMARK    2  A    between atoms: O_32  and  C_3 
REMARK    3  A    between atoms: C_16  and  C_4 
REMARK    4  A    between atoms: O_25  and  C_4 
REMARK    5  A    between atoms: C_9  and  O_26 
REMARK    6  A    between atoms: C_10  and  O_27 
REMARK    7  A    between atoms: C_15  and  C_11 
REMARK    8  A    between atoms: C_16  and  C_11 
REMARK    9  A    between atoms: C_11  and  O_28 
REMARK   10  A    between atoms: N_17  and  C_12 
REMARK   11  A    between atoms: C_14  and  N_24 
REMARK   12  A    between atoms: O_34  and  C_15 
REMARK   13  A    between atoms: P_35  and  O_30 
REMARK   14  A    between atoms: P_35  and  O_32 
REMARK   15  A    between atoms: P_35  and  O_34 
ROOT
HETATM    1  C   UNK N   1      21.493  14.884   4.231  0.00  0.00     0.180 C 
HETATM    2  C   UNK N   1      22.962  14.789   3.828  0.00  0.00     0.182 C 
HETATM    3  C   UNK N   1      23.560  14.202   5.077  0.00  0.00     0.198 C 
HETATM    4  C   UNK N   1      22.480  13.155   5.339  0.00  0.00     0.262 C 
HETATM    5  O   UNK N   1      21.234  13.772   5.076  0.00  0.00    -0.353 OA
ENDROOT
BRANCH   1   6
HETATM    6  C   UNK N   1      21.138  16.193   4.969  0.00  0.00     0.215 C 
BRANCH   6   7
HETATM    7  O   UNK N   1      20.819  17.260   4.104  0.00  0.00    -0.294 OA
BRANCH   7   8
HETATM    8  P   UNK N   1      21.668  18.718   4.589  0.00  0.00     0.400 P 
HETATM    9  O   UNK N   1      20.694  19.925   4.513  0.00  0.00    -0.631 OA
BRANCH   8  10
HETATM   10  O   UNK N   1      22.243  18.549   6.216  0.00  0.00    -0.307 OA
HETATM   11  H   UNK N   1      22.358  18.181   7.107  0.00  0.00     0.222 HD
ENDBRANCH   8  10
BRANCH   8  12
HETATM   12  O   UNK N   1      23.053  18.890   3.567  0.00  0.00    -0.218 OA
BRANCH  12  13
HETATM   13  C   UNK N   1      23.870  19.920   3.211  0.00  0.00     0.297 C 
HETATM   14  O   UNK N   1      23.338  21.007   3.060  0.00  0.00    -0.262 OA
BRANCH  13  15
HETATM   15  C   UNK N   1      25.379  19.836   2.965  0.00  0.00     0.228 C 
BRANCH  15  16
HETATM   16  C   UNK N   1      26.180  19.471   4.253  0.00  0.00     0.009 C 
HETATM   17  C   UNK N   1      25.641  20.248   5.449  0.00  0.00     0.020 C 
HETATM   18  C   UNK N   1      27.647  19.840   4.063  0.00  0.00     0.020 C 
BRANCH  16  19
HETATM   19  C   UNK N   1      26.110  17.965   4.542  0.00  0.00     0.175 C 
BRANCH  19  20
HETATM   20  O   UNK N   1      25.085  17.652   5.439  0.00  0.00    -0.400 OA
HETATM   21  H   UNK N   1      25.146  17.334   6.354  0.00  0.00     0.209 HD
ENDBRANCH  19  20
ENDBRANCH  16  19
ENDBRANCH  15  16
BRANCH  15  22
HETATM   22  O   UNK N   1      25.892  21.020   2.439  0.00  0.00    -0.385 OA
HETATM   23  H   UNK N   1      25.456  21.881   2.341  0.00  0.00     0.210 HD
ENDBRANCH  15  22
ENDBRANCH  13  15
ENDBRANCH  12  13
ENDBRANCH   8  12
ENDBRANCH   7   8
ENDBRANCH   6   7
ENDBRANCH   1   6
BRANCH   2  24
HETATM   24  O   UNK N   1      23.531  16.003   3.434  0.00  0.00    -0.390 OA
HETATM   25  H   UNK N   1      24.220  16.590   3.782  0.00  0.00     0.210 HD
ENDBRANCH   2  24
BRANCH   3  26
HETATM   26  O   UNK N   1      23.587  15.150   6.108  0.00  0.00    -0.388 OA
HETATM   27  H   UNK N   1      23.400  15.592   6.950  0.00  0.00     0.210 HD
ENDBRANCH   3  26
BRANCH   4  28
HETATM   28  N   UNK N   1      22.517  12.602   6.694  0.00  0.00    -0.297 N 
HETATM   29  C   UNK N   1      23.279  11.569   7.138  0.00  0.00     0.188 A 
HETATM   30  N   UNK N   1      23.105  11.361   8.475  0.00  0.00    -0.346 N 
HETATM   31  C   UNK N   1      22.213  12.298   8.842  0.00  0.00     0.122 A 
ATOM     32  HN  UNK N   1      23.550  10.655   9.062  1.00  0.00     0.167 HD
HETATM   33  C   UNK N   1      21.677  12.578  10.088  0.00  0.00     0.131 A 
HETATM   34  C   UNK N   1      21.857  13.039   7.774  0.00  0.00     0.142 A 
HETATM   35  N   UNK N   1      20.784  13.608  10.184  0.00  0.00    -0.337 N 
HETATM   36  C   UNK N   1      20.432  14.344   9.078  0.00  0.00     0.183 A 
ATOM     37  HN  UNK N   1      20.372  13.833  11.089  1.00  0.00     0.168 HD
HETATM   38  N   UNK N   1      20.978  14.063   7.854  0.00  0.00    -0.336 N 
ATOM     39  HN  UNK N   1      20.731  14.610   7.029  1.00  0.00     0.168 HD
BRANCH  33  40
HETATM   40  N   UNK N   1      22.047  11.837  11.229  0.00  0.00    -0.383 N 
HETATM   41  H   UNK N   1      22.866  11.292  11.235  0.00  0.00     0.157 HD
HETATM   42  H   UNK N   1      21.477  11.866  12.031  0.00  0.00     0.157 HD
ENDBRANCH  33  40
ENDBRANCH   4  28
TORSDOF 15
ENDMDL
MODEL 7
REMARK VINA RESULT:      -6.5      2.147      3.592
REMARK  15 active torsions:
REMARK  status: ('A' for Active; 'I' for Inactive)
REMARK    1  A    between atoms: C_7  and  C_3 
REMARK    2  A    between atoms: O_32  and  C_3 
REMARK    3  A    between atoms: C_16  and  C_4 
REMARK    4  A    between atoms: O_25  and  C_4 
REMARK    5  A    between atoms: C_9  and  O_26 
REMARK    6  A    between atoms: C_10  and  O_27 
REMARK    7  A    between atoms: C_15  and  C_11 
REMARK    8  A    between atoms: C_16  and  C_11 
REMARK    9  A    between atoms: C_11  and  O_28 
REMARK   10  A    between atoms: N_17  and  C_12 
REMARK   11  A    between atoms: C_14  and  N_24 
REMARK   12  A    between atoms: O_34  and  C_15 
REMARK   13  A    between atoms: P_35  and  O_30 
REMARK   14  A    between atoms: P_35  and  O_32 
REMARK   15  A    between atoms: P_35  and  O_34 
ROOT
HETATM    1  C   UNK N   1      30.448  16.899   7.363  0.00  0.00     0.180 C 
HETATM    2  C   UNK N   1      29.446  17.071   8.502  0.00  0.00     0.182 C 
HETATM    3  C   UNK N   1      28.483  18.047   7.886  0.00  0.00     0.198 C 
HETATM    4  C   UNK N   1      28.394  17.394   6.509  0.00  0.00     0.262 C 
HETATM    5  O   UNK N   1      29.705  16.995   6.156  0.00  0.00    -0.353 OA
ENDROOT
BRANCH   1   6
HETATM    6  C   UNK N   1      31.575  17.953   7.366  0.00  0.00     0.215 C 
BRANCH   6   7
HETATM    7  O   UNK N   1      32.397  17.896   8.510  0.00  0.00    -0.294 OA
BRANCH   7   8
HETATM    8  P   UNK N   1      34.087  17.796   8.047  0.00  0.00     0.400 P 
HETATM    9  O   UNK N   1      34.184  17.561   6.516  0.00  0.00    -0.631 OA
BRANCH   8  10
HETATM   10  O   UNK N   1      34.896  19.276   8.451  0.00  0.00    -0.307 OA
HETATM   11  H   UNK N   1      35.576  19.968   8.458  0.00  0.00     0.222 HD
ENDBRANCH   8  10
BRANCH   8  12
HETATM   12  O   UNK N   1      34.818  16.537   8.981  0.00  0.00    -0.218 OA
BRANCH  12  13
HETATM   13  C   UNK N   1      35.268  16.419  10.262  0.00  0.00     0.297 C 
HETATM   14  O   UNK N   1      35.991  17.312  10.668  0.00  0.00    -0.262 OA
BRANCH  13  15
HETATM   15  C   UNK N   1      34.967  15.266  11.225  0.00  0.00     0.228 C 
BRANCH  15  16
HETATM   16  C   UNK N   1      35.779  13.976  10.893  0.00  0.00     0.009 C 
HETATM   17  C   UNK N   1      34.856  12.899  10.334  0.00  0.00     0.020 C 
HETATM   18  C   UNK N   1      36.425  13.439  12.165  0.00  0.00     0.020 C 
BRANCH  16  19
HETATM   19  C   UNK N   1      36.900  14.269   9.886  0.00  0.00     0.175 C 
BRANCH  19  20
HETATM   20  O   UNK N   1      36.528  13.940   8.580  0.00  0.00    -0.400 OA
HETATM   21  H   UNK N   1      36.615  14.462   7.766  0.00  0.00     0.209 HD
ENDBRANCH  19  20
ENDBRANCH  16  19
ENDBRANCH  15  16
BRANCH  15  22
HETATM   22  O   UNK N   1      33.611  14.947  11.255  0.00  0.00    -0.385 OA
HETATM   23  H   UNK N   1      32.876  15.373  10.786  0.00  0.00     0.210 HD
ENDBRANCH  15  22
ENDBRANCH  13  15
ENDBRANCH  12  13
ENDBRANCH   8  12
ENDBRANCH   7   8
ENDBRANCH   6   7
ENDBRANCH   1   6
BRANCH   2  24
HETATM   24  O   UNK N   1      30.012  17.502   9.705  0.00  0.00    -0.390 OA
HETATM   25  H   UNK N   1      30.155  18.359  10.135  0.00  0.00     0.210 HD
ENDBRANCH   2  24
BRANCH   3  26
HETATM   26  O   UNK N   1      29.059  19.320   7.791  0.00  0.00    -0.388 OA
HETATM   27  H   UNK N   1      29.686  20.052   7.900  0.00  0.00     0.210 HD
ENDBRANCH   3  26
BRANCH   4  28
HETATM   28  N   UNK N   1      27.816  18.265   5.484  0.00  0.00    -0.297 N 
HETATM   29  C   UNK N   1      28.476  19.145   4.687  0.00  0.00     0.188 A 
HETATM   30  N   UNK N   1      27.630  19.745   3.801  0.00  0.00    -0.346 N 
HETATM   31  C   UNK N   1      26.428  19.208   4.077  0.00  0.00     0.122 A 
ATOM     32  HN  UNK N   1      27.857  20.444   3.093  1.00  0.00     0.167 HD
HETATM   33  C   UNK N   1      25.197  19.425   3.479  0.00  0.00     0.131 A 
HETATM   34  C   UNK N   1      26.539  18.324   5.087  0.00  0.00     0.142 A 
HETATM   35  N   UNK N   1      24.122  18.729   3.955  0.00  0.00    -0.337 N 
HETATM   36  C   UNK N   1      24.261  17.838   4.993  0.00  0.00     0.183 A 
ATOM     37  HN  UNK N   1      23.204  18.873   3.536  1.00  0.00     0.168 HD
HETATM   38  N   UNK N   1      25.485  17.624   5.567  0.00  0.00    -0.336 N 
ATOM     39  HN  UNK N   1      25.600  16.958   6.331  1.00  0.00     0.168 HD
BRANCH  33  40
HETATM   40  N   UNK N   1      25.052  20.326   2.404  0.00  0.00    -0.383 N 
HETATM   41  H   UNK N   1      25.670  20.303   1.638  0.00  0.00     0.157 HD
HETATM   42  H   UNK N   1      24.323  20.987   2.421  0.00  0.00     0.157 HD
ENDBRANCH  33  40
ENDBRANCH   4  28
TORSDOF 15
ENDMDL
MODEL 8
REMARK VINA RESULT:      -6.4      2.792      4.210
REMARK  15 active torsions:
REMARK  status: ('A' for Active; 'I' for Inactive)
REMARK    1  A    between atoms: C_7  and  C_3 
REMARK    2  A    between atoms: O_32  and  C_3 
REMARK    3  A    between atoms: C_16  and  C_4 
REMARK    4  A    between atoms: O_25  and  C_4 
REMARK    5  A    between atoms: C_9  and  O_26 
REMARK    6  A    between atoms: C_10  and  O_27 
REMARK    7  A    between atoms: C_15  and  C_11 
REMARK    8  A    between atoms: C_16  and  C_11 
REMARK    9  A    between atoms: C_11  and  O_28 
REMARK   10  A    between atoms: N_17  and  C_12 
REMARK   11  A    between atoms: C_14  and  N_24 
REMARK   12  A    between atoms: O_34  and  C_15 
REMARK   13  A    between atoms: P_35  and  O_30 
REMARK   14  A    between atoms: P_35  and  O_32 
REMARK   15  A    between atoms: P_35  and  O_34 
ROOT
HETATM    1  C   UNK N   1      34.807  14.803   7.391  0.00  0.00     0.180 C 
HETATM    2  C   UNK N   1      33.963  13.886   6.509  0.00  0.00     0.182 C 
HETATM    3  C   UNK N   1      32.576  14.302   6.914  0.00  0.00     0.198 C 
HETATM    4  C   UNK N   1      32.818  15.810   6.923  0.00  0.00     0.262 C 
HETATM    5  O   UNK N   1      34.088  16.021   7.509  0.00  0.00    -0.353 OA
ENDROOT
BRANCH   1   6
HETATM    6  C   UNK N   1      35.086  14.224   8.794  0.00  0.00     0.215 C 
BRANCH   6   7
HETATM    7  O   UNK N   1      35.953  15.020   9.571  0.00  0.00    -0.294 OA
BRANCH   7   8
HETATM    8  P   UNK N   1      35.110  15.660  10.971  0.00  0.00     0.400 P 
HETATM    9  O   UNK N   1      35.135  17.211  10.917  0.00  0.00    -0.631 OA
BRANCH   8  10
HETATM   10  O   UNK N   1      33.464  15.114  10.965  0.00  0.00    -0.307 OA
HETATM   11  H   UNK N   1      32.499  15.134  10.863  0.00  0.00     0.222 HD
ENDBRANCH   8  10
BRANCH   8  12
HETATM   12  O   UNK N   1      35.864  15.012  12.386  0.00  0.00    -0.218 OA
BRANCH  12  13
HETATM   13  C   UNK N   1      36.034  13.764  12.906  0.00  0.00     0.297 C 
HETATM   14  O   UNK N   1      36.930  13.092  12.423  0.00  0.00    -0.262 OA
BRANCH  13  15
HETATM   15  C   UNK N   1      35.199  13.125  14.019  0.00  0.00     0.228 C 
BRANCH  15  16
HETATM   16  C   UNK N   1      35.956  13.067  15.382  0.00  0.00     0.009 C 
HETATM   17  C   UNK N   1      36.957  14.212  15.481  0.00  0.00     0.020 C 
HETATM   18  C   UNK N   1      36.720  11.752  15.485  0.00  0.00     0.020 C 
BRANCH  16  19
HETATM   19  C   UNK N   1      34.978  13.133  16.564  0.00  0.00     0.175 C 
BRANCH  19  20
HETATM   20  O   UNK N   1      35.126  12.043  17.427  0.00  0.00    -0.400 OA
HETATM   21  H   UNK N   1      34.939  11.982  18.377  0.00  0.00     0.209 HD
ENDBRANCH  19  20
ENDBRANCH  16  19
ENDBRANCH  15  16
BRANCH  15  22
HETATM   22  O   UNK N   1      34.775  11.840  13.687  0.00  0.00    -0.385 OA
HETATM   23  H   UNK N   1      33.905  11.433  13.822  0.00  0.00     0.210 HD
ENDBRANCH  15  22
ENDBRANCH  13  15
ENDBRANCH  12  13
ENDBRANCH   8  12
ENDBRANCH   7   8
ENDBRANCH   6   7
ENDBRANCH   1   6
BRANCH   2  24
HETATM   24  O   UNK N   1      34.227  12.524   6.675  0.00  0.00    -0.390 OA
HETATM   25  H   UNK N   1      34.918  12.001   7.112  0.00  0.00     0.210 HD
ENDBRANCH   2  24
BRANCH   3  26
HETATM   26  O   UNK N   1      32.277  13.845   8.204  0.00  0.00    -0.388 OA
HETATM   27  H   UNK N   1      32.235  13.797   9.171  0.00  0.00     0.210 HD
ENDBRANCH   3  26
BRANCH   4  28
HETATM   28  N   UNK N   1      31.781  16.566   7.627  0.00  0.00    -0.297 N 
HETATM   29  C   UNK N   1      31.941  17.354   8.722  0.00  0.00     0.188 A 
HETATM   30  N   UNK N   1      30.769  17.956   9.076  0.00  0.00    -0.346 N 
HETATM   31  C   UNK N   1      29.883  17.515   8.166  0.00  0.00     0.122 A 
ATOM     32  HN  UNK N   1      30.604  18.594   9.855  1.00  0.00     0.167 HD
HETATM   33  C   UNK N   1      28.537  17.811   8.017  0.00  0.00     0.131 A 
HETATM   34  C   UNK N   1      30.488  16.679   7.301  0.00  0.00     0.142 A 
HETATM   35  N   UNK N   1      27.863  17.223   6.984  0.00  0.00    -0.337 N 
HETATM   36  C   UNK N   1      28.503  16.367   6.119  0.00  0.00     0.183 A 
ATOM     37  HN  UNK N   1      26.871  17.421   6.854  1.00  0.00     0.168 HD
HETATM   38  N   UNK N   1      29.835  16.092   6.272  0.00  0.00    -0.336 N 
ATOM     39  HN  UNK N   1      30.321  15.466   5.629  1.00  0.00     0.168 HD
BRANCH  33  40
HETATM   40  N   UNK N   1      27.881  18.700   8.892  0.00  0.00    -0.383 N 
HETATM   41  H   UNK N   1      27.170  18.385   9.495  0.00  0.00     0.157 HD
HETATM   42  H   UNK N   1      28.137  19.651   8.899  0.00  0.00     0.157 HD
ENDBRANCH  33  40
ENDBRANCH   4  28
TORSDOF 15
ENDMDL
MODEL 9
REMARK VINA RESULT:      -6.4      5.718      9.798
REMARK  15 active torsions:
REMARK  status: ('A' for Active; 'I' for Inactive)
REMARK    1  A    between atoms: C_7  and  C_3 
REMARK    2  A    between atoms: O_32  and  C_3 
REMARK    3  A    between atoms: C_16  and  C_4 
REMARK    4  A    between atoms: O_25  and  C_4 
REMARK    5  A    between atoms: C_9  and  O_26 
REMARK    6  A    between atoms: C_10  and  O_27 
REMARK    7  A    between atoms: C_15  and  C_11 
REMARK    8  A    between atoms: C_16  and  C_11 
REMARK    9  A    between atoms: C_11  and  O_28 
REMARK   10  A    between atoms: N_17  and  C_12 
REMARK   11  A    between atoms: C_14  and  N_24 
REMARK   12  A    between atoms: O_34  and  C_15 
REMARK   13  A    between atoms: P_35  and  O_30 
REMARK   14  A    between atoms: P_35  and  O_32 
REMARK   15  A    between atoms: P_35  and  O_34 
ROOT
HETATM    1  C   UNK N   1      36.432  14.144  10.672  0.00  0.00     0.180 C 
HETATM    2  C   UNK N   1      36.107  15.152  11.773  0.00  0.00     0.182 C 
HETATM    3  C   UNK N   1      35.637  14.233  12.867  0.00  0.00     0.198 C 
HETATM    4  C   UNK N   1      36.723  13.171  12.712  0.00  0.00     0.262 C 
HETATM    5  O   UNK N   1      36.920  12.981  11.324  0.00  0.00    -0.353 OA
ENDROOT
BRANCH   1   6
HETATM    6  C   UNK N   1      35.220  13.779   9.791  0.00  0.00     0.215 C 
BRANCH   6   7
HETATM    7  O   UNK N   1      34.799  14.828   8.947  0.00  0.00    -0.294 OA
BRANCH   7   8
HETATM    8  P   UNK N   1      33.070  15.087   9.105  0.00  0.00     0.400 P 
HETATM    9  O   UNK N   1      32.314  14.005   8.288  0.00  0.00    -0.631 OA
BRANCH   8  10
HETATM   10  O   UNK N   1      32.609  14.971  10.772  0.00  0.00    -0.307 OA
HETATM   11  H   UNK N   1      32.561  14.636  11.682  0.00  0.00     0.222 HD
ENDBRANCH   8  10
BRANCH   8  12
HETATM   12  O   UNK N   1      32.727  16.701   8.586  0.00  0.00    -0.218 OA
BRANCH  12  13
HETATM   13  C   UNK N   1      33.324  17.596   7.750  0.00  0.00     0.297 C 
HETATM   14  O   UNK N   1      33.455  18.731   8.173  0.00  0.00    -0.262 OA
BRANCH  13  15
HETATM   15  C   UNK N   1      33.826  17.313   6.330  0.00  0.00     0.228 C 
BRANCH  15  16
HETATM   16  C   UNK N   1      32.698  16.796   5.384  0.00  0.00     0.009 C 
HETATM   17  C   UNK N   1      32.893  15.313   5.091  0.00  0.00     0.020 C 
HETATM   18  C   UNK N   1      32.752  17.556   4.064  0.00  0.00     0.020 C 
BRANCH  16  19
HETATM   19  C   UNK N   1      31.310  17.024   5.998  0.00  0.00     0.175 C 
BRANCH  19  20
HETATM   20  O   UNK N   1      30.709  15.824   6.391  0.00  0.00    -0.400 OA
HETATM   21  H   UNK N   1      29.962  15.680   6.993  0.00  0.00     0.209 HD
ENDBRANCH  19  20
ENDBRANCH  16  19
ENDBRANCH  15  16
BRANCH  15  22
HETATM   22  O   UNK N   1      34.877  16.399   6.317  0.00  0.00    -0.385 OA
HETATM   23  H   UNK N   1      34.855  15.445   6.492  0.00  0.00     0.210 HD
ENDBRANCH  15  22
ENDBRANCH  13  15
ENDBRANCH  12  13
ENDBRANCH   8  12
ENDBRANCH   7   8
ENDBRANCH   6   7
ENDBRANCH   1   6
BRANCH   2  24
HETATM   24  O   UNK N   1      35.178  16.129  11.403  0.00  0.00    -0.390 OA
HETATM   25  H   UNK N   1      34.243  16.132  11.147  0.00  0.00     0.210 HD
ENDBRANCH   2  24
BRANCH   3  26
HETATM   26  O   UNK N   1      34.379  13.699  12.560  0.00  0.00    -0.388 OA
HETATM   27  H   UNK N   1      33.419  13.563  12.553  0.00  0.00     0.210 HD
ENDBRANCH   3  26
BRANCH   4  28
HETATM   28  N   UNK N   1      36.405  11.906  13.377  0.00  0.00    -0.297 N 
HETATM   29  C   UNK N   1      36.434  10.662  12.832  0.00  0.00     0.188 A 
HETATM   30  N   UNK N   1      36.139   9.706  13.758  0.00  0.00    -0.346 N 
HETATM   31  C   UNK N   1      35.927  10.398  14.891  0.00  0.00     0.122 A 
ATOM     32  HN  UNK N   1      36.088   8.696  13.622  1.00  0.00     0.167 HD
HETATM   33  C   UNK N   1      35.613   9.950  16.164  0.00  0.00     0.131 A 
HETATM   34  C   UNK N   1      36.082  11.717  14.662  0.00  0.00     0.142 A 
HETATM   35  N   UNK N   1      35.459  10.881  17.152  0.00  0.00    -0.337 N 
HETATM   36  C   UNK N   1      35.616  12.222  16.890  0.00  0.00     0.183 A 
ATOM     37  HN  UNK N   1      35.225  10.578  18.097  1.00  0.00     0.168 HD
HETATM   38  N   UNK N   1      35.938  12.650  15.630  0.00  0.00    -0.336 N 
ATOM     39  HN  UNK N   1      36.066  13.642  15.428  1.00  0.00     0.168 HD
BRANCH  33  40
HETATM   40  N   UNK N   1      35.466   8.575  16.441  0.00  0.00    -0.383 N 
HETATM   41  H   UNK N   1      34.911   7.999  15.868  0.00  0.00     0.157 HD
HETATM   42  H   UNK N   1      35.926   8.187  17.220  0.00  0.00     0.157 HD
ENDBRANCH  33  40
ENDBRANCH   4  28
TORSDOF 15
ENDMDL
