MODEL 1
REMARK VINA RESULT:      -5.5      0.000      0.000
REMARK  13 active torsions:
REMARK  status: ('A' for Active; 'I' for Inactive)
REMARK    1  A    between atoms: C_8  and  C_4 
REMARK    2  A    between atoms: C_11  and  C_6 
REMARK    3  A    between atoms: N_17  and  C_6 
REMARK    4  A    between atoms: C_10  and  C_7 
REMARK    5  A    between atoms: O_24  and  C_7 
REMARK    6  A    between atoms: C_12  and  C_8 
REMARK    7  A    between atoms: C_14  and  C_12 
REMARK    8  A    between atoms: C_12  and  N_17 
REMARK    9  A    between atoms: O_18  and  C_13 
REMARK   10  A    between atoms: O_20  and  C_14 
REMARK   11  A    between atoms: P_25  and  O_21 
REMARK   12  A    between atoms: P_25  and  O_22 
REMARK   13  A    between atoms: P_25  and  O_24 
ROOT
HETATM    1  C   UNK N   1      26.691  30.518  -3.310  0.00  0.00     0.071 C 
HETATM    2  C   UNK N   1      29.474  28.219  -4.253  0.00  0.00     0.098 A 
HETATM    3  C   UNK N   1      27.446  29.262  -3.590  0.00  0.00     0.039 A 
HETATM    4  C   UNK N   1      28.910  26.954  -4.082  0.00  0.00    -0.008 A 
HETATM    5  C   UNK N   1      27.575  26.848  -3.663  0.00  0.00     0.004 A 
HETATM    6  C   UNK N   1      26.835  28.013  -3.412  0.00  0.00     0.096 A 
HETATM    7  N   UNK N   1      28.737  29.338  -4.007  0.00  0.00    -0.367 N 
ATOM      8  HN  UNK N   1      29.164  30.255  -4.140  1.00  0.00     0.165 HD
ENDROOT
BRANCH   5   9
HETATM    9  C   UNK N   1      26.946  25.509  -3.440  0.00  0.00     0.157 C 
BRANCH   9  10
HETATM   10  N   UNK N   1      25.873  25.266  -4.407  0.00  0.00    -0.404 N 
HETATM   11  H   UNK N   1      24.880  25.255  -4.174  0.00  0.00     0.154 HD
BRANCH  10  12
HETATM   12  C   UNK N   1      26.417  25.038  -5.759  0.00  0.00     0.179 C 
BRANCH  12  13
HETATM   13  C   UNK N   1      25.823  26.061  -6.773  0.00  0.00     0.014 C 
HETATM   14  C   UNK N   1      24.740  26.902  -6.108  0.00  0.00     0.012 C 
BRANCH  13  15
HETATM   15  C   UNK N   1      26.866  26.992  -7.405  0.00  0.00     0.002 C 
HETATM   16  C   UNK N   1      28.198  26.312  -7.682  0.00  0.00     0.005 C 
ENDBRANCH  13  15
ENDBRANCH  12  13
BRANCH  12  17
HETATM   17  C   UNK N   1      26.238  23.589  -6.195  0.00  0.00     0.163 C 
HETATM   18  O   UNK N   1      25.123  23.107  -6.323  0.00  0.00    -0.648 OA
BRANCH  17  19
HETATM   19  O   UNK N   1      27.317  22.808  -6.400  0.00  0.00    -0.775 OA
HETATM   20  H   UNK N   1      27.745  22.766  -7.232  0.00  0.00     0.167 HD
ENDBRANCH  17  19
ENDBRANCH  12  17
ENDBRANCH  10  12
ENDBRANCH   9  10
ENDBRANCH   5   9
BRANCH   4  21
HETATM   21  C   UNK N   1      29.743  25.731  -4.282  0.00  0.00     0.221 C 
BRANCH  21  22
HETATM   22  O   UNK N   1      30.488  25.413  -3.147  0.00  0.00    -0.292 OA
BRANCH  22  23
HETATM   23  P   UNK N   1      30.522  23.673  -3.151  0.00  0.00     0.391 P 
HETATM   24  O   UNK N   1      31.874  23.221  -3.770  0.00  0.00    -0.632 OA
BRANCH  23  25
HETATM   25  O   UNK N   1      30.466  23.022  -1.543  0.00  0.00    -0.307 OA
HETATM   26  H   UNK N   1      29.827  22.722  -0.878  0.00  0.00     0.222 HD
ENDBRANCH  23  25
BRANCH  23  27
HETATM   27  O   UNK N   1      29.252  23.013  -4.134  0.00  0.00    -0.307 OA
HETATM   28  H   UNK N   1      28.694  22.227  -4.233  0.00  0.00     0.222 HD
ENDBRANCH  23  27
ENDBRANCH  22  23
ENDBRANCH  21  22
ENDBRANCH   4  21
BRANCH   6  29
HETATM   29  O   UNK N   1      25.559  27.930  -2.993  0.00  0.00    -0.358 OA
HETATM   30  H   UNK N   1      25.145  27.095  -2.901  0.00  0.00     0.217 HD
ENDBRANCH   6  29
TORSDOF 13
ENDMDL
MODEL 2
REMARK VINA RESULT:      -5.3     14.316     16.651
REMARK  13 active torsions:
REMARK  status: ('A' for Active; 'I' for Inactive)
REMARK    1  A    between atoms: C_8  and  C_4 
REMARK    2  A    between atoms: C_11  and  C_6 
REMARK    3  A    between atoms: N_17  and  C_6 
REMARK    4  A    between atoms: C_10  and  C_7 
REMARK    5  A    between atoms: O_24  and  C_7 
REMARK    6  A    between atoms: C_12  and  C_8 
REMARK    7  A    between atoms: C_14  and  C_12 
REMARK    8  A    between atoms: C_12  and  N_17 
REMARK    9  A    between atoms: O_18  and  C_13 
REMARK   10  A    between atoms: O_20  and  C_14 
REMARK   11  A    between atoms: P_25  and  O_21 
REMARK   12  A    between atoms: P_25  and  O_22 
REMARK   13  A    between atoms: P_25  and  O_24 
ROOT
HETATM    1  C   UNK N   1      28.115  18.926   8.437  0.00  0.00     0.071 C 
HETATM    2  C   UNK N   1      29.821  16.789   5.899  0.00  0.00     0.098 A 
HETATM    3  C   UNK N   1      29.058  17.943   7.829  0.00  0.00     0.039 A 
HETATM    4  C   UNK N   1      30.818  16.153   6.640  0.00  0.00    -0.008 A 
HETATM    5  C   UNK N   1      30.925  16.417   8.015  0.00  0.00     0.004 A 
HETATM    6  C   UNK N   1      30.039  17.322   8.616  0.00  0.00     0.096 A 
HETATM    7  N   UNK N   1      28.968  17.662   6.503  0.00  0.00    -0.367 N 
ATOM      8  HN  UNK N   1      28.244  18.116   5.947  1.00  0.00     0.165 HD
ENDROOT
BRANCH   5   9
HETATM    9  C   UNK N   1      32.000  15.776   8.835  0.00  0.00     0.157 C 
BRANCH   9  10
HETATM   10  N   UNK N   1      32.959  16.774   9.313  0.00  0.00    -0.404 N 
HETATM   11  H   UNK N   1      32.772  17.442  10.061  0.00  0.00     0.154 HD
BRANCH  10  12
HETATM   12  C   UNK N   1      34.231  16.688   8.570  0.00  0.00     0.179 C 
BRANCH  12  13
HETATM   13  C   UNK N   1      35.382  16.202   9.500  0.00  0.00     0.014 C 
HETATM   14  C   UNK N   1      34.980  16.343  10.964  0.00  0.00     0.012 C 
BRANCH  13  15
HETATM   15  C   UNK N   1      35.831  14.758   9.238  0.00  0.00     0.002 C 
HETATM   16  C   UNK N   1      34.896  13.715   9.829  0.00  0.00     0.005 C 
ENDBRANCH  13  15
ENDBRANCH  12  13
BRANCH  12  17
HETATM   17  C   UNK N   1      34.548  17.995   7.855  0.00  0.00     0.163 C 
HETATM   18  O   UNK N   1      34.273  18.147   6.674  0.00  0.00    -0.648 OA
BRANCH  17  19
HETATM   19  O   UNK N   1      35.180  18.987   8.512  0.00  0.00    -0.775 OA
HETATM   20  H   UNK N   1      35.702  19.623   8.064  0.00  0.00     0.167 HD
ENDBRANCH  17  19
ENDBRANCH  12  17
ENDBRANCH  10  12
ENDBRANCH   9  10
ENDBRANCH   5   9
BRANCH   4  21
HETATM   21  C   UNK N   1      31.796  15.253   5.960  0.00  0.00     0.221 C 
BRANCH  21  22
HETATM   22  O   UNK N   1      31.504  15.091   4.605  0.00  0.00    -0.292 OA
BRANCH  22  23
HETATM   23  P   UNK N   1      32.765  15.983   3.802  0.00  0.00     0.391 P 
HETATM   24  O   UNK N   1      33.152  15.209   2.513  0.00  0.00    -0.632 OA
BRANCH  23  25
HETATM   25  O   UNK N   1      32.226  17.554   3.301  0.00  0.00    -0.307 OA
HETATM   26  H   UNK N   1      31.760  17.989   2.570  0.00  0.00     0.222 HD
ENDBRANCH  23  25
BRANCH  23  27
HETATM   27  O   UNK N   1      34.189  16.099   4.789  0.00  0.00    -0.307 OA
HETATM   28  H   UNK N   1      34.867  15.553   5.217  0.00  0.00     0.222 HD
ENDBRANCH  23  27
ENDBRANCH  22  23
ENDBRANCH  21  22
ENDBRANCH   4  21
BRANCH   6  29
HETATM   29  O   UNK N   1      30.138  17.600   9.928  0.00  0.00    -0.358 OA
HETATM   30  H   UNK N   1      29.797  18.404  10.268  0.00  0.00     0.217 HD
ENDBRANCH   6  29
TORSDOF 13
ENDMDL
MODEL 3
REMARK VINA RESULT:      -5.3     20.672     23.113
REMARK  13 active torsions:
REMARK  status: ('A' for Active; 'I' for Inactive)
REMARK    1  A    between atoms: C_8  and  C_4 
REMARK    2  A    between atoms: C_11  and  C_6 
REMARK    3  A    between atoms: N_17  and  C_6 
REMARK    4  A    between atoms: C_10  and  C_7 
REMARK    5  A    between atoms: O_24  and  C_7 
REMARK    6  A    between atoms: C_12  and  C_8 
REMARK    7  A    between atoms: C_14  and  C_12 
REMARK    8  A    between atoms: C_12  and  N_17 
REMARK    9  A    between atoms: O_18  and  C_13 
REMARK   10  A    between atoms: O_20  and  C_14 
REMARK   11  A    between atoms: P_25  and  O_21 
REMARK   12  A    between atoms: P_25  and  O_22 
REMARK   13  A    between atoms: P_25  and  O_24 
ROOT
HETATM    1  C   UNK N   1      31.982   8.985   9.783  0.00  0.00     0.071 C 
HETATM    2  C   UNK N   1      33.815  11.896   8.340  0.00  0.00     0.098 A 
HETATM    3  C   UNK N   1      32.945  10.115   9.649  0.00  0.00     0.039 A 
HETATM    4  C   UNK N   1      34.691  12.257   9.366  0.00  0.00    -0.008 A 
HETATM    5  C   UNK N   1      34.695  11.517  10.558  0.00  0.00     0.004 A 
HETATM    6  C   UNK N   1      33.813  10.436  10.703  0.00  0.00     0.096 A 
HETATM    7  N   UNK N   1      32.969  10.840   8.501  0.00  0.00    -0.367 N 
ATOM      8  HN  UNK N   1      32.338  10.588   7.740  1.00  0.00     0.165 HD
ENDROOT
BRANCH   5   9
HETATM    9  C   UNK N   1      35.598  11.894  11.690  0.00  0.00     0.157 C 
BRANCH   9  10
HETATM   10  N   UNK N   1      34.841  12.513  12.780  0.00  0.00    -0.404 N 
HETATM   11  H   UNK N   1      33.937  12.971  12.667  0.00  0.00     0.154 HD
BRANCH  10  12
HETATM   12  C   UNK N   1      35.560  12.389  14.063  0.00  0.00     0.179 C 
BRANCH  12  13
HETATM   13  C   UNK N   1      34.558  12.193  15.240  0.00  0.00     0.014 C 
HETATM   14  C   UNK N   1      33.674  10.976  14.990  0.00  0.00     0.012 C 
BRANCH  13  15
HETATM   15  C   UNK N   1      35.226  12.057  16.614  0.00  0.00     0.002 C 
HETATM   16  C   UNK N   1      34.994  13.254  17.523  0.00  0.00     0.005 C 
ENDBRANCH  13  15
ENDBRANCH  12  13
BRANCH  12  17
HETATM   17  C   UNK N   1      36.519  13.551  14.279  0.00  0.00     0.163 C 
HETATM   18  O   UNK N   1      36.308  14.642  13.769  0.00  0.00    -0.648 OA
BRANCH  17  19
HETATM   19  O   UNK N   1      37.642  13.375  15.004  0.00  0.00    -0.775 OA
HETATM   20  H   UNK N   1      38.491  13.386  14.610  0.00  0.00     0.167 HD
ENDBRANCH  17  19
ENDBRANCH  12  17
ENDBRANCH  10  12
ENDBRANCH   9  10
ENDBRANCH   5   9
BRANCH   4  21
HETATM   21  C   UNK N   1      35.565  13.459   9.213  0.00  0.00     0.221 C 
BRANCH  21  22
HETATM   22  O   UNK N   1      34.830  14.606   8.916  0.00  0.00    -0.292 OA
BRANCH  22  23
HETATM   23  P   UNK N   1      34.977  15.574  10.355  0.00  0.00     0.391 P 
HETATM   24  O   UNK N   1      34.003  14.999  11.420  0.00  0.00    -0.632 OA
BRANCH  23  25
HETATM   25  O   UNK N   1      36.571  15.485  11.033  0.00  0.00    -0.307 OA
HETATM   26  H   UNK N   1      37.454  15.871  10.925  0.00  0.00     0.222 HD
ENDBRANCH  23  25
BRANCH  23  27
HETATM   27  O   UNK N   1      34.515  17.223  10.063  0.00  0.00    -0.307 OA
HETATM   28  H   UNK N   1      34.321  18.053  10.524  0.00  0.00     0.222 HD
ENDBRANCH  23  27
ENDBRANCH  22  23
ENDBRANCH  21  22
ENDBRANCH   4  21
BRANCH   6  29
HETATM   29  O   UNK N   1      33.790   9.727  11.846  0.00  0.00    -0.358 OA
HETATM   30  H   UNK N   1      34.521   9.190  12.083  0.00  0.00     0.217 HD
ENDBRANCH   6  29
TORSDOF 13
ENDMDL
MODEL 4
REMARK VINA RESULT:      -5.3     11.688     13.712
REMARK  13 active torsions:
REMARK  status: ('A' for Active; 'I' for Inactive)
REMARK    1  A    between atoms: C_8  and  C_4 
REMARK    2  A    between atoms: C_11  and  C_6 
REMARK    3  A    between atoms: N_17  and  C_6 
REMARK    4  A    between atoms: C_10  and  C_7 
REMARK    5  A    between atoms: O_24  and  C_7 
REMARK    6  A    between atoms: C_12  and  C_8 
REMARK    7  A    between atoms: C_14  and  C_12 
REMARK    8  A    between atoms: C_12  and  N_17 
REMARK    9  A    between atoms: O_18  and  C_13 
REMARK   10  A    between atoms: O_20  and  C_14 
REMARK   11  A    between atoms: P_25  and  O_21 
REMARK   12  A    between atoms: P_25  and  O_22 
REMARK   13  A    between atoms: P_25  and  O_24 
ROOT
HETATM    1  C   UNK N   1      20.649  21.171   0.968  0.00  0.00     0.071 C 
HETATM    2  C   UNK N   1      19.899  17.995   2.776  0.00  0.00     0.098 A 
HETATM    3  C   UNK N   1      20.763  20.042   1.935  0.00  0.00     0.039 A 
HETATM    4  C   UNK N   1      20.954  17.893   3.686  0.00  0.00    -0.008 A 
HETATM    5  C   UNK N   1      21.929  18.902   3.722  0.00  0.00     0.004 A 
HETATM    6  C   UNK N   1      21.835  19.986   2.837  0.00  0.00     0.096 A 
HETATM    7  N   UNK N   1      19.825  19.059   1.928  0.00  0.00    -0.367 N 
ATOM      8  HN  UNK N   1      19.047  19.119   1.272  1.00  0.00     0.165 HD
ENDROOT
BRANCH   5   9
HETATM    9  C   UNK N   1      23.089  18.811   4.663  0.00  0.00     0.157 C 
BRANCH   9  10
HETATM   10  N   UNK N   1      24.359  18.891   3.938  0.00  0.00    -0.404 N 
HETATM   11  H   UNK N   1      24.440  19.043   2.932  0.00  0.00     0.154 HD
BRANCH  10  12
HETATM   12  C   UNK N   1      25.504  18.721   4.853  0.00  0.00     0.179 C 
BRANCH  12  13
HETATM   13  C   UNK N   1      26.736  19.531   4.350  0.00  0.00     0.014 C 
HETATM   14  C   UNK N   1      26.344  20.428   3.182  0.00  0.00     0.012 C 
BRANCH  13  15
HETATM   15  C   UNK N   1      27.409  20.383   5.435  0.00  0.00     0.002 C 
HETATM   16  C   UNK N   1      26.440  20.912   6.480  0.00  0.00     0.005 C 
ENDBRANCH  13  15
ENDBRANCH  12  13
BRANCH  12  17
HETATM   17  C   UNK N   1      25.812  17.249   5.094  0.00  0.00     0.163 C 
HETATM   18  O   UNK N   1      26.473  16.607   4.291  0.00  0.00    -0.648 OA
BRANCH  17  19
HETATM   19  O   UNK N   1      25.316  16.625   6.180  0.00  0.00    -0.775 OA
HETATM   20  H   UNK N   1      25.561  16.876   7.049  0.00  0.00     0.167 HD
ENDBRANCH  17  19
ENDBRANCH  12  17
ENDBRANCH  10  12
ENDBRANCH   9  10
ENDBRANCH   5   9
BRANCH   4  21
HETATM   21  C   UNK N   1      21.069  16.690   4.563  0.00  0.00     0.221 C 
BRANCH  21  22
HETATM   22  O   UNK N   1      20.010  16.597   5.466  0.00  0.00    -0.292 OA
BRANCH  22  23
HETATM   23  P   UNK N   1      20.787  16.189   6.970  0.00  0.00     0.391 P 
HETATM   24  O   UNK N   1      22.311  16.054   6.701  0.00  0.00    -0.632 OA
BRANCH  23  25
HETATM   25  O   UNK N   1      20.596  17.440   8.156  0.00  0.00    -0.307 OA
HETATM   26  H   UNK N   1      21.105  18.139   8.597  0.00  0.00     0.222 HD
ENDBRANCH  23  25
BRANCH  23  27
HETATM   27  O   UNK N   1      20.228  14.662   7.580  0.00  0.00    -0.307 OA
HETATM   28  H   UNK N   1      20.344  14.048   8.321  0.00  0.00     0.222 HD
ENDBRANCH  23  27
ENDBRANCH  22  23
ENDBRANCH  21  22
ENDBRANCH   4  21
BRANCH   6  29
HETATM   29  O   UNK N   1      22.771  20.952   2.845  0.00  0.00    -0.358 OA
HETATM   30  H   UNK N   1      23.257  21.146   2.068  0.00  0.00     0.217 HD
ENDBRANCH   6  29
TORSDOF 13
ENDMDL
MODEL 5
REMARK VINA RESULT:      -5.2     11.029     13.109
REMARK  13 active torsions:
REMARK  status: ('A' for Active; 'I' for Inactive)
REMARK    1  A    between atoms: C_8  and  C_4 
REMARK    2  A    between atoms: C_11  and  C_6 
REMARK    3  A    between atoms: N_17  and  C_6 
REMARK    4  A    between atoms: C_10  and  C_7 
REMARK    5  A    between atoms: O_24  and  C_7 
REMARK    6  A    between atoms: C_12  and  C_8 
REMARK    7  A    between atoms: C_14  and  C_12 
REMARK    8  A    between atoms: C_12  and  N_17 
REMARK    9  A    between atoms: O_18  and  C_13 
REMARK   10  A    between atoms: O_20  and  C_14 
REMARK   11  A    between atoms: P_25  and  O_21 
REMARK   12  A    between atoms: P_25  and  O_22 
REMARK   13  A    between atoms: P_25  and  O_24 
ROOT
HETATM    1  C   UNK N   1      20.641  21.108   1.040  0.00  0.00     0.071 C 
HETATM    2  C   UNK N   1      20.067  17.875   2.811  0.00  0.00     0.098 A 
HETATM    3  C   UNK N   1      20.830  19.964   1.978  0.00  0.00     0.039 A 
HETATM    4  C   UNK N   1      21.160  17.791   3.676  0.00  0.00    -0.008 A 
HETATM    5  C   UNK N   1      22.103  18.829   3.694  0.00  0.00     0.004 A 
HETATM    6  C   UNK N   1      21.939  19.927   2.836  0.00  0.00     0.096 A 
HETATM    7  N   UNK N   1      19.925  18.951   1.989  0.00  0.00    -0.367 N 
ATOM      8  HN  UNK N   1      19.119  18.998   1.365  1.00  0.00     0.165 HD
ENDROOT
BRANCH   5   9
HETATM    9  C   UNK N   1      23.301  18.759   4.587  0.00  0.00     0.157 C 
BRANCH   9  10
HETATM   10  N   UNK N   1      24.529  18.607   3.803  0.00  0.00    -0.404 N 
HETATM   11  H   UNK N   1      24.556  18.481   2.791  0.00  0.00     0.154 HD
BRANCH  10  12
HETATM   12  C   UNK N   1      25.723  18.660   4.670  0.00  0.00     0.179 C 
BRANCH  12  13
HETATM   13  C   UNK N   1      26.842  19.523   4.017  0.00  0.00     0.014 C 
HETATM   14  C   UNK N   1      26.235  20.570   3.089  0.00  0.00     0.012 C 
BRANCH  13  15
HETATM   15  C   UNK N   1      27.764  20.220   5.026  0.00  0.00     0.002 C 
HETATM   16  C   UNK N   1      27.060  21.278   5.861  0.00  0.00     0.005 C 
ENDBRANCH  13  15
ENDBRANCH  12  13
BRANCH  12  17
HETATM   17  C   UNK N   1      26.191  17.263   5.057  0.00  0.00     0.163 C 
HETATM   18  O   UNK N   1      26.729  16.533   4.239  0.00  0.00    -0.648 OA
BRANCH  17  19
HETATM   19  O   UNK N   1      25.975  16.800   6.304  0.00  0.00    -0.775 OA
HETATM   20  H   UNK N   1      25.169  16.954   6.756  0.00  0.00     0.167 HD
ENDBRANCH  17  19
ENDBRANCH  12  17
ENDBRANCH  10  12
ENDBRANCH   9  10
ENDBRANCH   5   9
BRANCH   4  21
HETATM   21  C   UNK N   1      21.349  16.575   4.523  0.00  0.00     0.221 C 
BRANCH  21  22
HETATM   22  O   UNK N   1      21.418  15.410   3.759  0.00  0.00    -0.292 OA
BRANCH  22  23
HETATM   23  P   UNK N   1      23.061  14.875   3.974  0.00  0.00     0.391 P 
HETATM   24  O   UNK N   1      23.496  15.231   5.422  0.00  0.00    -0.632 OA
BRANCH  23  25
HETATM   25  O   UNK N   1      23.204  13.153   3.817  0.00  0.00    -0.307 OA
HETATM   26  H   UNK N   1      23.843  12.475   3.544  0.00  0.00     0.222 HD
ENDBRANCH  23  25
BRANCH  23  27
HETATM   27  O   UNK N   1      24.143  15.691   2.889  0.00  0.00    -0.307 OA
HETATM   28  H   UNK N   1      24.420  15.712   1.960  0.00  0.00     0.222 HD
ENDBRANCH  23  27
ENDBRANCH  22  23
ENDBRANCH  21  22
ENDBRANCH   4  21
BRANCH   6  29
HETATM   29  O   UNK N   1      22.842  20.923   2.827  0.00  0.00    -0.358 OA
HETATM   30  H   UNK N   1      23.565  20.900   2.231  0.00  0.00     0.217 HD
ENDBRANCH   6  29
TORSDOF 13
ENDMDL
MODEL 6
REMARK VINA RESULT:      -5.2      2.683      5.638
REMARK  13 active torsions:
REMARK  status: ('A' for Active; 'I' for Inactive)
REMARK    1  A    between atoms: C_8  and  C_4 
REMARK    2  A    between atoms: C_11  and  C_6 
REMARK    3  A    between atoms: N_17  and  C_6 
REMARK    4  A    between atoms: C_10  and  C_7 
REMARK    5  A    between atoms: O_24  and  C_7 
REMARK    6  A    between atoms: C_12  and  C_8 
REMARK    7  A    between atoms: C_14  and  C_12 
REMARK    8  A    between atoms: C_12  and  N_17 
REMARK    9  A    between atoms: O_18  and  C_13 
REMARK   10  A    between atoms: O_20  and  C_14 
REMARK   11  A    between atoms: P_25  and  O_21 
REMARK   12  A    between atoms: P_25  and  O_22 
REMARK   13  A    between atoms: P_25  and  O_24 
ROOT
HETATM    1  C   UNK N   1      32.178  23.262  -4.269  0.00  0.00     0.071 C 
HETATM    2  C   UNK N   1      29.284  22.457  -6.481  0.00  0.00     0.098 A 
HETATM    3  C   UNK N   1      30.800  23.261  -4.839  0.00  0.00     0.039 A 
HETATM    4  C   UNK N   1      28.240  23.191  -5.915  0.00  0.00    -0.008 A 
HETATM    5  C   UNK N   1      28.493  23.987  -4.787  0.00  0.00     0.004 A 
HETATM    6  C   UNK N   1      29.785  24.022  -4.241  0.00  0.00     0.096 A 
HETATM    7  N   UNK N   1      30.532  22.508  -5.937  0.00  0.00    -0.367 N 
ATOM      8  HN  UNK N   1      31.284  21.968  -6.365  1.00  0.00     0.165 HD
ENDROOT
BRANCH   5   9
HETATM    9  C   UNK N   1      27.392  24.763  -4.136  0.00  0.00     0.157 C 
BRANCH   9  10
HETATM   10  N   UNK N   1      27.566  26.201  -4.353  0.00  0.00    -0.404 N 
HETATM   11  H   UNK N   1      28.450  26.698  -4.244  0.00  0.00     0.154 HD
BRANCH  10  12
HETATM   12  C   UNK N   1      26.293  26.837  -4.747  0.00  0.00     0.179 C 
BRANCH  12  13
HETATM   13  C   UNK N   1      26.373  27.369  -6.209  0.00  0.00     0.014 C 
HETATM   14  C   UNK N   1      27.818  27.668  -6.590  0.00  0.00     0.012 C 
BRANCH  13  15
HETATM   15  C   UNK N   1      25.762  26.424  -7.253  0.00  0.00     0.002 C 
HETATM   16  C   UNK N   1      26.606  26.282  -8.510  0.00  0.00     0.005 C 
ENDBRANCH  13  15
ENDBRANCH  12  13
BRANCH  12  17
HETATM   17  C   UNK N   1      25.867  27.900  -3.743  0.00  0.00     0.163 C 
HETATM   18  O   UNK N   1      25.515  27.591  -2.615  0.00  0.00    -0.648 OA
BRANCH  17  19
HETATM   19  O   UNK N   1      25.833  29.197  -4.107  0.00  0.00    -0.775 OA
HETATM   20  H   UNK N   1      26.502  29.800  -3.850  0.00  0.00     0.167 HD
ENDBRANCH  17  19
ENDBRANCH  12  17
ENDBRANCH  10  12
ENDBRANCH   9  10
ENDBRANCH   5   9
BRANCH   4  21
HETATM   21  C   UNK N   1      26.859  23.076  -6.471  0.00  0.00     0.221 C 
BRANCH  21  22
HETATM   22  O   UNK N   1      26.866  22.759  -7.829  0.00  0.00    -0.292 OA
BRANCH  22  23
HETATM   23  P   UNK N   1      25.232  22.244  -8.140  0.00  0.00     0.391 P 
HETATM   24  O   UNK N   1      24.437  23.468  -8.672  0.00  0.00    -0.632 OA
BRANCH  23  25
HETATM   25  O   UNK N   1      25.163  21.026  -9.373  0.00  0.00    -0.307 OA
HETATM   26  H   UNK N   1      24.519  20.548  -9.920  0.00  0.00     0.222 HD
ENDBRANCH  23  25
BRANCH  23  27
HETATM   27  O   UNK N   1      24.447  21.705  -6.688  0.00  0.00    -0.307 OA
HETATM   28  H   UNK N   1      24.077  20.912  -6.270  0.00  0.00     0.222 HD
ENDBRANCH  23  27
ENDBRANCH  22  23
ENDBRANCH  21  22
ENDBRANCH   4  21
BRANCH   6  29
HETATM   29  O   UNK N   1      30.041  24.765  -3.150  0.00  0.00    -0.358 OA
HETATM   30  H   UNK N   1      30.444  24.376  -2.398  0.00  0.00     0.217 HD
ENDBRANCH   6  29
TORSDOF 13
ENDMDL
MODEL 7
REMARK VINA RESULT:      -5.0      2.164      4.875
REMARK  13 active torsions:
REMARK  status: ('A' for Active; 'I' for Inactive)
REMARK    1  A    between atoms: C_8  and  C_4 
REMARK    2  A    between atoms: C_11  and  C_6 
REMARK    3  A    between atoms: N_17  and  C_6 
REMARK    4  A    between atoms: C_10  and  C_7 
REMARK    5  A    between atoms: O_24  and  C_7 
REMARK    6  A    between atoms: C_12  and  C_8 
REMARK    7  A    between atoms: C_14  and  C_12 
REMARK    8  A    between atoms: C_12  and  N_17 
REMARK    9  A    between atoms: O_18  and  C_13 
REMARK   10  A    between atoms: O_20  and  C_14 
REMARK   11  A    between atoms: P_25  and  O_21 
REMARK   12  A    between atoms: P_25  and  O_22 
REMARK   13  A    between atoms: P_25  and  O_24 
ROOT
HETATM    1  C   UNK N   1      25.718  21.100  -9.149  0.00  0.00     0.071 C 
HETATM    2  C   UNK N   1      28.805  22.145  -7.333  0.00  0.00     0.098 A 
HETATM    3  C   UNK N   1      26.606  21.722  -8.125  0.00  0.00     0.039 A 
HETATM    4  C   UNK N   1      28.305  22.897  -6.268  0.00  0.00    -0.008 A 
HETATM    5  C   UNK N   1      26.918  23.053  -6.129  0.00  0.00     0.004 A 
HETATM    6  C   UNK N   1      26.059  22.462  -7.067  0.00  0.00     0.096 A 
HETATM    7  N   UNK N   1      27.952  21.577  -8.231  0.00  0.00    -0.367 N 
ATOM      8  HN  UNK N   1      28.334  21.028  -9.001  1.00  0.00     0.165 HD
ENDROOT
BRANCH   5   9
HETATM    9  C   UNK N   1      26.348  23.876  -5.018  0.00  0.00     0.157 C 
BRANCH   9  10
HETATM   10  N   UNK N   1      25.472  24.927  -5.540  0.00  0.00    -0.404 N 
HETATM   11  H   UNK N   1      24.596  24.755  -6.034  0.00  0.00     0.154 HD
BRANCH  10  12
HETATM   12  C   UNK N   1      26.023  26.267  -5.259  0.00  0.00     0.179 C 
BRANCH  12  13
HETATM   13  C   UNK N   1      26.896  26.765  -6.448  0.00  0.00     0.014 C 
HETATM   14  C   UNK N   1      26.254  26.384  -7.777  0.00  0.00     0.012 C 
BRANCH  13  15
HETATM   15  C   UNK N   1      27.168  28.276  -6.435  0.00  0.00     0.002 C 
HETATM   16  C   UNK N   1      28.425  28.672  -7.194  0.00  0.00     0.005 C 
ENDBRANCH  13  15
ENDBRANCH  12  13
BRANCH  12  17
HETATM   17  C   UNK N   1      26.754  26.300  -3.923  0.00  0.00     0.163 C 
HETATM   18  O   UNK N   1      26.137  26.395  -2.873  0.00  0.00    -0.648 OA
BRANCH  17  19
HETATM   19  O   UNK N   1      28.100  26.269  -3.889  0.00  0.00    -0.775 OA
HETATM   20  H   UNK N   1      28.589  25.568  -4.274  0.00  0.00     0.167 HD
ENDBRANCH  17  19
ENDBRANCH  12  17
ENDBRANCH  10  12
ENDBRANCH   9  10
ENDBRANCH   5   9
BRANCH   4  21
HETATM   21  C   UNK N   1      29.246  23.578  -5.329  0.00  0.00     0.221 C 
BRANCH  21  22
HETATM   22  O   UNK N   1      29.960  22.667  -4.551  0.00  0.00    -0.292 OA
BRANCH  22  23
HETATM   23  P   UNK N   1      29.988  23.405  -2.975  0.00  0.00     0.391 P 
HETATM   24  O   UNK N   1      30.891  22.537  -2.056  0.00  0.00    -0.632 OA
BRANCH  23  25
HETATM   25  O   UNK N   1      30.692  24.990  -3.016  0.00  0.00    -0.307 OA
HETATM   26  H   UNK N   1      30.434  25.925  -2.996  0.00  0.00     0.222 HD
ENDBRANCH  23  25
BRANCH  23  27
HETATM   27  O   UNK N   1      28.405  23.445  -2.262  0.00  0.00    -0.307 OA
HETATM   28  H   UNK N   1      27.696  24.057  -2.013  0.00  0.00     0.222 HD
ENDBRANCH  23  27
ENDBRANCH  22  23
ENDBRANCH  21  22
ENDBRANCH   4  21
BRANCH   6  29
HETATM   29  O   UNK N   1      24.726  22.616  -6.959  0.00  0.00    -0.358 OA
HETATM   30  H   UNK N   1      24.220  22.883  -7.701  0.00  0.00     0.217 HD
ENDBRANCH   6  29
TORSDOF 13
ENDMDL
MODEL 8
REMARK VINA RESULT:      -5.0      2.778      5.653
REMARK  13 active torsions:
REMARK  status: ('A' for Active; 'I' for Inactive)
REMARK    1  A    between atoms: C_8  and  C_4 
REMARK    2  A    between atoms: C_11  and  C_6 
REMARK    3  A    between atoms: N_17  and  C_6 
REMARK    4  A    between atoms: C_10  and  C_7 
REMARK    5  A    between atoms: O_24  and  C_7 
REMARK    6  A    between atoms: C_12  and  C_8 
REMARK    7  A    between atoms: C_14  and  C_12 
REMARK    8  A    between atoms: C_12  and  N_17 
REMARK    9  A    between atoms: O_18  and  C_13 
REMARK   10  A    between atoms: O_20  and  C_14 
REMARK   11  A    between atoms: P_25  and  O_21 
REMARK   12  A    between atoms: P_25  and  O_22 
REMARK   13  A    between atoms: P_25  and  O_24 
ROOT
HETATM    1  C   UNK N   1      25.955  28.780  -3.706  0.00  0.00     0.071 C 
HETATM    2  C   UNK N   1      25.199  25.975  -6.046  0.00  0.00     0.098 A 
HETATM    3  C   UNK N   1      26.121  27.537  -4.513  0.00  0.00     0.039 A 
HETATM    4  C   UNK N   1      26.393  25.252  -6.069  0.00  0.00    -0.008 A 
HETATM    5  C   UNK N   1      27.472  25.684  -5.282  0.00  0.00     0.004 A 
HETATM    6  C   UNK N   1      27.337  26.839  -4.498  0.00  0.00     0.096 A 
HETATM    7  N   UNK N   1      25.088  27.092  -5.275  0.00  0.00    -0.367 N 
ATOM      8  HN  UNK N   1      24.207  27.607  -5.268  1.00  0.00     0.165 HD
ENDROOT
BRANCH   5   9
HETATM    9  C   UNK N   1      28.776  24.951  -5.304  0.00  0.00     0.157 C 
BRANCH   9  10
HETATM   10  N   UNK N   1      29.057  24.341  -4.003  0.00  0.00    -0.404 N 
HETATM   11  H   UNK N   1      28.349  24.137  -3.297  0.00  0.00     0.154 HD
BRANCH  10  12
HETATM   12  C   UNK N   1      30.497  24.063  -3.846  0.00  0.00     0.179 C 
BRANCH  12  13
HETATM   13  C   UNK N   1      30.750  23.143  -2.614  0.00  0.00     0.014 C 
HETATM   14  C   UNK N   1      29.459  22.932  -1.832  0.00  0.00     0.012 C 
BRANCH  13  15
HETATM   15  C   UNK N   1      31.355  21.777  -2.967  0.00  0.00     0.002 C 
HETATM   16  C   UNK N   1      30.610  21.053  -4.078  0.00  0.00     0.005 C 
ENDBRANCH  13  15
ENDBRANCH  12  13
BRANCH  12  17
HETATM   17  C   UNK N   1      31.313  25.348  -3.813  0.00  0.00     0.163 C 
HETATM   18  O   UNK N   1      31.000  26.270  -3.075  0.00  0.00    -0.648 OA
BRANCH  17  19
HETATM   19  O   UNK N   1      32.369  25.499  -4.636  0.00  0.00    -0.775 OA
HETATM   20  H   UNK N   1      33.094  24.906  -4.623  0.00  0.00     0.167 HD
ENDBRANCH  17  19
ENDBRANCH  12  17
ENDBRANCH  10  12
ENDBRANCH   9  10
ENDBRANCH   5   9
BRANCH   4  21
HETATM   21  C   UNK N   1      26.534  24.070  -6.971  0.00  0.00     0.221 C 
BRANCH  21  22
HETATM   22  O   UNK N   1      26.195  22.879  -6.330  0.00  0.00    -0.292 OA
BRANCH  22  23
HETATM   23  P   UNK N   1      25.190  22.058  -7.491  0.00  0.00     0.391 P 
HETATM   24  O   UNK N   1      24.034  21.366  -6.718  0.00  0.00    -0.632 OA
BRANCH  23  25
HETATM   25  O   UNK N   1      24.456  23.165  -8.607  0.00  0.00    -0.307 OA
HETATM   26  H   UNK N   1      24.407  23.347  -9.558  0.00  0.00     0.222 HD
ENDBRANCH  23  25
BRANCH  23  27
HETATM   27  O   UNK N   1      26.071  20.819  -8.330  0.00  0.00    -0.307 OA
HETATM   28  H   UNK N   1      26.956  20.430  -8.406  0.00  0.00     0.222 HD
ENDBRANCH  23  27
ENDBRANCH  22  23
ENDBRANCH  21  22
ENDBRANCH   4  21
BRANCH   6  29
HETATM   29  O   UNK N   1      28.367  27.277  -3.752  0.00  0.00    -0.358 OA
HETATM   30  H   UNK N   1      29.076  26.702  -3.542  0.00  0.00     0.217 HD
ENDBRANCH   6  29
TORSDOF 13
ENDMDL
MODEL 9
REMARK VINA RESULT:      -4.9     13.377     15.725
REMARK  13 active torsions:
REMARK  status: ('A' for Active; 'I' for Inactive)
REMARK    1  A    between atoms: C_8  and  C_4 
REMARK    2  A    between atoms: C_11  and  C_6 
REMARK    3  A    between atoms: N_17  and  C_6 
REMARK    4  A    between atoms: C_10  and  C_7 
REMARK    5  A    between atoms: O_24  and  C_7 
REMARK    6  A    between atoms: C_12  and  C_8 
REMARK    7  A    between atoms: C_14  and  C_12 
REMARK    8  A    between atoms: C_12  and  N_17 
REMARK    9  A    between atoms: O_18  and  C_13 
REMARK   10  A    between atoms: O_20  and  C_14 
REMARK   11  A    between atoms: P_25  and  O_21 
REMARK   12  A    between atoms: P_25  and  O_22 
REMARK   13  A    between atoms: P_25  and  O_24 
ROOT
HETATM    1  C   UNK N   1      31.006  12.676   3.928  0.00  0.00     0.071 C 
HETATM    2  C   UNK N   1      29.260  15.941   4.382  0.00  0.00     0.098 A 
HETATM    3  C   UNK N   1      30.593  13.980   4.522  0.00  0.00     0.039 A 
HETATM    4  C   UNK N   1      29.757  16.397   5.605  0.00  0.00    -0.008 A 
HETATM    5  C   UNK N   1      30.704  15.624   6.292  0.00  0.00     0.004 A 
HETATM    6  C   UNK N   1      31.126  14.402   5.748  0.00  0.00     0.096 A 
HETATM    7  N   UNK N   1      29.686  14.753   3.870  0.00  0.00    -0.367 N 
ATOM      8  HN  UNK N   1      29.314  14.435   2.974  1.00  0.00     0.165 HD
ENDROOT
BRANCH   5   9
HETATM    9  C   UNK N   1      31.236  16.067   7.618  0.00  0.00     0.157 C 
BRANCH   9  10
HETATM   10  N   UNK N   1      32.701  16.063   7.624  0.00  0.00    -0.404 N 
HETATM   11  H   UNK N   1      33.274  15.252   7.859  0.00  0.00     0.154 HD
BRANCH  10  12
HETATM   12  C   UNK N   1      33.238  17.385   7.247  0.00  0.00     0.179 C 
BRANCH  12  13
HETATM   13  C   UNK N   1      33.876  17.336   5.826  0.00  0.00     0.014 C 
HETATM   14  C   UNK N   1      34.423  15.943   5.535  0.00  0.00     0.012 C 
BRANCH  13  15
HETATM   15  C   UNK N   1      32.921  17.748   4.698  0.00  0.00     0.002 C 
HETATM   16  C   UNK N   1      32.962  16.815   3.497  0.00  0.00     0.005 C 
ENDBRANCH  13  15
ENDBRANCH  12  13
BRANCH  12  17
HETATM   17  C   UNK N   1      34.183  17.926   8.311  0.00  0.00     0.163 C 
HETATM   18  O   UNK N   1      34.244  17.410   9.417  0.00  0.00    -0.648 OA
BRANCH  17  19
HETATM   19  O   UNK N   1      34.935  19.014   8.055  0.00  0.00    -0.775 OA
HETATM   20  H   UNK N   1      34.805  19.823   8.510  0.00  0.00     0.167 HD
ENDBRANCH  17  19
ENDBRANCH  12  17
ENDBRANCH  10  12
ENDBRANCH   9  10
ENDBRANCH   5   9
BRANCH   4  21
HETATM   21  C   UNK N   1      29.234  17.664   6.197  0.00  0.00     0.221 C 
BRANCH  21  22
HETATM   22  O   UNK N   1      27.889  17.560   6.552  0.00  0.00    -0.292 OA
BRANCH  22  23
HETATM   23  P   UNK N   1      27.204  19.068   6.015  0.00  0.00     0.391 P 
HETATM   24  O   UNK N   1      28.141  19.659   4.926  0.00  0.00    -0.632 OA
BRANCH  23  25
HETATM   25  O   UNK N   1      25.652  18.844   5.273  0.00  0.00    -0.307 OA
HETATM   26  H   UNK N   1      25.026  18.140   5.042  0.00  0.00     0.222 HD
ENDBRANCH  23  25
BRANCH  23  27
HETATM   27  O   UNK N   1      27.115  20.223   7.309  0.00  0.00    -0.307 OA
HETATM   28  H   UNK N   1      27.216  20.301   8.270  0.00  0.00     0.222 HD
ENDBRANCH  23  27
ENDBRANCH  22  23
ENDBRANCH  21  22
ENDBRANCH   4  21
BRANCH   6  29
HETATM   29  O   UNK N   1      32.020  13.639   6.402  0.00  0.00    -0.358 OA
HETATM   30  H   UNK N   1      32.068  13.665   7.338  0.00  0.00     0.217 HD
ENDBRANCH   6  29
TORSDOF 13
ENDMDL
