MODEL 1
REMARK VINA RESULT:      -7.3      0.000      0.000
REMARK  6 active torsions:
REMARK  status: ('A' for Active; 'I' for Inactive)
REMARK    1  A    between atoms: C_16  and  C_15 
REMARK    2  A    between atoms: C_23  and  C_17 
REMARK    3  A    between atoms: N_25  and  C_17 
REMARK    4  A    between atoms: C_20  and  C_18 
REMARK    5  A    between atoms: C_20  and  C_19 
REMARK    6  A    between atoms: N_26  and  C_24 
ROOT
HETATM    1  C   UNK N   1      36.172  13.793  13.282  0.00  0.00     0.089 C 
HETATM    2  N   UNK N   1      35.195  13.728  12.449  0.00  0.00    -0.363 N 
ATOM      3  HN  UNK N   1      34.256  13.624  12.833  1.00  0.00     0.165 HD
ENDROOT
BRANCH   2   4
HETATM    4  C   UNK N   1      35.323  13.792  11.029  0.00  0.00     0.070 A 
HETATM    5  C   UNK N   1      35.361  12.581  10.317  0.00  0.00     0.021 A 
HETATM    6  C   UNK N   1      35.220  11.349  10.974  0.00  0.00     0.016 A 
HETATM    7  C   UNK N   1      35.569  12.602   8.927  0.00  0.00     0.060 A 
HETATM    8  C   UNK N   1      35.294  10.153  10.256  0.00  0.00     0.001 A 
HETATM    9  C   UNK N   1      35.511  10.180   8.877  0.00  0.00     0.002 A 
HETATM   10  C   UNK N   1      35.646  11.402   8.211  0.00  0.00     0.032 A 
HETATM   11  N   UNK N   1      35.712  13.785   8.287  0.00  0.00    -0.300 N 
HETATM   12  N   UNK N   1      35.656  14.944   8.949  0.00  0.00    -0.300 N 
ATOM     13  HN  UNK N   1      35.866  13.793   7.279  1.00  0.00     0.187 HD
HETATM   14  C   UNK N   1      35.468  15.000  10.295  0.00  0.00     0.070 A 
ATOM     15  HN  UNK N   1      35.756  15.815   8.428  1.00  0.00     0.186 HD
BRANCH  14  16
HETATM   16  C   UNK N   1      35.413  16.352  10.931  0.00  0.00     0.172 C 
BRANCH  16  17
HETATM   17  N   UNK N   1      34.695  17.278  10.069  0.00  0.00    -0.425 N 
HETATM   18  H   UNK N   1      33.880  17.844   9.834  0.00  0.00     0.150 HD
HETATM   19  H   UNK N   1      35.342  17.448   9.300  0.00  0.00     0.150 HD
ENDBRANCH  16  17
ENDBRANCH  14  16
ENDBRANCH   2   4
BRANCH   1  20
HETATM   20  C   UNK N   1      35.961  13.546  14.729  0.00  0.00     0.030 C 
HETATM   21  C   UNK N   1      35.886  12.342  15.360  0.00  0.00    -0.014 C 
BRANCH  21  22
HETATM   22  C   UNK N   1      35.604  12.346  16.836  0.00  0.00    -0.025 A 
HETATM   23  C   UNK N   1      35.730  11.171  17.599  0.00  0.00     0.012 A 
HETATM   24  C   UNK N   1      35.530  11.187  18.980  0.00  0.00     0.001 A 
HETATM   25  C   UNK N   1      35.210  12.381  19.625  0.00  0.00     0.000 A 
HETATM   26  C   UNK N   1      35.085  13.560  18.885  0.00  0.00     0.001 A 
HETATM   27  C   UNK N   1      35.284  13.545  17.502  0.00  0.00     0.012 A 
ENDBRANCH  21  22
BRANCH  21  28
HETATM   28  C   UNK N   1      36.150  11.039  14.653  0.00  0.00    -0.025 A 
HETATM   29  C   UNK N   1      37.456  10.654  14.303  0.00  0.00     0.012 A 
HETATM   30  C   UNK N   1      37.701   9.428  13.679  0.00  0.00     0.001 A 
HETATM   31  C   UNK N   1      36.640   8.569  13.389  0.00  0.00     0.000 A 
HETATM   32  C   UNK N   1      35.338   8.929  13.739  0.00  0.00     0.001 A 
HETATM   33  C   UNK N   1      35.097  10.149  14.378  0.00  0.00     0.012 A 
ENDBRANCH  21  28
ENDBRANCH   1  20
TORSDOF 6
ENDMDL
MODEL 2
REMARK VINA RESULT:      -7.2     10.610     14.016
REMARK  6 active torsions:
REMARK  status: ('A' for Active; 'I' for Inactive)
REMARK    1  A    between atoms: C_16  and  C_15 
REMARK    2  A    between atoms: C_23  and  C_17 
REMARK    3  A    between atoms: N_25  and  C_17 
REMARK    4  A    between atoms: C_20  and  C_18 
REMARK    5  A    between atoms: C_20  and  C_19 
REMARK    6  A    between atoms: N_26  and  C_24 
ROOT
HETATM    1  C   UNK N   1      27.011  16.103   6.858  0.00  0.00     0.089 C 
HETATM    2  N   UNK N   1      26.214  15.528   6.029  0.00  0.00    -0.363 N 
ATOM      3  HN  UNK N   1      26.625  15.112   5.193  1.00  0.00     0.165 HD
ENDROOT
BRANCH   2   4
HETATM    4  C   UNK N   1      24.799  15.429   6.188  0.00  0.00     0.070 A 
HETATM    5  C   UNK N   1      24.001  16.435   5.618  0.00  0.00     0.021 A 
HETATM    6  C   UNK N   1      24.570  17.474   4.866  0.00  0.00     0.016 A 
HETATM    7  C   UNK N   1      22.610  16.415   5.824  0.00  0.00     0.060 A 
HETATM    8  C   UNK N   1      23.766  18.484   4.334  0.00  0.00     0.001 A 
HETATM    9  C   UNK N   1      22.387  18.465   4.551  0.00  0.00     0.002 A 
HETATM   10  C   UNK N   1      21.807  17.430   5.293  0.00  0.00     0.032 A 
HETATM   11  N   UNK N   1      22.054  15.420   6.553  0.00  0.00    -0.300 N 
HETATM   12  N   UNK N   1      22.799  14.445   7.081  0.00  0.00    -0.300 N 
ATOM     13  HN  UNK N   1      21.045  15.413   6.700  1.00  0.00     0.187 HD
HETATM   14  C   UNK N   1      24.151  14.406   6.931  0.00  0.00     0.070 A 
ATOM     15  HN  UNK N   1      22.340  13.707   7.613  1.00  0.00     0.186 HD
BRANCH  14  16
HETATM   16  C   UNK N   1      24.884  13.264   7.559  0.00  0.00     0.172 C 
BRANCH  16  17
HETATM   17  N   UNK N   1      25.072  13.515   8.979  0.00  0.00    -0.425 N 
HETATM   18  H   UNK N   1      25.567  13.382   9.861  0.00  0.00     0.150 HD
HETATM   19  H   UNK N   1      24.316  14.157   9.217  0.00  0.00     0.150 HD
ENDBRANCH  16  17
ENDBRANCH  14  16
ENDBRANCH   2   4
BRANCH   1  20
HETATM   20  C   UNK N   1      28.442  16.307   6.525  0.00  0.00     0.030 C 
HETATM   21  C   UNK N   1      29.014  17.413   5.975  0.00  0.00    -0.014 C 
BRANCH  21  22
HETATM   22  C   UNK N   1      30.484  17.360   5.673  0.00  0.00    -0.025 A 
HETATM   23  C   UNK N   1      30.960  17.548   4.362  0.00  0.00     0.012 A 
HETATM   24  C   UNK N   1      32.329  17.562   4.089  0.00  0.00     0.001 A 
HETATM   25  C   UNK N   1      33.248  17.398   5.126  0.00  0.00     0.000 A 
HETATM   26  C   UNK N   1      32.795  17.215   6.435  0.00  0.00     0.001 A 
HETATM   27  C   UNK N   1      31.425  17.199   6.708  0.00  0.00     0.012 A 
ENDBRANCH  21  22
BRANCH  21  28
HETATM   28  C   UNK N   1      28.247  18.688   5.738  0.00  0.00    -0.025 A 
HETATM   29  C   UNK N   1      27.820  19.050   4.449  0.00  0.00     0.012 A 
HETATM   30  C   UNK N   1      27.078  20.215   4.238  0.00  0.00     0.001 A 
HETATM   31  C   UNK N   1      26.757  21.041   5.316  0.00  0.00     0.000 A 
HETATM   32  C   UNK N   1      27.163  20.693   6.605  0.00  0.00     0.001 A 
HETATM   33  C   UNK N   1      27.890  19.518   6.816  0.00  0.00     0.012 A 
ENDBRANCH  21  28
ENDBRANCH   1  20
TORSDOF 6
ENDMDL
MODEL 3
REMARK VINA RESULT:      -7.2     11.819     14.153
REMARK  6 active torsions:
REMARK  status: ('A' for Active; 'I' for Inactive)
REMARK    1  A    between atoms: C_16  and  C_15 
REMARK    2  A    between atoms: C_23  and  C_17 
REMARK    3  A    between atoms: N_25  and  C_17 
REMARK    4  A    between atoms: C_20  and  C_18 
REMARK    5  A    between atoms: C_20  and  C_19 
REMARK    6  A    between atoms: N_26  and  C_24 
ROOT
HETATM    1  C   UNK N   1      26.334  15.607   6.119  0.00  0.00     0.089 C 
HETATM    2  N   UNK N   1      26.487  16.847   6.422  0.00  0.00    -0.363 N 
ATOM      3  HN  UNK N   1      26.211  17.140   7.359  1.00  0.00     0.165 HD
ENDROOT
BRANCH   2   4
HETATM    4  C   UNK N   1      27.015  17.844   5.548  0.00  0.00     0.070 A 
HETATM    5  C   UNK N   1      26.106  18.594   4.782  0.00  0.00     0.021 A 
HETATM    6  C   UNK N   1      24.721  18.411   4.914  0.00  0.00     0.016 A 
HETATM    7  C   UNK N   1      26.592  19.528   3.850  0.00  0.00     0.060 A 
HETATM    8  C   UNK N   1      23.833  19.141   4.121  0.00  0.00     0.001 A 
HETATM    9  C   UNK N   1      24.323  20.059   3.190  0.00  0.00     0.002 A 
HETATM   10  C   UNK N   1      25.701  20.256   3.055  0.00  0.00     0.032 A 
HETATM   11  N   UNK N   1      27.927  19.707   3.713  0.00  0.00    -0.300 N 
HETATM   12  N   UNK N   1      28.800  19.016   4.451  0.00  0.00    -0.300 N 
ATOM     13  HN  UNK N   1      28.272  20.384   3.033  1.00  0.00     0.187 HD
HETATM   14  C   UNK N   1      28.402  18.090   5.364  0.00  0.00     0.070 A 
ATOM     15  HN  UNK N   1      29.797  19.189   4.326  1.00  0.00     0.186 HD
BRANCH  14  16
HETATM   16  C   UNK N   1      29.466  17.381   6.140  0.00  0.00     0.172 C 
BRANCH  16  17
HETATM   17  N   UNK N   1      29.546  17.927   7.485  0.00  0.00    -0.425 N 
HETATM   18  H   UNK N   1      29.814  17.870   8.468  0.00  0.00     0.150 HD
HETATM   19  H   UNK N   1      29.104  18.843   7.404  0.00  0.00     0.150 HD
ENDBRANCH  16  17
ENDBRANCH  14  16
ENDBRANCH   2   4
BRANCH   1  20
HETATM   20  C   UNK N   1      25.620  14.680   7.031  0.00  0.00     0.030 C 
HETATM   21  C   UNK N   1      24.278  14.465   7.107  0.00  0.00    -0.014 C 
BRANCH  21  22
HETATM   22  C   UNK N   1      23.784  13.515   8.161  0.00  0.00    -0.025 A 
HETATM   23  C   UNK N   1      24.644  13.042   9.168  0.00  0.00     0.012 A 
HETATM   24  C   UNK N   1      24.172  12.210  10.185  0.00  0.00     0.001 A 
HETATM   25  C   UNK N   1      22.826  11.845  10.217  0.00  0.00     0.000 A 
HETATM   26  C   UNK N   1      21.955  12.308   9.229  0.00  0.00     0.001 A 
HETATM   27  C   UNK N   1      22.428  13.140   8.210  0.00  0.00     0.012 A 
ENDBRANCH  21  22
BRANCH  21  28
HETATM   28  C   UNK N   1      23.303  15.078   6.135  0.00  0.00    -0.025 A 
HETATM   29  C   UNK N   1      23.196  14.602   4.817  0.00  0.00     0.012 A 
HETATM   30  C   UNK N   1      22.265  15.149   3.930  0.00  0.00     0.001 A 
HETATM   31  C   UNK N   1      21.431  16.188   4.347  0.00  0.00     0.000 A 
HETATM   32  C   UNK N   1      21.516  16.665   5.656  0.00  0.00     0.001 A 
HETATM   33  C   UNK N   1      22.436  16.105   6.546  0.00  0.00     0.012 A 
ENDBRANCH  21  28
ENDBRANCH   1  20
TORSDOF 6
ENDMDL
MODEL 4
REMARK VINA RESULT:      -7.1     10.186     13.279
REMARK  6 active torsions:
REMARK  status: ('A' for Active; 'I' for Inactive)
REMARK    1  A    between atoms: C_16  and  C_15 
REMARK    2  A    between atoms: C_23  and  C_17 
REMARK    3  A    between atoms: N_25  and  C_17 
REMARK    4  A    between atoms: C_20  and  C_18 
REMARK    5  A    between atoms: C_20  and  C_19 
REMARK    6  A    between atoms: N_26  and  C_24 
ROOT
HETATM    1  C   UNK N   1      27.034  15.695   5.798  0.00  0.00     0.089 C 
HETATM    2  N   UNK N   1      26.082  15.878   6.642  0.00  0.00    -0.363 N 
ATOM      3  HN  UNK N   1      26.311  16.357   7.513  1.00  0.00     0.165 HD
ENDROOT
BRANCH   2   4
HETATM    4  C   UNK N   1      24.729  15.463   6.454  0.00  0.00     0.070 A 
HETATM    5  C   UNK N   1      24.262  14.378   7.215  0.00  0.00     0.021 A 
HETATM    6  C   UNK N   1      25.080  13.757   8.171  0.00  0.00     0.016 A 
HETATM    7  C   UNK N   1      22.962  13.889   6.997  0.00  0.00     0.060 A 
HETATM    8  C   UNK N   1      24.612  12.658   8.895  0.00  0.00     0.001 A 
HETATM    9  C   UNK N   1      23.323  12.171   8.667  0.00  0.00     0.002 A 
HETATM   10  C   UNK N   1      22.497  12.786   7.721  0.00  0.00     0.032 A 
HETATM   11  N   UNK N   1      22.169  14.478   6.073  0.00  0.00    -0.300 N 
HETATM   12  N   UNK N   1      22.593  15.525   5.359  0.00  0.00    -0.300 N 
ATOM     13  HN  UNK N   1      21.229  14.116   5.918  1.00  0.00     0.187 HD
HETATM   14  C   UNK N   1      23.842  16.044   5.508  0.00  0.00     0.070 A 
ATOM     15  HN  UNK N   1      21.961  15.948   4.680  1.00  0.00     0.186 HD
BRANCH  14  16
HETATM   16  C   UNK N   1      24.207  17.222   4.663  0.00  0.00     0.172 C 
BRANCH  16  17
HETATM   17  N   UNK N   1      24.090  18.446   5.438  0.00  0.00    -0.425 N 
HETATM   18  H   UNK N   1      24.454  19.335   5.783  0.00  0.00     0.150 HD
HETATM   19  H   UNK N   1      23.161  18.384   5.854  0.00  0.00     0.150 HD
ENDBRANCH  16  17
ENDBRANCH  14  16
ENDBRANCH   2   4
BRANCH   1  20
HETATM   20  C   UNK N   1      28.440  16.006   6.152  0.00  0.00     0.030 C 
HETATM   21  C   UNK N   1      29.048  17.224   6.134  0.00  0.00    -0.014 C 
BRANCH  21  22
HETATM   22  C   UNK N   1      30.509  17.278   6.479  0.00  0.00    -0.025 A 
HETATM   23  C   UNK N   1      31.492  17.218   5.473  0.00  0.00     0.012 A 
HETATM   24  C   UNK N   1      32.847  17.333   5.786  0.00  0.00     0.001 A 
HETATM   25  C   UNK N   1      33.244  17.519   7.110  0.00  0.00     0.000 A 
HETATM   26  C   UNK N   1      32.283  17.587   8.122  0.00  0.00     0.001 A 
HETATM   27  C   UNK N   1      30.926  17.471   7.810  0.00  0.00     0.012 A 
ENDBRANCH  21  22
BRANCH  21  28
HETATM   28  C   UNK N   1      28.296  18.500   5.859  0.00  0.00    -0.025 A 
HETATM   29  C   UNK N   1      27.877  19.336   6.909  0.00  0.00     0.012 A 
HETATM   30  C   UNK N   1      27.212  20.537   6.648  0.00  0.00     0.001 A 
HETATM   31  C   UNK N   1      26.949  20.917   5.331  0.00  0.00     0.000 A 
HETATM   32  C   UNK N   1      27.367  20.105   4.276  0.00  0.00     0.001 A 
HETATM   33  C   UNK N   1      28.048  18.913   4.538  0.00  0.00     0.012 A 
ENDBRANCH  21  28
ENDBRANCH   1  20
TORSDOF 6
ENDMDL
MODEL 5
REMARK VINA RESULT:      -7.1      2.991      7.210
REMARK  6 active torsions:
REMARK  status: ('A' for Active; 'I' for Inactive)
REMARK    1  A    between atoms: C_16  and  C_15 
REMARK    2  A    between atoms: C_23  and  C_17 
REMARK    3  A    between atoms: N_25  and  C_17 
REMARK    4  A    between atoms: C_20  and  C_18 
REMARK    5  A    between atoms: C_20  and  C_19 
REMARK    6  A    between atoms: N_26  and  C_24 
ROOT
HETATM    1  C   UNK N   1      36.132  13.488  15.473  0.00  0.00     0.089 C 
HETATM    2  N   UNK N   1      35.128  13.117  16.185  0.00  0.00    -0.363 N 
ATOM      3  HN  UNK N   1      34.212  13.109  15.738  1.00  0.00     0.165 HD
ENDROOT
BRANCH   2   4
HETATM    4  C   UNK N   1      35.197  12.716  17.554  0.00  0.00     0.070 A 
HETATM    5  C   UNK N   1      35.251  11.341  17.834  0.00  0.00     0.021 A 
HETATM    6  C   UNK N   1      35.293  10.391  16.802  0.00  0.00     0.016 A 
HETATM    7  C   UNK N   1      35.236  10.906  19.171  0.00  0.00     0.060 A 
HETATM    8  C   UNK N   1      35.311   9.026  17.098  0.00  0.00     0.001 A 
HETATM    9  C   UNK N   1      35.287   8.600  18.428  0.00  0.00     0.002 A 
HETATM   10  C   UNK N   1      35.252   9.538  19.464  0.00  0.00     0.032 A 
HETATM   11  N   UNK N   1      35.190  11.815  20.172  0.00  0.00    -0.300 N 
HETATM   12  N   UNK N   1      35.162  13.126  19.919  0.00  0.00    -0.300 N 
ATOM     13  HN  UNK N   1      35.177  11.492  21.139  1.00  0.00     0.187 HD
HETATM   14  C   UNK N   1      35.162  13.619  18.651  0.00  0.00     0.070 A 
ATOM     15  HN  UNK N   1      35.139  13.779  20.702  1.00  0.00     0.186 HD
BRANCH  14  16
HETATM   16  C   UNK N   1      35.137  15.105  18.485  0.00  0.00     0.172 C 
BRANCH  16  17
HETATM   17  N   UNK N   1      36.486  15.603  18.272  0.00  0.00    -0.425 N 
HETATM   18  H   UNK N   1      37.376  15.614  17.773  0.00  0.00     0.150 HD
HETATM   19  H   UNK N   1      36.604  16.308  18.999  0.00  0.00     0.150 HD
ENDBRANCH  16  17
ENDBRANCH  14  16
ENDBRANCH   2   4
BRANCH   1  20
HETATM   20  C   UNK N   1      35.940  14.051  14.115  0.00  0.00     0.030 C 
HETATM   21  C   UNK N   1      35.788  13.364  12.949  0.00  0.00    -0.014 C 
BRANCH  21  22
HETATM   22  C   UNK N   1      35.668  14.162  11.682  0.00  0.00    -0.025 A 
HETATM   23  C   UNK N   1      35.486  13.524  10.441  0.00  0.00     0.012 A 
HETATM   24  C   UNK N   1      35.311  14.265   9.271  0.00  0.00     0.001 A 
HETATM   25  C   UNK N   1      35.305  15.659   9.323  0.00  0.00     0.000 A 
HETATM   26  C   UNK N   1      35.479  16.311  10.546  0.00  0.00     0.001 A 
HETATM   27  C   UNK N   1      35.655  15.569  11.718  0.00  0.00     0.012 A 
ENDBRANCH  21  22
BRANCH  21  28
HETATM   28  C   UNK N   1      35.661  11.864  12.904  0.00  0.00    -0.025 A 
HETATM   29  C   UNK N   1      36.789  11.045  12.718  0.00  0.00     0.012 A 
HETATM   30  C   UNK N   1      36.672   9.653  12.713  0.00  0.00     0.001 A 
HETATM   31  C   UNK N   1      35.422   9.057  12.886  0.00  0.00     0.000 A 
HETATM   32  C   UNK N   1      34.293   9.854  13.083  0.00  0.00     0.001 A 
HETATM   33  C   UNK N   1      34.415  11.246  13.105  0.00  0.00     0.012 A 
ENDBRANCH  21  28
ENDBRANCH   1  20
TORSDOF 6
ENDMDL
MODEL 6
REMARK VINA RESULT:      -7.0      7.493     11.601
REMARK  6 active torsions:
REMARK  status: ('A' for Active; 'I' for Inactive)
REMARK    1  A    between atoms: C_16  and  C_15 
REMARK    2  A    between atoms: C_23  and  C_17 
REMARK    3  A    between atoms: N_25  and  C_17 
REMARK    4  A    between atoms: C_20  and  C_18 
REMARK    5  A    between atoms: C_20  and  C_19 
REMARK    6  A    between atoms: N_26  and  C_24 
ROOT
HETATM    1  C   UNK N   1      30.115  16.204   5.702  0.00  0.00     0.089 C 
HETATM    2  N   UNK N   1      29.969  17.481   5.727  0.00  0.00    -0.363 N 
ATOM      3  HN  UNK N   1      30.587  18.036   5.137  1.00  0.00     0.165 HD
ENDROOT
BRANCH   2   4
HETATM    4  C   UNK N   1      29.009  18.180   6.519  0.00  0.00     0.070 A 
HETATM    5  C   UNK N   1      28.089  19.010   5.855  0.00  0.00     0.021 A 
HETATM    6  C   UNK N   1      28.076  19.105   4.455  0.00  0.00     0.016 A 
HETATM    7  C   UNK N   1      27.183  19.777   6.607  0.00  0.00     0.060 A 
HETATM    8  C   UNK N   1      27.178  19.960   3.814  0.00  0.00     0.001 A 
HETATM    9  C   UNK N   1      26.287  20.728   4.567  0.00  0.00     0.002 A 
HETATM   10  C   UNK N   1      26.286  20.636   5.962  0.00  0.00     0.032 A 
HETATM   11  N   UNK N   1      27.193  19.696   7.958  0.00  0.00    -0.300 N 
HETATM   12  N   UNK N   1      28.047  18.894   8.599  0.00  0.00    -0.300 N 
ATOM     13  HN  UNK N   1      26.534  20.258   8.497  1.00  0.00     0.187 HD
HETATM   14  C   UNK N   1      28.958  18.131   7.938  0.00  0.00     0.070 A 
ATOM     15  HN  UNK N   1      28.014  18.852   9.618  1.00  0.00     0.186 HD
BRANCH  14  16
HETATM   16  C   UNK N   1      29.860  17.264   8.757  0.00  0.00     0.172 C 
BRANCH  16  17
HETATM   17  N   UNK N   1      29.641  17.516  10.172  0.00  0.00    -0.425 N 
HETATM   18  H   UNK N   1      29.733  18.088  11.012  0.00  0.00     0.150 HD
HETATM   19  H   UNK N   1      29.131  16.693  10.491  0.00  0.00     0.150 HD
ENDBRANCH  16  17
ENDBRANCH  14  16
ENDBRANCH   2   4
BRANCH   1  20
HETATM   20  C   UNK N   1      31.251  15.578   4.982  0.00  0.00     0.030 C 
HETATM   21  C   UNK N   1      32.569  15.624   5.318  0.00  0.00    -0.014 C 
BRANCH  21  22
HETATM   22  C   UNK N   1      33.547  14.959   4.392  0.00  0.00    -0.025 A 
HETATM   23  C   UNK N   1      34.681  14.294   4.894  0.00  0.00     0.012 A 
HETATM   24  C   UNK N   1      35.557  13.621   4.041  0.00  0.00     0.001 A 
HETATM   25  C   UNK N   1      35.309  13.593   2.668  0.00  0.00     0.000 A 
HETATM   26  C   UNK N   1      34.185  14.243   2.151  0.00  0.00     0.001 A 
HETATM   27  C   UNK N   1      33.309  14.917   3.005  0.00  0.00     0.012 A 
ENDBRANCH  21  22
BRANCH  21  28
HETATM   28  C   UNK N   1      33.056  16.241   6.604  0.00  0.00    -0.025 A 
HETATM   29  C   UNK N   1      33.026  15.521   7.811  0.00  0.00     0.012 A 
HETATM   30  C   UNK N   1      33.512  16.084   8.994  0.00  0.00     0.001 A 
HETATM   31  C   UNK N   1      34.031  17.379   8.989  0.00  0.00     0.000 A 
HETATM   32  C   UNK N   1      34.079  18.104   7.797  0.00  0.00     0.001 A 
HETATM   33  C   UNK N   1      33.608  17.533   6.612  0.00  0.00     0.012 A 
ENDBRANCH  21  28
ENDBRANCH   1  20
TORSDOF 6
ENDMDL
MODEL 7
REMARK VINA RESULT:      -6.9     19.205     23.294
REMARK  6 active torsions:
REMARK  status: ('A' for Active; 'I' for Inactive)
REMARK    1  A    between atoms: C_16  and  C_15 
REMARK    2  A    between atoms: C_23  and  C_17 
REMARK    3  A    between atoms: N_25  and  C_17 
REMARK    4  A    between atoms: C_20  and  C_18 
REMARK    5  A    between atoms: C_20  and  C_19 
REMARK    6  A    between atoms: N_26  and  C_24 
ROOT
HETATM    1  C   UNK N   1      29.119  23.381  -3.793  0.00  0.00     0.089 C 
HETATM    2  N   UNK N   1      30.112  23.167  -4.582  0.00  0.00    -0.363 N 
ATOM      3  HN  UNK N   1      30.565  23.980  -4.998  1.00  0.00     0.165 HD
ENDROOT
BRANCH   2   4
HETATM    4  C   UNK N   1      30.628  21.880  -4.919  0.00  0.00     0.070 A 
HETATM    5  C   UNK N   1      30.119  21.247  -6.066  0.00  0.00     0.021 A 
HETATM    6  C   UNK N   1      29.177  21.883  -6.888  0.00  0.00     0.016 A 
HETATM    7  C   UNK N   1      30.543  19.945  -6.383  0.00  0.00     0.060 A 
HETATM    8  C   UNK N   1      28.657  21.227  -8.006  0.00  0.00     0.001 A 
HETATM    9  C   UNK N   1      29.074  19.930  -8.309  0.00  0.00     0.002 A 
HETATM   10  C   UNK N   1      30.018  19.289  -7.502  0.00  0.00     0.032 A 
HETATM   11  N   UNK N   1      31.447  19.322  -5.592  0.00  0.00    -0.300 N 
HETATM   12  N   UNK N   1      31.955  19.921  -4.511  0.00  0.00    -0.300 N 
ATOM     13  HN  UNK N   1      31.748  18.376  -5.827  1.00  0.00     0.187 HD
HETATM   14  C   UNK N   1      31.583  21.175  -4.138  0.00  0.00     0.070 A 
ATOM     15  HN  UNK N   1      32.643  19.422  -3.948  1.00  0.00     0.186 HD
BRANCH  14  16
HETATM   16  C   UNK N   1      32.222  21.751  -2.915  0.00  0.00     0.172 C 
BRANCH  16  17
HETATM   17  N   UNK N   1      33.275  20.867  -2.441  0.00  0.00    -0.425 N 
HETATM   18  H   UNK N   1      34.139  20.341  -2.573  0.00  0.00     0.150 HD
HETATM   19  H   UNK N   1      33.013  20.670  -1.476  0.00  0.00     0.150 HD
ENDBRANCH  16  17
ENDBRANCH  14  16
ENDBRANCH   2   4
BRANCH   1  20
HETATM   20  C   UNK N   1      28.545  24.739  -3.637  0.00  0.00     0.030 C 
HETATM   21  C   UNK N   1      27.674  25.370  -4.471  0.00  0.00    -0.014 C 
BRANCH  21  22
HETATM   22  C   UNK N   1      27.280  26.779  -4.131  0.00  0.00    -0.025 A 
HETATM   23  C   UNK N   1      28.253  27.745  -3.812  0.00  0.00     0.012 A 
HETATM   24  C   UNK N   1      27.894  29.069  -3.557  0.00  0.00     0.001 A 
HETATM   25  C   UNK N   1      26.555  29.455  -3.628  0.00  0.00     0.000 A 
HETATM   26  C   UNK N   1      25.575  28.512  -3.948  0.00  0.00     0.001 A 
HETATM   27  C   UNK N   1      25.934  27.185  -4.202  0.00  0.00     0.012 A 
ENDBRANCH  21  22
BRANCH  21  28
HETATM   28  C   UNK N   1      27.048  24.684  -5.657  0.00  0.00    -0.025 A 
HETATM   29  C   UNK N   1      26.132  23.631  -5.486  0.00  0.00     0.012 A 
HETATM   30  C   UNK N   1      25.526  23.021  -6.588  0.00  0.00     0.001 A 
HETATM   31  C   UNK N   1      25.832  23.452  -7.879  0.00  0.00     0.000 A 
HETATM   32  C   UNK N   1      26.730  24.503  -8.068  0.00  0.00     0.001 A 
HETATM   33  C   UNK N   1      27.322  25.123  -6.964  0.00  0.00     0.012 A 
ENDBRANCH  21  28
ENDBRANCH   1  20
TORSDOF 6
ENDMDL
MODEL 8
REMARK VINA RESULT:      -6.9      4.600      8.719
REMARK  6 active torsions:
REMARK  status: ('A' for Active; 'I' for Inactive)
REMARK    1  A    between atoms: C_16  and  C_15 
REMARK    2  A    between atoms: C_23  and  C_17 
REMARK    3  A    between atoms: N_25  and  C_17 
REMARK    4  A    between atoms: C_20  and  C_18 
REMARK    5  A    between atoms: C_20  and  C_19 
REMARK    6  A    between atoms: N_26  and  C_24 
ROOT
HETATM    1  C   UNK N   1      33.286  14.864   9.409  0.00  0.00     0.089 C 
HETATM    2  N   UNK N   1      34.375  15.426   9.797  0.00  0.00    -0.363 N 
ATOM      3  HN  UNK N   1      34.325  16.405  10.079  1.00  0.00     0.165 HD
ENDROOT
BRANCH   2   4
HETATM    4  C   UNK N   1      35.649  14.786   9.862  0.00  0.00     0.070 A 
HETATM    5  C   UNK N   1      36.272  14.435   8.653  0.00  0.00     0.021 A 
HETATM    6  C   UNK N   1      35.689  14.755   7.417  0.00  0.00     0.016 A 
HETATM    7  C   UNK N   1      37.488  13.729   8.680  0.00  0.00     0.060 A 
HETATM    8  C   UNK N   1      36.305  14.369   6.224  0.00  0.00     0.001 A 
HETATM    9  C   UNK N   1      37.507  13.659   6.258  0.00  0.00     0.002 A 
HETATM   10  C   UNK N   1      38.101  13.341   7.484  0.00  0.00     0.032 A 
HETATM   11  N   UNK N   1      38.053  13.411   9.867  0.00  0.00    -0.300 N 
HETATM   12  N   UNK N   1      37.483  13.759  11.024  0.00  0.00    -0.300 N 
ATOM     13  HN  UNK N   1      38.934  12.897   9.879  1.00  0.00     0.187 HD
HETATM   14  C   UNK N   1      36.302  14.433  11.074  0.00  0.00     0.070 A 
ATOM     15  HN  UNK N   1      37.947  13.511  11.897  1.00  0.00     0.186 HD
BRANCH  14  16
HETATM   16  C   UNK N   1      35.759  14.778  12.424  0.00  0.00     0.172 C 
BRANCH  16  17
HETATM   17  N   UNK N   1      36.727  14.432  13.452  0.00  0.00    -0.425 N 
HETATM   18  H   UNK N   1      37.603  14.012  13.762  0.00  0.00     0.150 HD
HETATM   19  H   UNK N   1      36.315  14.801  14.310  0.00  0.00     0.150 HD
ENDBRANCH  16  17
ENDBRANCH  14  16
ENDBRANCH   2   4
BRANCH   1  20
HETATM   20  C   UNK N   1      32.047  15.655   9.210  0.00  0.00     0.030 C 
HETATM   21  C   UNK N   1      31.622  16.253   8.064  0.00  0.00    -0.014 C 
BRANCH  21  22
HETATM   22  C   UNK N   1      30.354  17.056   8.126  0.00  0.00    -0.025 A 
HETATM   23  C   UNK N   1      29.993  17.748   9.297  0.00  0.00     0.012 A 
HETATM   24  C   UNK N   1      28.849  18.546   9.337  0.00  0.00     0.001 A 
HETATM   25  C   UNK N   1      28.049  18.675   8.201  0.00  0.00     0.000 A 
HETATM   26  C   UNK N   1      28.394  18.001   7.027  0.00  0.00     0.001 A 
HETATM   27  C   UNK N   1      29.539  17.201   6.987  0.00  0.00     0.012 A 
ENDBRANCH  21  22
BRANCH  21  28
HETATM   28  C   UNK N   1      32.330  16.073   6.746  0.00  0.00    -0.025 A 
HETATM   29  C   UNK N   1      32.208  14.879   6.014  0.00  0.00     0.012 A 
HETATM   30  C   UNK N   1      32.836  14.729   4.775  0.00  0.00     0.001 A 
HETATM   31  C   UNK N   1      33.604  15.771   4.252  0.00  0.00     0.000 A 
HETATM   32  C   UNK N   1      33.727  16.967   4.960  0.00  0.00     0.001 A 
HETATM   33  C   UNK N   1      33.084  17.121   6.191  0.00  0.00     0.012 A 
ENDBRANCH  21  28
ENDBRANCH   1  20
TORSDOF 6
ENDMDL
MODEL 9
REMARK VINA RESULT:      -6.8      2.702      5.823
REMARK  6 active torsions:
REMARK  status: ('A' for Active; 'I' for Inactive)
REMARK    1  A    between atoms: C_16  and  C_15 
REMARK    2  A    between atoms: C_23  and  C_17 
REMARK    3  A    between atoms: N_25  and  C_17 
REMARK    4  A    between atoms: C_20  and  C_18 
REMARK    5  A    between atoms: C_20  and  C_19 
REMARK    6  A    between atoms: N_26  and  C_24 
ROOT
HETATM    1  C   UNK N   1      34.487  12.497  10.003  0.00  0.00     0.089 C 
HETATM    2  N   UNK N   1      33.725  13.457  10.389  0.00  0.00    -0.363 N 
ATOM      3  HN  UNK N   1      32.834  13.208  10.818  1.00  0.00     0.165 HD
ENDROOT
BRANCH   2   4
HETATM    4  C   UNK N   1      34.029  14.847  10.263  0.00  0.00     0.070 A 
HETATM    5  C   UNK N   1      33.414  15.563   9.223  0.00  0.00     0.021 A 
HETATM    6  C   UNK N   1      32.485  14.949   8.370  0.00  0.00     0.016 A 
HETATM    7  C   UNK N   1      33.753  16.912   9.018  0.00  0.00     0.060 A 
HETATM    8  C   UNK N   1      31.907  15.667   7.320  0.00  0.00     0.001 A 
HETATM    9  C   UNK N   1      32.256  17.004   7.115  0.00  0.00     0.002 A 
HETATM   10  C   UNK N   1      33.175  17.628   7.963  0.00  0.00     0.032 A 
HETATM   11  N   UNK N   1      34.652  17.510   9.832  0.00  0.00    -0.300 N 
HETATM   12  N   UNK N   1      35.228  16.846  10.838  0.00  0.00    -0.300 N 
ATOM     13  HN  UNK N   1      34.895  18.488   9.675  1.00  0.00     0.187 HD
HETATM   14  C   UNK N   1      34.956  15.537  11.090  0.00  0.00     0.070 A 
ATOM     15  HN  UNK N   1      35.892  17.336  11.437  1.00  0.00     0.186 HD
BRANCH  14  16
HETATM   16  C   UNK N   1      35.652  14.896  12.248  0.00  0.00     0.172 C 
BRANCH  16  17
HETATM   17  N   UNK N   1      36.927  14.344  11.817  0.00  0.00    -0.425 N 
HETATM   18  H   UNK N   1      37.636  13.610  11.809  0.00  0.00     0.150 HD
HETATM   19  H   UNK N   1      37.313  15.065  11.208  0.00  0.00     0.150 HD
ENDBRANCH  16  17
ENDBRANCH  14  16
ENDBRANCH   2   4
BRANCH   1  20
HETATM   20  C   UNK N   1      34.013  11.092  10.017  0.00  0.00     0.030 C 
HETATM   21  C   UNK N   1      34.088  10.204  11.046  0.00  0.00    -0.014 C 
BRANCH  21  22
HETATM   22  C   UNK N   1      33.591   8.808  10.799  0.00  0.00    -0.025 A 
HETATM   23  C   UNK N   1      34.308   7.692  11.269  0.00  0.00     0.012 A 
HETATM   24  C   UNK N   1      33.816   6.398  11.097  0.00  0.00     0.001 A 
HETATM   25  C   UNK N   1      32.592   6.196  10.459  0.00  0.00     0.000 A 
HETATM   26  C   UNK N   1      31.863   7.292   9.990  0.00  0.00     0.001 A 
HETATM   27  C   UNK N   1      32.356   8.588  10.162  0.00  0.00     0.012 A 
ENDBRANCH  21  22
BRANCH  21  28
HETATM   28  C   UNK N   1      34.572  10.595  12.419  0.00  0.00    -0.025 A 
HETATM   29  C   UNK N   1      33.704  10.584  13.524  0.00  0.00     0.012 A 
HETATM   30  C   UNK N   1      34.165  10.911  14.802  0.00  0.00     0.001 A 
HETATM   31  C   UNK N   1      35.502  11.262  14.992  0.00  0.00     0.000 A 
HETATM   32  C   UNK N   1      36.381  11.268  13.908  0.00  0.00     0.001 A 
HETATM   33  C   UNK N   1      35.921  10.923  12.634  0.00  0.00     0.012 A 
ENDBRANCH  21  28
ENDBRANCH   1  20
TORSDOF 6
ENDMDL
