REMARK  5 active torsions:
REMARK  status: ('A' for Active; 'I' for Inactive)
REMARK    1  A    between atoms: C_2  and  C_3 
REMARK    2  A    between atoms: C_3  and  C_4 
REMARK    3  A    between atoms: C_4  and  C_5 
REMARK    4  A    between atoms: C_5  and  C_6 
REMARK    5  A    between atoms: C_6  and  C_7 
REMARK       I    between atoms: C_7  and  N_8 
ROOT
HETATM    1  C   UNK N   1       5.095   2.245   0.000  0.00  0.00     0.102 C 
ENDROOT
BRANCH   1   2
HETATM    2  C   UNK N   1       3.833   1.400   0.000  0.00  0.00     0.009 C 
BRANCH   2   3
HETATM    3  C   UNK N   1       2.582   2.249  -0.000  0.00  0.00     0.000 C 
BRANCH   3   4
HETATM    4  C   UNK N   1       1.407   1.294  -0.000  0.00  0.00    -0.000 C 
BRANCH   4   5
HETATM    5  C   UNK N   1       0.094   2.041  -0.000  0.00  0.00    -0.005 C 
HETATM    6  C   UNK N   1      -1.034   1.030  -0.000  0.00  0.00     0.005 C 
ENDBRANCH   4   5
ENDBRANCH   3   4
ENDBRANCH   2   3
ENDBRANCH   1   2
BRANCH   1   7
HETATM    7  C   UNK N   1       6.327   1.384  -0.000  0.00  0.00     0.215 C 
HETATM    8  N   UNK N   1       7.542   1.962  -0.000  0.00  0.00    -0.370 N 
HETATM    9  H   UNK N   1       8.353   1.404  -0.000  0.00  0.00     0.159 HD
HETATM   10  H   UNK N   1       7.620   2.944  -0.000  0.00  0.00     0.159 HD
HETATM   11  O   UNK N   1       6.241   0.163   0.000  0.00  0.00    -0.274 OA
ENDBRANCH   1   7
TORSDOF 5
