REMARK  7 active torsions:
REMARK  status: ('A' for Active; 'I' for Inactive)
REMARK    1  A    between atoms: C_12  and  C_11 
REMARK    2  A    between atoms: C_15  and  C_11 
REMARK    3  A    between atoms: C_16  and  C_12 
REMARK    4  A    between atoms: C_16  and  C_13 
REMARK    5  A    between atoms: C_14  and  S_21 
REMARK    6  A    between atoms: C_16  and  N_18 
REMARK    7  A    between atoms: S_21  and  C_17 
ROOT
HETATM    1  C   UNK N   1       0.577   4.352  -0.323  0.00  0.00     0.098 C 
ENDROOT
BRANCH   1   2
HETATM    2  C   UNK N   1      -0.544   5.311  -0.701  0.00  0.00     0.033 C 
BRANCH   2   3
HETATM    3  C   UNK N   1      -1.414   5.550   0.529  0.00  0.00     0.041 C 
BRANCH   3   4
HETATM    4  C   UNK N   1      -2.637   6.339   0.233  0.00  0.00    -0.058 A 
HETATM    5  C   UNK N   1      -3.892   5.731   0.358  0.00  0.00     0.007 A 
HETATM    6  C   UNK N   1      -5.055   6.469   0.133  0.00  0.00     0.001 A 
HETATM    7  C   UNK N   1      -4.970   7.823  -0.207  0.00  0.00     0.000 A 
HETATM    8  C   UNK N   1      -3.717   8.435  -0.328  0.00  0.00     0.001 A 
HETATM    9  C   UNK N   1      -2.552   7.696  -0.107  0.00  0.00     0.007 A 
ENDBRANCH   3   4
ENDBRANCH   2   3
ENDBRANCH   1   2
BRANCH   1  10
HETATM   10  C   UNK N   1       1.358   3.943  -1.534  0.00  0.00     0.009 C 
HETATM   11  C   UNK N   1       2.228   2.918  -1.555  0.00  0.00     0.112 C 
BRANCH  11  12
HETATM   12  S   UNK N   1       2.513   1.766  -0.186  0.00  0.00     0.196 S 
HETATM   13  O   UNK N   1       2.341   2.467   1.169  0.00  0.00    -0.218 OA
HETATM   14  O   UNK N   1       4.033   1.548  -0.135  0.00  0.00    -0.218 OA
BRANCH  12  15
HETATM   15  C   UNK N   1       1.766   0.142  -0.064  0.00  0.00     0.063 A 
HETATM   16  C   UNK N   1       2.545  -0.973   0.269  0.00  0.00     0.024 A 
HETATM   17  C   UNK N   1       1.956  -2.238   0.363  0.00  0.00     0.002 A 
HETATM   18  C   UNK N   1       0.587  -2.390   0.125  0.00  0.00     0.000 A 
HETATM   19  C   UNK N   1      -0.193  -1.278  -0.206  0.00  0.00     0.002 A 
HETATM   20  C   UNK N   1       0.396  -0.012  -0.300  0.00  0.00     0.024 A 
ENDBRANCH  12  15
ENDBRANCH  11  12
ENDBRANCH   1  10
BRANCH   1  21
HETATM   21  N   UNK N   1       1.466   5.007   0.626  0.00  0.00    -0.423 N 
HETATM   22  H   UNK N   1       2.174   4.696   1.291  0.00  0.00     0.150 HD
HETATM   23  H   UNK N   1       1.353   6.020   0.626  0.00  0.00     0.150 HD
ENDBRANCH   1  21
TORSDOF 7
