REMARK  6 active torsions:
REMARK  status: ('A' for Active; 'I' for Inactive)
REMARK    1  A    between atoms: C_2  and  C_3 
REMARK    2  A    between atoms: C_2  and  C_5 
REMARK    3  A    between atoms: C_5  and  C_6 
REMARK    4  A    between atoms: C_6  and  N_7 
REMARK    5  A    between atoms: C_6  and  C_8 
REMARK    6  A    between atoms: C_8  and  O_9 
ROOT
HETATM    1  C   UNK N   1       5.098   1.794  -0.406  0.00  0.00     0.173 C 
ENDROOT
BRANCH   1   2
HETATM    2  C   UNK N   1       3.870   1.311   0.366  0.00  0.00     0.042 C 
BRANCH   2   3
HETATM    3  C   UNK N   1       2.576   1.884  -0.206  0.00  0.00     0.013 C 
HETATM    4  C   UNK N   1       2.407   3.338   0.202  0.00  0.00     0.012 C 
BRANCH   3   5
HETATM    5  C   UNK N   1       1.397   1.078   0.309  0.00  0.00     0.226 C 
HETATM    6  F   UNK N   1       0.215   1.558  -0.230  0.00  0.00    -0.255 F 
ENDBRANCH   3   5
ENDBRANCH   2   3
ENDBRANCH   1   2
BRANCH   1   7
HETATM    7  N   UNK N   1       5.350   3.200  -0.126  0.00  0.00    -0.418 N 
HETATM    8  H   UNK N   1       6.291   3.541   0.069  0.00  0.00     0.150 HD
HETATM    9  H   UNK N   1       4.570   3.858  -0.126  0.00  0.00     0.150 HD
ENDBRANCH   1   7
BRANCH   1  10
HETATM   10  C   UNK N   1       6.309   0.970  -0.065  0.00  0.00     0.163 C 
HETATM   11  O   UNK N   1       6.282  -0.240  -0.208  0.00  0.00    -0.648 OA
BRANCH  10  12
HETATM   12  O   UNK N   1       7.443   1.564   0.365  0.00  0.00    -0.775 OA
HETATM   13  H   UNK N   1       8.193   1.088   0.664  0.00  0.00     0.167 HD
ENDBRANCH  10  12
ENDBRANCH   1  10
TORSDOF 6
