MODEL 1
REMARK VINA RESULT:      -5.8      0.000      0.000
REMARK  9 active torsions:
REMARK  status: ('A' for Active; 'I' for Inactive)
REMARK    1  A    between atoms: C_5  and  C_4 
REMARK    2  A    between atoms: N_16  and  C_4 
REMARK    3  A    between atoms: C_7  and  C_6 
REMARK    4  A    between atoms: C_9  and  C_6 
REMARK    5  A    between atoms: C_10  and  C_8 
REMARK    6  A    between atoms: C_8  and  O_18 
REMARK    7  A    between atoms: C_12  and  C_10 
REMARK    8  A    between atoms: C_10  and  N_13 
REMARK    9  A    between atoms: C_12  and  O_20 
ROOT
HETATM    1  C   UNK N   1      34.367  16.841   9.013  0.00  0.00     0.078 A 
HETATM    2  C   UNK N   1      34.895  15.654   8.405  0.00  0.00     0.270 A 
HETATM    3  C   UNK N   1      35.650  15.784  10.555  0.00  0.00     0.242 A 
HETATM    4  N   UNK N   1      34.804  16.927  10.213  0.00  0.00    -0.338 N 
ATOM      5  HN  UNK N   1      34.587  17.693  10.850  1.00  0.00     0.164 HD
HETATM    6  N   UNK N   1      35.667  15.022   9.299  0.00  0.00    -0.289 N 
HETATM    7  O   UNK N   1      34.693  15.266   7.264  0.00  0.00    -0.266 OA
ENDROOT
BRANCH   3   8
HETATM    8  C   UNK N   1      35.022  14.982  11.735  0.00  0.00     0.182 C 
BRANCH   8   9
HETATM    9  C   UNK N   1      36.046  14.548  12.810  0.00  0.00     0.143 C 
HETATM   10  C   UNK N   1      35.446  13.600  13.838  0.00  0.00     0.041 C 
BRANCH   9  11
HETATM   11  O   UNK N   1      37.112  13.884  12.198  0.00  0.00    -0.394 OA
HETATM   12  H   UNK N   1      38.069  13.954  12.069  0.00  0.00     0.210 HD
ENDBRANCH   9  11
ENDBRANCH   8   9
BRANCH   8  13
HETATM   13  N   UNK N   1      34.362  13.788  11.231  0.00  0.00    -0.418 N 
HETATM   14  H   UNK N   1      34.799  13.143  10.572  0.00  0.00     0.150 HD
HETATM   15  H   UNK N   1      33.415  13.585  11.551  0.00  0.00     0.150 HD
ENDBRANCH   8  13
ENDBRANCH   3   8
BRANCH   3  16
HETATM   16  O   UNK N   1      36.935  16.236  10.876  0.00  0.00    -0.352 OA
HETATM   17  H   UNK N   1      37.626  16.853  10.588  0.00  0.00     0.214 HD
ENDBRANCH   3  16
BRANCH   6  18
HETATM   18  C   UNK N   1      36.352  13.771   9.013  0.00  0.00     0.200 C 
BRANCH  18  19
HETATM   19  C   UNK N   1      37.806  13.950   8.706  0.00  0.00     0.251 C 
HETATM   20  O   UNK N   1      38.600  14.202   9.596  0.00  0.00    -0.305 OA
ENDBRANCH  18  19
ENDBRANCH   6  18
BRANCH   1  21
HETATM   21  C   UNK N   1      33.432  17.850   8.424  0.00  0.00     0.066 C 
BRANCH  21  22
HETATM   22  C   UNK N   1      32.052  17.246   8.224  0.00  0.00    -0.017 C 
HETATM   23  C   UNK N   1      31.007  18.162   8.825  0.00  0.00     0.010 C 
HETATM   24  C   UNK N   1      31.767  17.068   6.746  0.00  0.00     0.010 C 
ENDBRANCH  21  22
ENDBRANCH   1  21
TORSDOF 9
ENDMDL
MODEL 2
REMARK VINA RESULT:      -5.7      2.157      3.294
REMARK  9 active torsions:
REMARK  status: ('A' for Active; 'I' for Inactive)
REMARK    1  A    between atoms: C_5  and  C_4 
REMARK    2  A    between atoms: N_16  and  C_4 
REMARK    3  A    between atoms: C_7  and  C_6 
REMARK    4  A    between atoms: C_9  and  C_6 
REMARK    5  A    between atoms: C_10  and  C_8 
REMARK    6  A    between atoms: C_8  and  O_18 
REMARK    7  A    between atoms: C_12  and  C_10 
REMARK    8  A    between atoms: C_10  and  N_13 
REMARK    9  A    between atoms: C_12  and  O_20 
ROOT
HETATM    1  C   UNK N   1      33.277  16.841   8.959  0.00  0.00     0.078 A 
HETATM    2  C   UNK N   1      34.586  17.072   9.501  0.00  0.00     0.270 A 
HETATM    3  C   UNK N   1      33.896  14.978  10.094  0.00  0.00     0.242 A 
HETATM    4  N   UNK N   1      32.880  15.675   9.306  0.00  0.00    -0.338 N 
ATOM      5  HN  UNK N   1      31.972  15.281   9.061  1.00  0.00     0.164 HD
HETATM    6  N   UNK N   1      34.963  15.984  10.186  0.00  0.00    -0.289 N 
HETATM    7  O   UNK N   1      35.261  18.083   9.376  0.00  0.00    -0.266 OA
ENDROOT
BRANCH   3   8
HETATM    8  C   UNK N   1      34.355  13.683   9.356  0.00  0.00     0.182 C 
BRANCH   8   9
HETATM    9  C   UNK N   1      33.252  13.036   8.485  0.00  0.00     0.143 C 
HETATM   10  C   UNK N   1      33.737  11.789   7.762  0.00  0.00     0.041 C 
BRANCH   9  11
HETATM   11  O   UNK N   1      32.178  12.661   9.295  0.00  0.00    -0.394 OA
HETATM   12  H   UNK N   1      31.599  13.011   9.989  0.00  0.00     0.210 HD
ENDBRANCH   9  11
ENDBRANCH   8   9
BRANCH   8  13
HETATM   13  N   UNK N   1      34.807  12.694  10.322  0.00  0.00    -0.418 N 
HETATM   14  H   UNK N   1      35.792  12.518  10.524  0.00  0.00     0.150 HD
HETATM   15  H   UNK N   1      34.105  12.148  10.822  0.00  0.00     0.150 HD
ENDBRANCH   8  13
ENDBRANCH   3   8
BRANCH   3  16
HETATM   16  O   UNK N   1      33.383  14.685  11.361  0.00  0.00    -0.352 OA
HETATM   17  H   UNK N   1      32.782  14.081  11.826  0.00  0.00     0.214 HD
ENDBRANCH   3  16
BRANCH   6  18
HETATM   18  C   UNK N   1      36.249  15.875  10.858  0.00  0.00     0.200 C 
BRANCH  18  19
HETATM   19  C   UNK N   1      36.137  15.412  12.277  0.00  0.00     0.251 C 
HETATM   20  O   UNK N   1      36.205  14.225  12.548  0.00  0.00    -0.305 OA
ENDBRANCH  18  19
ENDBRANCH   6  18
BRANCH   1  21
HETATM   21  C   UNK N   1      32.456  17.748   8.099  0.00  0.00     0.066 C 
BRANCH  21  22
HETATM   22  C   UNK N   1      30.974  17.473   8.295  0.00  0.00    -0.017 C 
HETATM   23  C   UNK N   1      30.340  18.625   9.045  0.00  0.00     0.010 C 
HETATM   24  C   UNK N   1      30.287  17.314   6.953  0.00  0.00     0.010 C 
ENDBRANCH  21  22
ENDBRANCH   1  21
TORSDOF 9
ENDMDL
MODEL 3
REMARK VINA RESULT:      -5.5      2.496      3.227
REMARK  9 active torsions:
REMARK  status: ('A' for Active; 'I' for Inactive)
REMARK    1  A    between atoms: C_5  and  C_4 
REMARK    2  A    between atoms: N_16  and  C_4 
REMARK    3  A    between atoms: C_7  and  C_6 
REMARK    4  A    between atoms: C_9  and  C_6 
REMARK    5  A    between atoms: C_10  and  C_8 
REMARK    6  A    between atoms: C_8  and  O_18 
REMARK    7  A    between atoms: C_12  and  C_10 
REMARK    8  A    between atoms: C_10  and  N_13 
REMARK    9  A    between atoms: C_12  and  O_20 
ROOT
HETATM    1  C   UNK N   1      31.939  16.303   8.594  0.00  0.00     0.078 A 
HETATM    2  C   UNK N   1      32.456  15.236   7.786  0.00  0.00     0.270 A 
HETATM    3  C   UNK N   1      34.202  16.463   8.600  0.00  0.00     0.242 A 
HETATM    4  N   UNK N   1      32.915  17.004   9.036  0.00  0.00    -0.338 N 
ATOM      5  HN  UNK N   1      32.808  17.833   9.621  1.00  0.00     0.164 HD
HETATM    6  N   UNK N   1      33.793  15.322   7.768  0.00  0.00    -0.289 N 
HETATM    7  O   UNK N   1      31.807  14.383   7.200  0.00  0.00    -0.266 OA
ENDROOT
BRANCH   3   8
HETATM    8  C   UNK N   1      35.052  16.032   9.833  0.00  0.00     0.182 C 
BRANCH   8   9
HETATM    9  C   UNK N   1      34.560  14.729  10.506  0.00  0.00     0.143 C 
HETATM   10  C   UNK N   1      35.601  14.124  11.436  0.00  0.00     0.041 C 
BRANCH   9  11
HETATM   11  O   UNK N   1      33.421  14.999  11.269  0.00  0.00    -0.394 OA
HETATM   12  H   UNK N   1      33.069  15.652  11.893  0.00  0.00     0.210 HD
ENDBRANCH   9  11
ENDBRANCH   8   9
BRANCH   8  13
HETATM   13  N   UNK N   1      35.048  17.087  10.834  0.00  0.00    -0.418 N 
HETATM   14  H   UNK N   1      35.889  17.400  11.321  0.00  0.00     0.150 HD
HETATM   15  H   UNK N   1      34.161  17.538  11.060  0.00  0.00     0.150 HD
ENDBRANCH   8  13
ENDBRANCH   3   8
BRANCH   3  16
HETATM   16  O   UNK N   1      34.872  17.419   7.830  0.00  0.00    -0.352 OA
HETATM   17  H   UNK N   1      35.626  18.030   7.850  0.00  0.00     0.214 HD
ENDBRANCH   3  16
BRANCH   6  18
HETATM   18  C   UNK N   1      34.639  14.383   7.048  0.00  0.00     0.200 C 
BRANCH  18  19
HETATM   19  C   UNK N   1      34.955  14.822   5.652  0.00  0.00     0.251 C 
HETATM   20  O   UNK N   1      34.797  15.984   5.318  0.00  0.00    -0.305 OA
ENDBRANCH  18  19
ENDBRANCH   6  18
BRANCH   1  21
HETATM   21  C   UNK N   1      30.514  16.601   8.938  0.00  0.00     0.066 C 
BRANCH  21  22
HETATM   22  C   UNK N   1      30.168  18.038   8.581  0.00  0.00    -0.017 C 
HETATM   23  C   UNK N   1      29.078  18.050   7.531  0.00  0.00     0.010 C 
HETATM   24  C   UNK N   1      29.685  18.781   9.811  0.00  0.00     0.010 C 
ENDBRANCH  21  22
ENDBRANCH   1  21
TORSDOF 9
ENDMDL
MODEL 4
REMARK VINA RESULT:      -5.4      2.543      4.213
REMARK  9 active torsions:
REMARK  status: ('A' for Active; 'I' for Inactive)
REMARK    1  A    between atoms: C_5  and  C_4 
REMARK    2  A    between atoms: N_16  and  C_4 
REMARK    3  A    between atoms: C_7  and  C_6 
REMARK    4  A    between atoms: C_9  and  C_6 
REMARK    5  A    between atoms: C_10  and  C_8 
REMARK    6  A    between atoms: C_8  and  O_18 
REMARK    7  A    between atoms: C_12  and  C_10 
REMARK    8  A    between atoms: C_10  and  N_13 
REMARK    9  A    between atoms: C_12  and  O_20 
ROOT
HETATM    1  C   UNK N   1      31.640  16.882   8.370  0.00  0.00     0.078 A 
HETATM    2  C   UNK N   1      33.005  17.305   8.498  0.00  0.00     0.270 A 
HETATM    3  C   UNK N   1      32.785  15.222   9.407  0.00  0.00     0.242 A 
HETATM    4  N   UNK N   1      31.510  15.722   8.895  0.00  0.00    -0.338 N 
ATOM      5  HN  UNK N   1      30.629  15.211   8.948  1.00  0.00     0.164 HD
HETATM    6  N   UNK N   1      33.695  16.340   9.121  0.00  0.00    -0.289 N 
HETATM    7  O   UNK N   1      33.482  18.364   8.117  0.00  0.00    -0.266 OA
ENDROOT
BRANCH   3   8
HETATM    8  C   UNK N   1      33.189  13.914   8.661  0.00  0.00     0.182 C 
BRANCH   8   9
HETATM    9  C   UNK N   1      33.079  14.013   7.121  0.00  0.00     0.143 C 
HETATM   10  C   UNK N   1      34.022  13.058   6.406  0.00  0.00     0.041 C 
BRANCH   9  11
HETATM   11  O   UNK N   1      31.778  13.695   6.725  0.00  0.00    -0.394 OA
HETATM   12  H   UNK N   1      31.294  13.079   6.155  0.00  0.00     0.210 HD
ENDBRANCH   9  11
ENDBRANCH   8   9
BRANCH   8  13
HETATM   13  N   UNK N   1      32.353  12.810   9.104  0.00  0.00    -0.418 N 
HETATM   14  H   UNK N   1      32.728  11.941   9.486  0.00  0.00     0.150 HD
HETATM   15  H   UNK N   1      31.340  12.908   9.029  0.00  0.00     0.150 HD
ENDBRANCH   8  13
ENDBRANCH   3   8
BRANCH   3  16
HETATM   16  O   UNK N   1      32.682  15.009  10.786  0.00  0.00    -0.352 OA
HETATM   17  H   UNK N   1      32.084  15.136  11.540  0.00  0.00     0.214 HD
ENDBRANCH   3  16
BRANCH   6  18
HETATM   18  C   UNK N   1      35.119  16.437   9.405  0.00  0.00     0.200 C 
BRANCH  18  19
HETATM   19  C   UNK N   1      35.415  16.797  10.827  0.00  0.00     0.251 C 
HETATM   20  O   UNK N   1      35.349  15.954  11.705  0.00  0.00    -0.305 OA
ENDBRANCH  18  19
ENDBRANCH   6  18
BRANCH   1  21
HETATM   21  C   UNK N   1      30.503  17.603   7.718  0.00  0.00     0.066 C 
BRANCH  21  22
HETATM   22  C   UNK N   1      29.362  17.802   8.703  0.00  0.00    -0.017 C 
HETATM   23  C   UNK N   1      29.810  18.723   9.817  0.00  0.00     0.010 C 
HETATM   24  C   UNK N   1      28.165  18.412   8.002  0.00  0.00     0.010 C 
ENDBRANCH  21  22
ENDBRANCH   1  21
TORSDOF 9
ENDMDL
MODEL 5
REMARK VINA RESULT:      -5.3      3.242      6.655
REMARK  9 active torsions:
REMARK  status: ('A' for Active; 'I' for Inactive)
REMARK    1  A    between atoms: C_5  and  C_4 
REMARK    2  A    between atoms: N_16  and  C_4 
REMARK    3  A    between atoms: C_7  and  C_6 
REMARK    4  A    between atoms: C_9  and  C_6 
REMARK    5  A    between atoms: C_10  and  C_8 
REMARK    6  A    between atoms: C_8  and  O_18 
REMARK    7  A    between atoms: C_12  and  C_10 
REMARK    8  A    between atoms: C_10  and  N_13 
REMARK    9  A    between atoms: C_12  and  O_20 
ROOT
HETATM    1  C   UNK N   1      36.220  13.049  14.471  0.00  0.00     0.078 A 
HETATM    2  C   UNK N   1      37.075  12.086  13.840  0.00  0.00     0.270 A 
HETATM    3  C   UNK N   1      35.457  12.724  12.361  0.00  0.00     0.242 A 
HETATM    4  N   UNK N   1      35.301  13.395  13.651  0.00  0.00    -0.338 N 
ATOM      5  HN  UNK N   1      34.555  14.056  13.868  1.00  0.00     0.164 HD
HETATM    6  N   UNK N   1      36.631  11.872  12.594  0.00  0.00    -0.289 N 
HETATM    7  O   UNK N   1      38.047  11.535  14.336  0.00  0.00    -0.266 OA
ENDROOT
BRANCH   3   8
HETATM    8  C   UNK N   1      35.693  13.774  11.232  0.00  0.00     0.182 C 
BRANCH   8   9
HETATM    9  C   UNK N   1      34.938  15.106  11.451  0.00  0.00     0.143 C 
HETATM   10  C   UNK N   1      35.300  16.159  10.415  0.00  0.00     0.041 C 
BRANCH   9  11
HETATM   11  O   UNK N   1      33.562  14.883  11.360  0.00  0.00    -0.394 OA
HETATM   12  H   UNK N   1      32.739  15.036  11.849  0.00  0.00     0.210 HD
ENDBRANCH   9  11
ENDBRANCH   8   9
BRANCH   8  13
HETATM   13  N   UNK N   1      35.281  13.227   9.949  0.00  0.00    -0.418 N 
HETATM   14  H   UNK N   1      34.507  12.570   9.843  0.00  0.00     0.150 HD
HETATM   15  H   UNK N   1      35.792  13.513   9.113  0.00  0.00     0.150 HD
ENDBRANCH   8  13
ENDBRANCH   3   8
BRANCH   3  16
HETATM   16  O   UNK N   1      34.325  11.945  12.101  0.00  0.00    -0.352 OA
HETATM   17  H   UNK N   1      33.623  11.440  12.541  0.00  0.00     0.214 HD
ENDBRANCH   3  16
BRANCH   6  18
HETATM   18  C   UNK N   1      37.278  10.955  11.668  0.00  0.00     0.200 C 
BRANCH  18  19
HETATM   19  C   UNK N   1      36.819   9.538  11.820  0.00  0.00     0.251 C 
HETATM   20  O   UNK N   1      35.675   9.292  12.162  0.00  0.00    -0.305 OA
ENDBRANCH  18  19
ENDBRANCH   6  18
BRANCH   1  21
HETATM   21  C   UNK N   1      36.330  13.629  15.846  0.00  0.00     0.066 C 
BRANCH  21  22
HETATM   22  C   UNK N   1      35.215  13.107  16.738  0.00  0.00    -0.017 C 
HETATM   23  C   UNK N   1      35.454  11.643  17.041  0.00  0.00     0.010 C 
HETATM   24  C   UNK N   1      35.175  13.886  18.037  0.00  0.00     0.010 C 
ENDBRANCH  21  22
ENDBRANCH   1  21
TORSDOF 9
ENDMDL
MODEL 6
REMARK VINA RESULT:      -5.3     15.941     19.161
REMARK  9 active torsions:
REMARK  status: ('A' for Active; 'I' for Inactive)
REMARK    1  A    between atoms: C_5  and  C_4 
REMARK    2  A    between atoms: N_16  and  C_4 
REMARK    3  A    between atoms: C_7  and  C_6 
REMARK    4  A    between atoms: C_9  and  C_6 
REMARK    5  A    between atoms: C_10  and  C_8 
REMARK    6  A    between atoms: C_8  and  O_18 
REMARK    7  A    between atoms: C_12  and  C_10 
REMARK    8  A    between atoms: C_10  and  N_13 
REMARK    9  A    between atoms: C_12  and  O_20 
ROOT
HETATM    1  C   UNK N   1      28.323  26.634  -4.117  0.00  0.00     0.078 A 
HETATM    2  C   UNK N   1      29.311  25.611  -3.929  0.00  0.00     0.270 A 
HETATM    3  C   UNK N   1      27.237  24.655  -3.899  0.00  0.00     0.242 A 
HETATM    4  N   UNK N   1      27.159  26.104  -4.082  0.00  0.00    -0.338 N 
ATOM      5  HN  UNK N   1      26.287  26.625  -4.172  1.00  0.00     0.164 HD
HETATM    6  N   UNK N   1      28.686  24.434  -3.786  0.00  0.00    -0.289 N 
HETATM    7  O   UNK N   1      30.523  25.762  -3.896  0.00  0.00    -0.266 OA
ENDROOT
BRANCH   3   8
HETATM    8  C   UNK N   1      26.613  23.922  -5.125  0.00  0.00     0.182 C 
BRANCH   8   9
HETATM    9  C   UNK N   1      27.470  24.013  -6.410  0.00  0.00     0.143 C 
HETATM   10  C   UNK N   1      27.214  22.857  -7.365  0.00  0.00     0.041 C 
BRANCH   9  11
HETATM   11  O   UNK N   1      27.167  25.195  -7.090  0.00  0.00    -0.394 OA
HETATM   12  H   UNK N   1      27.461  25.727  -7.845  0.00  0.00     0.210 HD
ENDBRANCH   9  11
ENDBRANCH   8   9
BRANCH   8  13
HETATM   13  N   UNK N   1      25.299  24.472  -5.418  0.00  0.00    -0.418 N 
HETATM   14  H   UNK N   1      24.876  25.228  -4.879  0.00  0.00     0.150 HD
HETATM   15  H   UNK N   1      24.774  24.083  -6.202  0.00  0.00     0.150 HD
ENDBRANCH   8  13
ENDBRANCH   3   8
BRANCH   3  16
HETATM   16  O   UNK N   1      26.590  24.299  -2.711  0.00  0.00    -0.352 OA
HETATM   17  H   UNK N   1      25.709  24.211  -2.314  0.00  0.00     0.214 HD
ENDBRANCH   3  16
BRANCH   6  18
HETATM   18  C   UNK N   1      29.393  23.178  -3.588  0.00  0.00     0.200 C 
BRANCH  18  19
HETATM   19  C   UNK N   1      29.540  22.803  -2.146  0.00  0.00     0.251 C 
HETATM   20  O   UNK N   1      30.538  23.121  -1.523  0.00  0.00    -0.305 OA
ENDBRANCH  18  19
ENDBRANCH   6  18
BRANCH   1  21
HETATM   21  C   UNK N   1      28.534  28.096  -4.351  0.00  0.00     0.066 C 
BRANCH  21  22
HETATM   22  C   UNK N   1      27.390  28.678  -5.166  0.00  0.00    -0.017 C 
HETATM   23  C   UNK N   1      27.035  30.049  -4.634  0.00  0.00     0.010 C 
HETATM   24  C   UNK N   1      27.792  28.796  -6.623  0.00  0.00     0.010 C 
ENDBRANCH  21  22
ENDBRANCH   1  21
TORSDOF 9
ENDMDL
MODEL 7
REMARK VINA RESULT:      -5.3     12.185     15.286
REMARK  9 active torsions:
REMARK  status: ('A' for Active; 'I' for Inactive)
REMARK    1  A    between atoms: C_5  and  C_4 
REMARK    2  A    between atoms: N_16  and  C_4 
REMARK    3  A    between atoms: C_7  and  C_6 
REMARK    4  A    between atoms: C_9  and  C_6 
REMARK    5  A    between atoms: C_10  and  C_8 
REMARK    6  A    between atoms: C_8  and  O_18 
REMARK    7  A    between atoms: C_12  and  C_10 
REMARK    8  A    between atoms: C_10  and  N_13 
REMARK    9  A    between atoms: C_12  and  O_20 
ROOT
HETATM    1  C   UNK N   1      23.749  18.410   4.127  0.00  0.00     0.078 A 
HETATM    2  C   UNK N   1      22.998  17.197   4.277  0.00  0.00     0.270 A 
HETATM    3  C   UNK N   1      21.553  18.918   3.869  0.00  0.00     0.242 A 
HETATM    4  N   UNK N   1      22.940  19.380   3.917  0.00  0.00    -0.338 N 
ATOM      5  HN  UNK N   1      23.227  20.351   3.796  1.00  0.00     0.164 HD
HETATM    6  N   UNK N   1      21.695  17.480   4.139  0.00  0.00    -0.289 N 
HETATM    7  O   UNK N   1      23.446  16.082   4.498  0.00  0.00    -0.266 OA
ENDROOT
BRANCH   3   8
HETATM    8  C   UNK N   1      20.937  19.206   2.466  0.00  0.00     0.182 C 
BRANCH   8   9
HETATM    9  C   UNK N   1      21.501  20.476   1.786  0.00  0.00     0.143 C 
HETATM   10  C   UNK N   1      20.712  20.874   0.548  0.00  0.00     0.041 C 
BRANCH   9  11
HETATM   11  O   UNK N   1      21.447  21.548   2.681  0.00  0.00    -0.394 OA
HETATM   12  H   UNK N   1      21.163  22.473   2.733  0.00  0.00     0.210 HD
ENDBRANCH   9  11
ENDBRANCH   8   9
BRANCH   8  13
HETATM   13  N   UNK N   1      19.495  19.355   2.576  0.00  0.00    -0.418 N 
HETATM   14  H   UNK N   1      18.832  18.788   2.047  0.00  0.00     0.150 HD
HETATM   15  H   UNK N   1      19.127  20.060   3.215  0.00  0.00     0.150 HD
ENDBRANCH   8  13
ENDBRANCH   3   8
BRANCH   3  16
HETATM   16  O   UNK N   1      20.820  19.541   4.884  0.00  0.00    -0.352 OA
HETATM   17  H   UNK N   1      19.944  19.552   5.302  0.00  0.00     0.214 HD
ENDBRANCH   3  16
BRANCH   6  18
HETATM   18  C   UNK N   1      20.650  16.472   4.223  0.00  0.00     0.200 C 
BRANCH  18  19
HETATM   19  C   UNK N   1      20.116  16.287   5.609  0.00  0.00     0.251 C 
HETATM   20  O   UNK N   1      20.484  17.014   6.516  0.00  0.00    -0.305 OA
ENDBRANCH  18  19
ENDBRANCH   6  18
BRANCH   1  21
HETATM   21  C   UNK N   1      25.232  18.595   4.167  0.00  0.00     0.066 C 
BRANCH  21  22
HETATM   22  C   UNK N   1      25.584  20.065   4.321  0.00  0.00    -0.017 C 
HETATM   23  C   UNK N   1      26.467  20.250   5.537  0.00  0.00     0.010 C 
HETATM   24  C   UNK N   1      26.320  20.560   3.092  0.00  0.00     0.010 C 
ENDBRANCH  21  22
ENDBRANCH   1  21
TORSDOF 9
ENDMDL
MODEL 8
REMARK VINA RESULT:      -5.2      4.404      6.781
REMARK  9 active torsions:
REMARK  status: ('A' for Active; 'I' for Inactive)
REMARK    1  A    between atoms: C_5  and  C_4 
REMARK    2  A    between atoms: N_16  and  C_4 
REMARK    3  A    between atoms: C_7  and  C_6 
REMARK    4  A    between atoms: C_9  and  C_6 
REMARK    5  A    between atoms: C_10  and  C_8 
REMARK    6  A    between atoms: C_8  and  O_18 
REMARK    7  A    between atoms: C_12  and  C_10 
REMARK    8  A    between atoms: C_10  and  N_13 
REMARK    9  A    between atoms: C_12  and  O_20 
ROOT
HETATM    1  C   UNK N   1      29.537  17.492   7.363  0.00  0.00     0.078 A 
HETATM    2  C   UNK N   1      30.616  17.812   8.253  0.00  0.00     0.270 A 
HETATM    3  C   UNK N   1      31.367  16.341   6.677  0.00  0.00     0.242 A 
HETATM    4  N   UNK N   1      29.950  16.654   6.490  0.00  0.00    -0.338 N 
ATOM      5  HN  UNK N   1      29.366  16.255   5.754  1.00  0.00     0.164 HD
HETATM    6  N   UNK N   1      31.704  17.130   7.870  0.00  0.00    -0.289 N 
HETATM    7  O   UNK N   1      30.574  18.572   9.210  0.00  0.00    -0.266 OA
ENDROOT
BRANCH   3   8
HETATM    8  C   UNK N   1      32.185  16.773   5.422  0.00  0.00     0.182 C 
BRANCH   8   9
HETATM    9  C   UNK N   1      31.404  16.640   4.093  0.00  0.00     0.143 C 
HETATM   10  C   UNK N   1      32.259  16.970   2.879  0.00  0.00     0.041 C 
BRANCH   9  11
HETATM   11  O   UNK N   1      30.955  15.325   3.945  0.00  0.00    -0.394 OA
HETATM   12  H   UNK N   1      31.249  14.460   3.621  0.00  0.00     0.210 HD
ENDBRANCH   9  11
ENDBRANCH   8   9
BRANCH   8  13
HETATM   13  N   UNK N   1      33.395  15.974   5.317  0.00  0.00    -0.418 N 
HETATM   14  H   UNK N   1      33.446  15.100   4.793  0.00  0.00     0.150 HD
HETATM   15  H   UNK N   1      34.236  16.303   5.792  0.00  0.00     0.150 HD
ENDBRANCH   8  13
ENDBRANCH   3   8
BRANCH   3  16
HETATM   16  O   UNK N   1      31.512  14.974   6.933  0.00  0.00    -0.352 OA
HETATM   17  H   UNK N   1      31.867  14.348   7.584  0.00  0.00     0.214 HD
ENDBRANCH   3  16
BRANCH   6  18
HETATM   18  C   UNK N   1      32.985  17.231   8.552  0.00  0.00     0.200 C 
BRANCH  18  19
HETATM   19  C   UNK N   1      33.820  18.378   8.074  0.00  0.00     0.251 C 
HETATM   20  O   UNK N   1      34.652  18.215   7.198  0.00  0.00    -0.305 OA
ENDBRANCH  18  19
ENDBRANCH   6  18
BRANCH   1  21
HETATM   21  C   UNK N   1      28.140  18.027   7.367  0.00  0.00     0.066 C 
BRANCH  21  22
HETATM   22  C   UNK N   1      27.935  18.994   6.212  0.00  0.00    -0.017 C 
HETATM   23  C   UNK N   1      26.921  18.420   5.246  0.00  0.00     0.010 C 
HETATM   24  C   UNK N   1      27.433  20.328   6.727  0.00  0.00     0.010 C 
ENDBRANCH  21  22
ENDBRANCH   1  21
TORSDOF 9
ENDMDL
MODEL 9
REMARK VINA RESULT:      -5.2     11.721     13.997
REMARK  9 active torsions:
REMARK  status: ('A' for Active; 'I' for Inactive)
REMARK    1  A    between atoms: C_5  and  C_4 
REMARK    2  A    between atoms: N_16  and  C_4 
REMARK    3  A    between atoms: C_7  and  C_6 
REMARK    4  A    between atoms: C_9  and  C_6 
REMARK    5  A    between atoms: C_10  and  C_8 
REMARK    6  A    between atoms: C_8  and  O_18 
REMARK    7  A    between atoms: C_12  and  C_10 
REMARK    8  A    between atoms: C_10  and  N_13 
REMARK    9  A    between atoms: C_12  and  O_20 
ROOT
HETATM    1  C   UNK N   1      45.364  19.787   3.022  0.00  0.00     0.078 A 
HETATM    2  C   UNK N   1      43.988  19.391   3.115  0.00  0.00     0.270 A 
HETATM    3  C   UNK N   1      44.142  21.636   3.499  0.00  0.00     0.242 A 
HETATM    4  N   UNK N   1      45.456  21.042   3.255  0.00  0.00    -0.338 N 
ATOM      5  HN  UNK N   1      46.333  21.561   3.267  1.00  0.00     0.164 HD
HETATM    6  N   UNK N   1      43.252  20.471   3.409  0.00  0.00    -0.289 N 
HETATM    7  O   UNK N   1      43.540  18.264   2.961  0.00  0.00    -0.266 OA
ENDROOT
BRANCH   3   8
HETATM    8  C   UNK N   1      43.829  22.715   2.417  0.00  0.00     0.182 C 
BRANCH   8   9
HETATM    9  C   UNK N   1      45.079  23.474   1.913  0.00  0.00     0.143 C 
HETATM   10  C   UNK N   1      44.724  24.654   1.021  0.00  0.00     0.041 C 
BRANCH   9  11
HETATM   11  O   UNK N   1      45.794  23.973   3.005  0.00  0.00    -0.394 OA
HETATM   12  H   UNK N   1      46.649  24.371   3.227  0.00  0.00     0.210 HD
ENDBRANCH   9  11
ENDBRANCH   8   9
BRANCH   8  13
HETATM   13  N   UNK N   1      42.889  23.691   2.945  0.00  0.00    -0.418 N 
HETATM   14  H   UNK N   1      42.437  24.402   2.368  0.00  0.00     0.150 HD
HETATM   15  H   UNK N   1      42.670  23.664   3.941  0.00  0.00     0.150 HD
ENDBRANCH   8  13
ENDBRANCH   3   8
BRANCH   3  16
HETATM   16  O   UNK N   1      44.110  22.183   4.786  0.00  0.00    -0.352 OA
HETATM   17  H   UNK N   1      43.523  22.631   5.416  0.00  0.00     0.214 HD
ENDBRANCH   3  16
BRANCH   6  18
HETATM   18  C   UNK N   1      41.806  20.427   3.565  0.00  0.00     0.200 C 
BRANCH  18  19
HETATM   19  C   UNK N   1      41.065  20.683   2.290  0.00  0.00     0.251 C 
HETATM   20  O   UNK N   1      40.482  21.739   2.115  0.00  0.00    -0.305 OA
ENDBRANCH  18  19
ENDBRANCH   6  18
BRANCH   1  21
HETATM   21  C   UNK N   1      46.552  18.943   2.684  0.00  0.00     0.066 C 
BRANCH  21  22
HETATM   22  C   UNK N   1      47.434  18.747   3.907  0.00  0.00    -0.017 C 
HETATM   23  C   UNK N   1      47.155  17.392   4.521  0.00  0.00     0.010 C 
HETATM   24  C   UNK N   1      48.897  18.827   3.517  0.00  0.00     0.010 C 
ENDBRANCH  21  22
ENDBRANCH   1  21
TORSDOF 9
ENDMDL
