REMARK  7 active torsions:
REMARK  status: ('A' for Active; 'I' for Inactive)
REMARK    1  A    between atoms: C_3  and  C_2 
REMARK    2  A    between atoms: C_4  and  C_2 
REMARK    3  A    between atoms: Se_11  and  C_3 
REMARK    4  A    between atoms: C_5  and  C_4 
REMARK    5  A    between atoms: C_4  and  N_6 
REMARK    6  A    between atoms: O_8  and  C_5 
REMARK    7  A    between atoms: Se_11  and  O_9 
ROOT
HETATM    1  C   UNK N   1       2.571   1.066  -0.095  0.00  0.00     0.173 C 
ENDROOT
BRANCH   1   2
HETATM    2  C   UNK N   1       1.338   0.707   0.732  0.00  0.00     0.035 C 
BRANCH   2   3
HETATM    3  C   UNK N   1       0.500  -0.349   0.023  0.00  0.00     0.003 C 
BRANCH   3   4
HETATM    4 Se   UNK N   1      -1.238  -0.531   0.870  0.00  0.00     0.000 Se
HETATM    5  C   UNK N   1      -1.969   0.885  -0.244  0.00  0.00     0.000 C 
BRANCH   4   6
HETATM    6  O   UNK N   1      -1.676  -1.652  -0.253  0.00  0.00    -0.253 OA
ATOM      7  HO  UNK N   1      -1.319  -2.344   0.292  1.00  0.00     0.253 HD
ENDBRANCH   4   6
ENDBRANCH   3   4
ENDBRANCH   2   3
ENDBRANCH   1   2
BRANCH   1   8
HETATM    8  C   UNK N   1       3.596  -0.046  -0.093  0.00  0.00     0.163 C 
HETATM    9  O   UNK N   1       4.738   0.160   0.269  0.00  0.00    -0.648 OA
BRANCH   8  10
HETATM   10  O   UNK N   1       3.248  -1.281  -0.518  0.00  0.00    -0.775 OA
HETATM   11  H   UNK N   1       2.386  -1.499  -0.812  0.00  0.00     0.167 HD
ENDBRANCH   8  10
ENDBRANCH   1   8
BRANCH   1  12
HETATM   12  N   UNK N   1       3.153   2.287   0.445  0.00  0.00    -0.418 N 
HETATM   13  H   UNK N   1       4.098   2.361   0.822  0.00  0.00     0.150 HD
HETATM   14  H   UNK N   1       2.576   3.127   0.445  0.00  0.00     0.150 HD
ENDBRANCH   1  12
TORSDOF 7
