MODEL 1
REMARK VINA RESULT:      -5.2      0.000      0.000
REMARK  9 active torsions:
REMARK  status: ('A' for Active; 'I' for Inactive)
REMARK    1  A    between atoms: C_1  and  C_10 
REMARK    2  A    between atoms: C_3  and  O_12 
REMARK    3  A    between atoms: C_4  and  O_7 
REMARK    4  A    between atoms: C_5  and  O_8 
REMARK    5  A    between atoms: C_6  and  O_9 
REMARK    6  A    between atoms: C_10  and  O_11 
REMARK    7  A    between atoms: P_15  and  O_12 
REMARK    8  A    between atoms: P_15  and  O_14 
REMARK    9  A    between atoms: P_15  and  O_16 
ROOT
HETATM    1  C   UNK N   1      33.504  15.946   7.193  0.00  0.00     0.179 C 
HETATM    2  O   UNK N   1      33.101  15.521   8.475  0.00  0.00    -0.348 OA
HETATM    3  C   UNK N   1      34.199  15.653   9.348  0.00  0.00     0.303 C 
HETATM    4  C   UNK N   1      34.505  17.145   9.564  0.00  0.00     0.205 C 
HETATM    5  C   UNK N   1      34.819  17.782   8.216  0.00  0.00     0.183 C 
HETATM    6  C   UNK N   1      33.714  17.470   7.213  0.00  0.00     0.180 C 
ENDROOT
BRANCH   3   7
HETATM    7  O   UNK N   1      33.871  15.058  10.576  0.00  0.00    -0.263 OA
BRANCH   7   8
HETATM    8  P   UNK N   1      34.976  13.729  10.783  0.00  0.00     0.393 P 
HETATM    9  O   UNK N   1      34.612  14.103  12.246  0.00  0.00    -0.631 OA
BRANCH   8  10
HETATM   10  O   UNK N   1      33.562  13.170   9.943  0.00  0.00    -0.307 OA
HETATM   11  H   UNK N   1      32.694  13.599   9.882  0.00  0.00     0.222 HD
ENDBRANCH   8  10
BRANCH   8  12
HETATM   12  O   UNK N   1      34.420  12.229  11.459  0.00  0.00    -0.307 OA
HETATM   13  H   UNK N   1      33.473  12.060  11.583  0.00  0.00     0.222 HD
ENDBRANCH   8  12
ENDBRANCH   7   8
ENDBRANCH   3   7
BRANCH   4  14
HETATM   14  O   UNK N   1      35.603  17.300  10.413  0.00  0.00    -0.388 OA
HETATM   15  H   UNK N   1      36.283  17.989  10.358  0.00  0.00     0.210 HD
ENDBRANCH   4  14
BRANCH   1  16
HETATM   16  C   UNK N   1      32.422  15.546   6.197  0.00  0.00     0.198 C 
BRANCH  16  17
HETATM   17  O   UNK N   1      31.553  16.611   5.954  0.00  0.00    -0.398 OA
HETATM   18  H   UNK N   1      31.463  17.216   5.201  0.00  0.00     0.209 HD
ENDBRANCH  16  17
ENDBRANCH   1  16
BRANCH   5  19
HETATM   19  O   UNK N   1      34.961  19.163   8.363  0.00  0.00    -0.390 OA
HETATM   20  H   UNK N   1      34.271  19.780   8.074  0.00  0.00     0.210 HD
ENDBRANCH   5  19
BRANCH   6  21
HETATM   21  O   UNK N   1      34.092  17.942   5.953  0.00  0.00    -0.390 OA
HETATM   22  H   UNK N   1      33.929  17.530   5.090  0.00  0.00     0.210 HD
ENDBRANCH   6  21
TORSDOF 9
ENDMDL
MODEL 2
REMARK VINA RESULT:      -5.1      3.369      5.423
REMARK  9 active torsions:
REMARK  status: ('A' for Active; 'I' for Inactive)
REMARK    1  A    between atoms: C_1  and  C_10 
REMARK    2  A    between atoms: C_3  and  O_12 
REMARK    3  A    between atoms: C_4  and  O_7 
REMARK    4  A    between atoms: C_5  and  O_8 
REMARK    5  A    between atoms: C_6  and  O_9 
REMARK    6  A    between atoms: C_10  and  O_11 
REMARK    7  A    between atoms: P_15  and  O_12 
REMARK    8  A    between atoms: P_15  and  O_14 
REMARK    9  A    between atoms: P_15  and  O_16 
ROOT
HETATM    1  C   UNK N   1      33.177  17.841   7.859  0.00  0.00     0.179 C 
HETATM    2  O   UNK N   1      32.159  17.213   8.605  0.00  0.00    -0.348 OA
HETATM    3  C   UNK N   1      30.945  17.358   7.903  0.00  0.00     0.303 C 
HETATM    4  C   UNK N   1      30.994  16.514   6.619  0.00  0.00     0.205 C 
HETATM    5  C   UNK N   1      32.162  16.990   5.762  0.00  0.00     0.183 C 
HETATM    6  C   UNK N   1      33.444  17.017   6.587  0.00  0.00     0.180 C 
ENDROOT
BRANCH   3   7
HETATM    7  O   UNK N   1      29.897  16.909   8.722  0.00  0.00    -0.263 OA
BRANCH   7   8
HETATM    8  P   UNK N   1      29.144  18.336   9.373  0.00  0.00     0.393 P 
HETATM    9  O   UNK N   1      28.825  18.442   7.857  0.00  0.00    -0.631 OA
BRANCH   8  10
HETATM   10  O   UNK N   1      28.379  16.930  10.046  0.00  0.00    -0.307 OA
HETATM   11  H   UNK N   1      27.942  16.840  10.908  0.00  0.00     0.222 HD
ENDBRANCH   8  10
BRANCH   8  12
HETATM   12  O   UNK N   1      27.416  18.507   9.333  0.00  0.00    -0.307 OA
HETATM   13  H   UNK N   1      26.856  17.808   8.961  0.00  0.00     0.222 HD
ENDBRANCH   8  12
ENDBRANCH   7   8
ENDBRANCH   3   7
BRANCH   4  14
HETATM   14  O   UNK N   1      29.807  16.656   5.897  0.00  0.00    -0.388 OA
HETATM   15  H   UNK N   1      28.989  17.075   6.206  0.00  0.00     0.210 HD
ENDBRANCH   4  14
BRANCH   1  16
HETATM   16  C   UNK N   1      34.421  17.933   8.734  0.00  0.00     0.198 C 
BRANCH  16  17
HETATM   17  O   UNK N   1      35.165  19.071   8.419  0.00  0.00    -0.398 OA
HETATM   18  H   UNK N   1      35.266  19.926   8.867  0.00  0.00     0.209 HD
ENDBRANCH  16  17
ENDBRANCH   1  16
BRANCH   5  19
HETATM   19  O   UNK N   1      32.316  16.150   4.658  0.00  0.00    -0.390 OA
HETATM   20  H   UNK N   1      32.059  16.428   3.766  0.00  0.00     0.210 HD
ENDBRANCH   5  19
BRANCH   6  21
HETATM   21  O   UNK N   1      34.466  17.589   5.824  0.00  0.00    -0.390 OA
HETATM   22  H   UNK N   1      34.409  18.354   5.229  0.00  0.00     0.210 HD
ENDBRANCH   6  21
TORSDOF 9
ENDMDL
MODEL 3
REMARK VINA RESULT:      -5.1     13.337     15.558
REMARK  9 active torsions:
REMARK  status: ('A' for Active; 'I' for Inactive)
REMARK    1  A    between atoms: C_1  and  C_10 
REMARK    2  A    between atoms: C_3  and  O_12 
REMARK    3  A    between atoms: C_4  and  O_7 
REMARK    4  A    between atoms: C_5  and  O_8 
REMARK    5  A    between atoms: C_6  and  O_9 
REMARK    6  A    between atoms: C_10  and  O_11 
REMARK    7  A    between atoms: P_15  and  O_12 
REMARK    8  A    between atoms: P_15  and  O_14 
REMARK    9  A    between atoms: P_15  and  O_16 
ROOT
HETATM    1  C   UNK N   1      30.271  21.391  -5.102  0.00  0.00     0.179 C 
HETATM    2  O   UNK N   1      30.001  22.771  -4.997  0.00  0.00    -0.348 OA
HETATM    3  C   UNK N   1      29.615  23.043  -3.669  0.00  0.00     0.303 C 
HETATM    4  C   UNK N   1      30.823  22.860  -2.737  0.00  0.00     0.205 C 
HETATM    5  C   UNK N   1      31.326  21.426  -2.859  0.00  0.00     0.183 C 
HETATM    6  C   UNK N   1      31.559  21.071  -4.323  0.00  0.00     0.180 C 
ENDROOT
BRANCH   3   7
HETATM    7  O   UNK N   1      29.162  24.370  -3.597  0.00  0.00    -0.263 OA
BRANCH   7   8
HETATM    8  P   UNK N   1      27.453  24.317  -3.923  0.00  0.00     0.393 P 
HETATM    9  O   UNK N   1      27.545  23.745  -2.482  0.00  0.00    -0.631 OA
BRANCH   8  10
HETATM   10  O   UNK N   1      27.987  25.969  -3.943  0.00  0.00    -0.307 OA
HETATM   11  H   UNK N   1      28.390  26.477  -3.221  0.00  0.00     0.222 HD
ENDBRANCH   8  10
BRANCH   8  12
HETATM   12  O   UNK N   1      26.361  25.319  -3.019  0.00  0.00    -0.307 OA
HETATM   13  H   UNK N   1      26.477  26.282  -2.990  0.00  0.00     0.222 HD
ENDBRANCH   8  12
ENDBRANCH   7   8
ENDBRANCH   3   7
BRANCH   4  14
HETATM   14  O   UNK N   1      30.459  23.108  -1.412  0.00  0.00    -0.388 OA
HETATM   15  H   UNK N   1      31.028  23.026  -0.630  0.00  0.00     0.210 HD
ENDBRANCH   4  14
BRANCH   1  16
HETATM   16  C   UNK N   1      30.414  21.045  -6.580  0.00  0.00     0.198 C 
BRANCH  16  17
HETATM   17  O   UNK N   1      30.130  19.697  -6.804  0.00  0.00    -0.398 OA
HETATM   18  H   UNK N   1      30.287  19.119  -7.567  0.00  0.00     0.209 HD
ENDBRANCH  16  17
ENDBRANCH   1  16
BRANCH   5  19
HETATM   19  O   UNK N   1      32.508  21.272  -2.132  0.00  0.00    -0.390 OA
HETATM   20  H   UNK N   1      33.196  20.645  -2.403  0.00  0.00     0.210 HD
ENDBRANCH   5  19
BRANCH   6  21
HETATM   21  O   UNK N   1      31.881  19.715  -4.419  0.00  0.00    -0.390 OA
HETATM   22  H   UNK N   1      31.491  19.050  -5.010  0.00  0.00     0.210 HD
ENDBRANCH   6  21
TORSDOF 9
ENDMDL
MODEL 4
REMARK VINA RESULT:      -5.0     12.213     14.721
REMARK  9 active torsions:
REMARK  status: ('A' for Active; 'I' for Inactive)
REMARK    1  A    between atoms: C_1  and  C_10 
REMARK    2  A    between atoms: C_3  and  O_12 
REMARK    3  A    between atoms: C_4  and  O_7 
REMARK    4  A    between atoms: C_5  and  O_8 
REMARK    5  A    between atoms: C_6  and  O_9 
REMARK    6  A    between atoms: C_10  and  O_11 
REMARK    7  A    between atoms: P_15  and  O_12 
REMARK    8  A    between atoms: P_15  and  O_14 
REMARK    9  A    between atoms: P_15  and  O_16 
ROOT
HETATM    1  C   UNK N   1      22.129  19.027   3.986  0.00  0.00     0.179 C 
HETATM    2  O   UNK N   1      21.566  17.744   3.829  0.00  0.00    -0.348 OA
HETATM    3  C   UNK N   1      20.164  17.881   3.785  0.00  0.00     0.303 C 
HETATM    4  C   UNK N   1      19.760  18.591   2.482  0.00  0.00     0.205 C 
HETATM    5  C   UNK N   1      20.429  19.960   2.441  0.00  0.00     0.183 C 
HETATM    6  C   UNK N   1      21.927  19.824   2.685  0.00  0.00     0.180 C 
ENDROOT
BRANCH   3   7
HETATM    7  O   UNK N   1      19.587  16.602   3.822  0.00  0.00    -0.263 OA
BRANCH   7   8
HETATM    8  P   UNK N   1      19.789  16.025   5.452  0.00  0.00     0.393 P 
HETATM    9  O   UNK N   1      18.248  15.981   5.261  0.00  0.00    -0.631 OA
BRANCH   8  10
HETATM   10  O   UNK N   1      20.556  14.918   4.356  0.00  0.00    -0.307 OA
HETATM   11  H   UNK N   1      21.393  15.031   3.879  0.00  0.00     0.222 HD
ENDBRANCH   8  10
BRANCH   8  12
HETATM   12  O   UNK N   1      19.377  14.388   5.856  0.00  0.00    -0.307 OA
HETATM   13  H   UNK N   1      19.064  14.158   6.745  0.00  0.00     0.222 HD
ENDBRANCH   8  12
ENDBRANCH   7   8
ENDBRANCH   3   7
BRANCH   4  14
HETATM   14  O   UNK N   1      18.375  18.754   2.425  0.00  0.00    -0.388 OA
HETATM   15  H   UNK N   1      17.815  19.181   3.092  0.00  0.00     0.210 HD
ENDBRANCH   4  14
BRANCH   1  16
HETATM   16  C   UNK N   1      23.608  18.861   4.313  0.00  0.00     0.198 C 
BRANCH  16  17
HETATM   17  O   UNK N   1      23.777  18.120   5.483  0.00  0.00    -0.398 OA
HETATM   18  H   UNK N   1      24.572  17.814   5.949  0.00  0.00     0.209 HD
ENDBRANCH  16  17
ENDBRANCH   1  16
BRANCH   5  19
HETATM   19  O   UNK N   1      20.194  20.568   1.207  0.00  0.00    -0.390 OA
HETATM   20  H   UNK N   1      20.519  20.183   0.378  0.00  0.00     0.210 HD
ENDBRANCH   5  19
BRANCH   6  21
HETATM   21  O   UNK N   1      22.492  21.098   2.784  0.00  0.00    -0.390 OA
HETATM   22  H   UNK N   1      22.849  21.649   2.069  0.00  0.00     0.210 HD
ENDBRANCH   6  21
TORSDOF 9
ENDMDL
MODEL 5
REMARK VINA RESULT:      -5.0      4.291      7.152
REMARK  9 active torsions:
REMARK  status: ('A' for Active; 'I' for Inactive)
REMARK    1  A    between atoms: C_1  and  C_10 
REMARK    2  A    between atoms: C_3  and  O_12 
REMARK    3  A    between atoms: C_4  and  O_7 
REMARK    4  A    between atoms: C_5  and  O_8 
REMARK    5  A    between atoms: C_6  and  O_9 
REMARK    6  A    between atoms: C_10  and  O_11 
REMARK    7  A    between atoms: P_15  and  O_12 
REMARK    8  A    between atoms: P_15  and  O_14 
REMARK    9  A    between atoms: P_15  and  O_16 
ROOT
HETATM    1  C   UNK N   1      30.667  16.833   8.213  0.00  0.00     0.179 C 
HETATM    2  O   UNK N   1      30.639  17.541   6.994  0.00  0.00    -0.348 OA
HETATM    3  C   UNK N   1      29.382  17.335   6.393  0.00  0.00     0.303 C 
HETATM    4  C   UNK N   1      28.296  18.041   7.221  0.00  0.00     0.205 C 
HETATM    5  C   UNK N   1      28.308  17.472   8.636  0.00  0.00     0.183 C 
HETATM    6  C   UNK N   1      29.719  17.519   9.212  0.00  0.00     0.180 C 
ENDROOT
BRANCH   3   7
HETATM    7  O   UNK N   1      29.410  17.874   5.097  0.00  0.00    -0.263 OA
BRANCH   7   8
HETATM    8  P   UNK N   1      29.888  16.575   4.041  0.00  0.00     0.393 P 
HETATM    9  O   UNK N   1      28.582  17.094   3.378  0.00  0.00    -0.631 OA
BRANCH   8  10
HETATM   10  O   UNK N   1      31.104  17.813   4.009  0.00  0.00    -0.307 OA
HETATM   11  H   UNK N   1      32.023  17.758   4.315  0.00  0.00     0.222 HD
ENDBRANCH   8  10
BRANCH   8  12
HETATM   12  O   UNK N   1      30.369  16.911   2.407  0.00  0.00    -0.307 OA
HETATM   13  H   UNK N   1      31.073  16.397   1.980  0.00  0.00     0.222 HD
ENDBRANCH   8  12
ENDBRANCH   7   8
ENDBRANCH   3   7
BRANCH   4  14
HETATM   14  O   UNK N   1      27.037  17.835   6.654  0.00  0.00    -0.388 OA
HETATM   15  H   UNK N   1      26.833  17.771   5.708  0.00  0.00     0.210 HD
ENDBRANCH   4  14
BRANCH   1  16
HETATM   16  C   UNK N   1      32.102  16.821   8.725  0.00  0.00     0.198 C 
BRANCH  16  17
HETATM   17  O   UNK N   1      32.302  15.768   9.618  0.00  0.00    -0.398 OA
HETATM   18  H   UNK N   1      33.074  15.209   9.801  0.00  0.00     0.209 HD
ENDBRANCH  16  17
ENDBRANCH   1  16
BRANCH   5  19
HETATM   19  O   UNK N   1      27.431  18.193   9.447  0.00  0.00    -0.390 OA
HETATM   20  H   UNK N   1      27.551  19.141   9.612  0.00  0.00     0.210 HD
ENDBRANCH   5  19
BRANCH   6  21
HETATM   21  O   UNK N   1      29.731  16.865  10.446  0.00  0.00    -0.390 OA
HETATM   22  H   UNK N   1      30.501  16.624  10.985  0.00  0.00     0.210 HD
ENDBRANCH   6  21
TORSDOF 9
ENDMDL
MODEL 6
REMARK VINA RESULT:      -4.9      2.120      4.523
REMARK  9 active torsions:
REMARK  status: ('A' for Active; 'I' for Inactive)
REMARK    1  A    between atoms: C_1  and  C_10 
REMARK    2  A    between atoms: C_3  and  O_12 
REMARK    3  A    between atoms: C_4  and  O_7 
REMARK    4  A    between atoms: C_5  and  O_8 
REMARK    5  A    between atoms: C_6  and  O_9 
REMARK    6  A    between atoms: C_10  and  O_11 
REMARK    7  A    between atoms: P_15  and  O_12 
REMARK    8  A    between atoms: P_15  and  O_14 
REMARK    9  A    between atoms: P_15  and  O_16 
ROOT
HETATM    1  C   UNK N   1      34.094  15.499   9.536  0.00  0.00     0.179 C 
HETATM    2  O   UNK N   1      34.081  14.957   8.235  0.00  0.00    -0.348 OA
HETATM    3  C   UNK N   1      33.366  15.837   7.398  0.00  0.00     0.303 C 
HETATM    4  C   UNK N   1      34.168  17.136   7.217  0.00  0.00     0.205 C 
HETATM    5  C   UNK N   1      34.394  17.770   8.585  0.00  0.00     0.183 C 
HETATM    6  C   UNK N   1      34.991  16.750   9.547  0.00  0.00     0.180 C 
ENDROOT
BRANCH   3   7
HETATM    7  O   UNK N   1      33.181  15.220   6.151  0.00  0.00    -0.263 OA
BRANCH   7   8
HETATM    8  P   UNK N   1      31.465  14.984   5.976  0.00  0.00     0.393 P 
HETATM    9  O   UNK N   1      31.971  14.933   4.508  0.00  0.00    -0.631 OA
BRANCH   8  10
HETATM   10  O   UNK N   1      32.133  13.662   6.881  0.00  0.00    -0.307 OA
HETATM   11  H   UNK N   1      32.305  12.755   6.579  0.00  0.00     0.222 HD
ENDBRANCH   8  10
BRANCH   8  12
HETATM   12  O   UNK N   1      30.848  13.472   5.387  0.00  0.00    -0.307 OA
HETATM   13  H   UNK N   1      30.364  12.869   5.973  0.00  0.00     0.222 HD
ENDBRANCH   8  12
ENDBRANCH   7   8
ENDBRANCH   3   7
BRANCH   4  14
HETATM   14  O   UNK N   1      33.470  18.031   6.405  0.00  0.00    -0.388 OA
HETATM   15  H   UNK N   1      33.843  18.589   5.704  0.00  0.00     0.210 HD
ENDBRANCH   4  14
BRANCH   1  16
HETATM   16  C   UNK N   1      34.615  14.432  10.492  0.00  0.00     0.198 C 
BRANCH  16  17
HETATM   17  O   UNK N   1      33.969  14.514  11.726  0.00  0.00    -0.398 OA
HETATM   18  H   UNK N   1      34.185  14.147  12.598  0.00  0.00     0.209 HD
ENDBRANCH  16  17
ENDBRANCH   1  16
BRANCH   5  19
HETATM   19  O   UNK N   1      35.240  18.873   8.465  0.00  0.00    -0.390 OA
HETATM   20  H   UNK N   1      35.605  19.323   9.243  0.00  0.00     0.210 HD
ENDBRANCH   5  19
BRANCH   6  21
HETATM   21  O   UNK N   1      35.055  17.310  10.826  0.00  0.00    -0.390 OA
HETATM   22  H   UNK N   1      34.834  16.890  11.673  0.00  0.00     0.210 HD
ENDBRANCH   6  21
TORSDOF 9
ENDMDL
MODEL 7
REMARK VINA RESULT:      -4.9      3.859      5.165
REMARK  9 active torsions:
REMARK  status: ('A' for Active; 'I' for Inactive)
REMARK    1  A    between atoms: C_1  and  C_10 
REMARK    2  A    between atoms: C_3  and  O_12 
REMARK    3  A    between atoms: C_4  and  O_7 
REMARK    4  A    between atoms: C_5  and  O_8 
REMARK    5  A    between atoms: C_6  and  O_9 
REMARK    6  A    between atoms: C_10  and  O_11 
REMARK    7  A    between atoms: P_15  and  O_12 
REMARK    8  A    between atoms: P_15  and  O_14 
REMARK    9  A    between atoms: P_15  and  O_16 
ROOT
HETATM    1  C   UNK N   1      29.409  17.536   6.340  0.00  0.00     0.179 C 
HETATM    2  O   UNK N   1      30.255  16.670   7.064  0.00  0.00    -0.348 OA
HETATM    3  C   UNK N   1      30.703  17.352   8.213  0.00  0.00     0.303 C 
HETATM    4  C   UNK N   1      29.524  17.560   9.177  0.00  0.00     0.205 C 
HETATM    5  C   UNK N   1      28.445  18.370   8.467  0.00  0.00     0.183 C 
HETATM    6  C   UNK N   1      28.101  17.731   7.127  0.00  0.00     0.180 C 
ENDROOT
BRANCH   3   7
HETATM    7  O   UNK N   1      31.691  16.575   8.838  0.00  0.00    -0.263 OA
BRANCH   7   8
HETATM    8  P   UNK N   1      33.206  17.050   8.124  0.00  0.00     0.393 P 
HETATM    9  O   UNK N   1      32.558  18.413   8.491  0.00  0.00    -0.631 OA
BRANCH   8  10
HETATM   10  O   UNK N   1      33.517  16.132   9.564  0.00  0.00    -0.307 OA
HETATM   11  H   UNK N   1      34.372  15.953   9.988  0.00  0.00     0.222 HD
ENDBRANCH   8  10
BRANCH   8  12
HETATM   12  O   UNK N   1      34.420  17.828   9.090  0.00  0.00    -0.307 OA
HETATM   13  H   UNK N   1      34.180  18.315   9.894  0.00  0.00     0.222 HD
ENDBRANCH   8  12
ENDBRANCH   7   8
ENDBRANCH   3   7
BRANCH   4  14
HETATM   14  O   UNK N   1      29.942  18.251  10.316  0.00  0.00    -0.388 OA
HETATM   15  H   UNK N   1      29.998  19.214  10.421  0.00  0.00     0.210 HD
ENDBRANCH   4  14
BRANCH   1  16
HETATM   16  C   UNK N   1      29.149  16.915   4.973  0.00  0.00     0.198 C 
BRANCH  16  17
HETATM   17  O   UNK N   1      28.939  17.904   4.011  0.00  0.00    -0.398 OA
HETATM   18  H   UNK N   1      28.402  17.920   3.203  0.00  0.00     0.209 HD
ENDBRANCH  16  17
ENDBRANCH   1  16
BRANCH   5  19
HETATM   19  O   UNK N   1      27.306  18.453   9.270  0.00  0.00    -0.390 OA
HETATM   20  H   UNK N   1      26.830  17.661   9.562  0.00  0.00     0.210 HD
ENDBRANCH   5  19
BRANCH   6  21
HETATM   21  O   UNK N   1      27.218  18.565   6.436  0.00  0.00    -0.390 OA
HETATM   22  H   UNK N   1      27.426  19.197   5.730  0.00  0.00     0.210 HD
ENDBRANCH   6  21
TORSDOF 9
ENDMDL
MODEL 8
REMARK VINA RESULT:      -4.9     11.442     13.547
REMARK  9 active torsions:
REMARK  status: ('A' for Active; 'I' for Inactive)
REMARK    1  A    between atoms: C_1  and  C_10 
REMARK    2  A    between atoms: C_3  and  O_12 
REMARK    3  A    between atoms: C_4  and  O_7 
REMARK    4  A    between atoms: C_5  and  O_8 
REMARK    5  A    between atoms: C_6  and  O_9 
REMARK    6  A    between atoms: C_10  and  O_11 
REMARK    7  A    between atoms: P_15  and  O_12 
REMARK    8  A    between atoms: P_15  and  O_14 
REMARK    9  A    between atoms: P_15  and  O_16 
ROOT
HETATM    1  C   UNK N   1      23.244  12.866   9.500  0.00  0.00     0.179 C 
HETATM    2  O   UNK N   1      22.839  14.204   9.319  0.00  0.00    -0.348 OA
HETATM    3  C   UNK N   1      21.467  14.209   9.000  0.00  0.00     0.303 C 
HETATM    4  C   UNK N   1      20.654  13.772  10.229  0.00  0.00     0.205 C 
HETATM    5  C   UNK N   1      21.098  12.372  10.640  0.00  0.00     0.183 C 
HETATM    6  C   UNK N   1      22.614  12.323  10.795  0.00  0.00     0.180 C 
ENDROOT
BRANCH   3   7
HETATM    7  O   UNK N   1      21.097  15.512   8.631  0.00  0.00    -0.263 OA
BRANCH   7   8
HETATM    8  P   UNK N   1      21.230  15.582   6.896  0.00  0.00     0.393 P 
HETATM    9  O   UNK N   1      19.913  14.787   7.107  0.00  0.00    -0.631 OA
BRANCH   8  10
HETATM   10  O   UNK N   1      21.060  17.193   7.521  0.00  0.00    -0.307 OA
HETATM   11  H   UNK N   1      20.280  17.769   7.485  0.00  0.00     0.222 HD
ENDBRANCH   8  10
BRANCH   8  12
HETATM   12  O   UNK N   1      20.066  16.473   5.967  0.00  0.00    -0.307 OA
HETATM   13  H   UNK N   1      19.559  16.043   5.260  0.00  0.00     0.222 HD
ENDBRANCH   8  12
ENDBRANCH   7   8
ENDBRANCH   3   7
BRANCH   4  14
HETATM   14  O   UNK N   1      19.290  13.752   9.931  0.00  0.00    -0.388 OA
HETATM   15  H   UNK N   1      18.637  13.110  10.252  0.00  0.00     0.210 HD
ENDBRANCH   4  14
BRANCH   1  16
HETATM   16  C   UNK N   1      24.767  12.833   9.567  0.00  0.00     0.198 C 
BRANCH  16  17
HETATM   17  O   UNK N   1      25.206  12.873  10.890  0.00  0.00    -0.398 OA
HETATM   18  H   UNK N   1      24.732  12.811  11.734  0.00  0.00     0.209 HD
ENDBRANCH  16  17
ENDBRANCH   1  16
BRANCH   5  19
HETATM   19  O   UNK N   1      20.479  12.007  11.836  0.00  0.00    -0.390 OA
HETATM   20  H   UNK N   1      19.833  11.285  11.877  0.00  0.00     0.210 HD
ENDBRANCH   5  19
BRANCH   6  21
HETATM   21  O   UNK N   1      23.007  11.003  11.030  0.00  0.00    -0.390 OA
HETATM   22  H   UNK N   1      22.852  10.468  11.825  0.00  0.00     0.210 HD
ENDBRANCH   6  21
TORSDOF 9
ENDMDL
MODEL 9
REMARK VINA RESULT:      -4.9     11.716     13.967
REMARK  9 active torsions:
REMARK  status: ('A' for Active; 'I' for Inactive)
REMARK    1  A    between atoms: C_1  and  C_10 
REMARK    2  A    between atoms: C_3  and  O_12 
REMARK    3  A    between atoms: C_4  and  O_7 
REMARK    4  A    between atoms: C_5  and  O_8 
REMARK    5  A    between atoms: C_6  and  O_9 
REMARK    6  A    between atoms: C_10  and  O_11 
REMARK    7  A    between atoms: P_15  and  O_12 
REMARK    8  A    between atoms: P_15  and  O_14 
REMARK    9  A    between atoms: P_15  and  O_16 
ROOT
HETATM    1  C   UNK N   1      41.975  21.757   2.889  0.00  0.00     0.179 C 
HETATM    2  O   UNK N   1      42.709  22.886   2.468  0.00  0.00    -0.348 OA
HETATM    3  C   UNK N   1      43.737  23.117   3.404  0.00  0.00     0.303 C 
HETATM    4  C   UNK N   1      44.774  21.985   3.316  0.00  0.00     0.205 C 
HETATM    5  C   UNK N   1      44.080  20.659   3.605  0.00  0.00     0.183 C 
HETATM    6  C   UNK N   1      42.849  20.502   2.720  0.00  0.00     0.180 C 
ENDROOT
BRANCH   3   7
HETATM    7  O   UNK N   1      44.351  24.343   3.103  0.00  0.00    -0.263 OA
BRANCH   7   8
HETATM    8  P   UNK N   1      45.131  24.129   1.561  0.00  0.00     0.393 P 
HETATM    9  O   UNK N   1      44.143  25.297   1.288  0.00  0.00    -0.631 OA
BRANCH   8  10
HETATM   10  O   UNK N   1      46.313  24.613   2.737  0.00  0.00    -0.307 OA
HETATM   11  H   UNK N   1      46.250  24.568   3.704  0.00  0.00     0.222 HD
ENDBRANCH   8  10
BRANCH   8  12
HETATM   12  O   UNK N   1      46.149  25.379   0.918  0.00  0.00    -0.307 OA
HETATM   13  H   UNK N   1      45.789  26.254   0.703  0.00  0.00     0.222 HD
ENDBRANCH   8  12
ENDBRANCH   7   8
ENDBRANCH   3   7
BRANCH   4  14
HETATM   14  O   UNK N   1      45.793  22.184   4.248  0.00  0.00    -0.388 OA
HETATM   15  H   UNK N   1      46.289  23.004   4.398  0.00  0.00     0.210 HD
ENDBRANCH   4  14
BRANCH   1  16
HETATM   16  C   UNK N   1      40.709  21.671   2.046  0.00  0.00     0.198 C 
BRANCH  16  17
HETATM   17  O   UNK N   1      39.697  21.004   2.737  0.00  0.00    -0.398 OA
HETATM   18  H   UNK N   1      39.716  20.427   3.518  0.00  0.00     0.209 HD
ENDBRANCH  16  17
ENDBRANCH   1  16
BRANCH   5  19
HETATM   19  O   UNK N   1      44.965  19.601   3.393  0.00  0.00    -0.390 OA
HETATM   20  H   UNK N   1      44.751  18.869   2.794  0.00  0.00     0.210 HD
ENDBRANCH   5  19
BRANCH   6  21
HETATM   21  O   UNK N   1      42.154  19.351   3.102  0.00  0.00    -0.390 OA
HETATM   22  H   UNK N   1      42.427  18.426   2.994  0.00  0.00     0.210 HD
ENDBRANCH   6  21
TORSDOF 9
ENDMDL
