REMARK  7 active torsions:
REMARK  status: ('A' for Active; 'I' for Inactive)
REMARK    1  A    between atoms: C_15  and  C_12 
REMARK    2  A    between atoms: C_20  and  C_12 
REMARK    3  A    between atoms: C_22  and  C_21 
REMARK    4  A    between atoms: C_23  and  C_24 
REMARK    5  A    between atoms: C_33  and  N_49 
REMARK    6  A    between atoms: N_49  and  C_34 
REMARK    7  A    between atoms: Ru_78  and  Ru_78 
ROOT
HETATM    1 Ru   UNK N   1       4.207  -8.353   0.254  0.00  0.00     0.000 Ru
ENDROOT
TORSDOF 7
