MODEL 1
REMARK VINA RESULT:      -7.5      0.000      0.000
REMARK  5 active torsions:
REMARK  status: ('A' for Active; 'I' for Inactive)
REMARK    1  A    between atoms: C_22  and  C_21 
REMARK    2  A    between atoms: C_23  and  O_33 
REMARK    3  A    between atoms: C_24  and  O_34 
REMARK    4  A    between atoms: C_25  and  O_30 
REMARK    5  A    between atoms: C_27  and  O_35 
ROOT
HETATM    1  C   UNK N   1      22.239  15.876   4.366  0.00  0.00     0.017 C 
HETATM    2  C   UNK N   1      22.884  12.966   4.552  0.00  0.00     0.015 C 
HETATM    3  C   UNK N   1      28.533  15.146   3.095  0.00  0.00     0.026 C 
HETATM    4  C   UNK N   1      28.770  18.293   7.596  0.00  0.00     0.003 C 
HETATM    5  C   UNK N   1      27.524  18.379   6.730  0.00  0.00     0.003 C 
HETATM    6  C   UNK N   1      29.280  16.861   7.606  0.00  0.00     0.037 C 
HETATM    7  C   UNK N   1      27.824  19.128   5.436  0.00  0.00     0.035 C 
HETATM    8  C   UNK N   1      24.169  17.311   3.740  0.00  0.00    -0.021 C 
HETATM    9  C   UNK N   1      25.065  17.928   4.538  0.00  0.00     0.004 C 
HETATM   10  C   UNK N   1      23.678  15.883   3.872  0.00  0.00     0.033 C 
HETATM   11  C   UNK N   1      24.291  13.412   4.169  0.00  0.00     0.043 C 
HETATM   12  C   UNK N   1      28.281  15.089   4.596  0.00  0.00     0.146 C 
HETATM   13  C   UNK N   1      30.222  16.565   6.438  0.00  0.00     0.165 C 
HETATM   14  C   UNK N   1      26.655  20.018   4.995  0.00  0.00     0.153 C 
HETATM   15  C   UNK N   1      25.576  19.309   4.122  0.00  0.00     0.172 C 
HETATM   16  C   UNK N   1      25.315  12.435   4.756  0.00  0.00     0.158 C 
HETATM   17  C   UNK N   1      24.601  14.876   4.621  0.00  0.00     0.138 C 
HETATM   18  C   UNK N   1      26.753  12.924   4.449  0.00  0.00     0.212 C 
HETATM   19  C   UNK N   1      29.508  14.507   5.294  0.00  0.00     0.268 C 
HETATM   20  C   UNK N   1      26.920  14.405   4.929  0.00  0.00     0.203 C 
HETATM   21  O   UNK N   1      29.879  13.383   5.007  0.00  0.00    -0.265 OA
HETATM   22  O   UNK N   1      26.743  14.496   6.319  0.00  0.00    -0.362 OA
HETATM   23  O   UNK N   1      30.226  15.197   6.225  0.00  0.00    -0.311 OA
HETATM   24  O   UNK N   1      25.938  15.189   4.259  0.00  0.00    -0.346 OA
HETATM   25  H   UNK N   1      26.586  14.400   7.272  0.00  0.00     0.213 HD
ENDROOT
BRANCH  18  26
HETATM   26  O   UNK N   1      27.736  12.015   4.917  0.00  0.00    -0.383 OA
HETATM   27  C   UNK N   1      28.161  11.149   3.896  0.00  0.00     0.202 C 
ENDBRANCH  18  26
BRANCH  16  28
HETATM   28  O   UNK N   1      25.127  11.159   4.213  0.00  0.00    -0.392 OA
HETATM   29  H   UNK N   1      25.750  10.424   4.324  0.00  0.00     0.210 HD
ENDBRANCH  16  28
BRANCH  13  30
HETATM   30  C   UNK N   1      31.628  17.037   6.731  0.00  0.00    -0.029 A 
HETATM   31  C   UNK N   1      32.585  17.093   5.705  0.00  0.00     0.010 A 
HETATM   32  C   UNK N   1      33.891  17.510   5.980  0.00  0.00     0.001 A 
HETATM   33  C   UNK N   1      34.252  17.872   7.281  0.00  0.00     0.000 A 
HETATM   34  C   UNK N   1      33.309  17.819   8.308  0.00  0.00     0.001 A 
HETATM   35  C   UNK N   1      32.004  17.402   8.036  0.00  0.00     0.010 A 
ENDBRANCH  13  30
BRANCH  15  36
HETATM   36  O   UNK N   1      24.533  20.209   3.778  0.00  0.00    -0.384 OA
HETATM   37  C   UNK N   1      24.713  20.688   2.467  0.00  0.00     0.202 C 
ENDBRANCH  15  36
BRANCH  14  38
HETATM   38  O   UNK N   1      26.083  20.641   6.133  0.00  0.00    -0.388 OA
HETATM   39  C   UNK N   1      26.810  21.803   6.447  0.00  0.00     0.202 C 
ENDBRANCH  14  38
TORSDOF 5
ENDMDL
MODEL 2
REMARK VINA RESULT:      -7.4      7.671     11.118
REMARK  5 active torsions:
REMARK  status: ('A' for Active; 'I' for Inactive)
REMARK    1  A    between atoms: C_22  and  C_21 
REMARK    2  A    between atoms: C_23  and  O_33 
REMARK    3  A    between atoms: C_24  and  O_34 
REMARK    4  A    between atoms: C_25  and  O_30 
REMARK    5  A    between atoms: C_27  and  O_35 
ROOT
HETATM    1  C   UNK N   1      33.984  11.415   5.052  0.00  0.00     0.017 C 
HETATM    2  C   UNK N   1      34.692  14.250   4.439  0.00  0.00     0.015 C 
HETATM    3  C   UNK N   1      32.789  14.952  10.327  0.00  0.00     0.026 C 
HETATM    4  C   UNK N   1      36.633  11.528  12.256  0.00  0.00     0.003 C 
HETATM    5  C   UNK N   1      35.781  11.060  11.088  0.00  0.00     0.003 C 
HETATM    6  C   UNK N   1      36.899  13.019  12.121  0.00  0.00     0.037 C 
HETATM    7  C   UNK N   1      34.368  10.729  11.555  0.00  0.00     0.035 C 
HETATM    8  C   UNK N   1      33.081  11.060   7.340  0.00  0.00    -0.021 C 
HETATM    9  C   UNK N   1      33.741  10.765   8.479  0.00  0.00     0.004 C 
HETATM   10  C   UNK N   1      33.479  12.101   6.312  0.00  0.00     0.033 C 
HETATM   11  C   UNK N   1      34.216  14.514   5.863  0.00  0.00     0.043 C 
HETATM   12  C   UNK N   1      34.278  14.654  10.210  0.00  0.00     0.146 C 
HETATM   13  C   UNK N   1      35.793  13.871  12.745  0.00  0.00     0.165 C 
HETATM   14  C   UNK N   1      33.787   9.509  10.830  0.00  0.00     0.153 C 
HETATM   15  C   UNK N   1      33.072   9.820   9.480  0.00  0.00     0.172 C 
HETATM   16  C   UNK N   1      34.959  15.726   6.435  0.00  0.00     0.158 C 
HETATM   17  C   UNK N   1      34.388  13.271   6.795  0.00  0.00     0.138 C 
HETATM   18  C   UNK N   1      34.550  15.953   7.911  0.00  0.00     0.212 C 
HETATM   19  C   UNK N   1      35.054  15.583  11.139  0.00  0.00     0.268 C 
HETATM   20  C   UNK N   1      34.747  14.629   8.723  0.00  0.00     0.203 C 
HETATM   21  O   UNK N   1      34.974  16.788  10.981  0.00  0.00    -0.265 OA
HETATM   22  O   UNK N   1      36.099  14.250   8.725  0.00  0.00    -0.362 OA
HETATM   23  O   UNK N   1      35.834  15.125  12.159  0.00  0.00    -0.311 OA
HETATM   24  O   UNK N   1      33.957  13.620   8.102  0.00  0.00    -0.346 OA
HETATM   25  H   UNK N   1      37.056  14.115   8.629  0.00  0.00     0.213 HD
ENDROOT
BRANCH  18  26
HETATM   26  O   UNK N   1      35.164  17.106   8.464  0.00  0.00    -0.383 OA
HETATM   27  C   UNK N   1      34.368  18.249   8.278  0.00  0.00     0.202 C 
ENDBRANCH  18  26
BRANCH  16  28
HETATM   28  O   UNK N   1      34.662  16.869   5.684  0.00  0.00    -0.392 OA
HETATM   29  H   UNK N   1      34.088  17.588   5.992  0.00  0.00     0.210 HD
ENDBRANCH  16  28
BRANCH  13  30
HETATM   30  C   UNK N   1      35.976  14.003  14.240  0.00  0.00    -0.029 A 
HETATM   31  C   UNK N   1      36.913  14.909  14.762  0.00  0.00     0.010 A 
HETATM   32  C   UNK N   1      37.098  15.017  16.144  0.00  0.00     0.001 A 
HETATM   33  C   UNK N   1      36.351  14.220  17.015  0.00  0.00     0.000 A 
HETATM   34  C   UNK N   1      35.417  13.314  16.507  0.00  0.00     0.001 A 
HETATM   35  C   UNK N   1      35.232  13.204  15.127  0.00  0.00     0.010 A 
ENDBRANCH  13  30
BRANCH  15  36
HETATM   36  O   UNK N   1      32.582   8.629   8.881  0.00  0.00    -0.384 OA
HETATM   37  C   UNK N   1      31.438   8.175   9.562  0.00  0.00     0.202 C 
ENDBRANCH  15  36
BRANCH  14  38
HETATM   38  O   UNK N   1      34.798   8.528  10.674  0.00  0.00    -0.388 OA
HETATM   39  C   UNK N   1      34.711   7.593  11.721  0.00  0.00     0.202 C 
ENDBRANCH  14  38
TORSDOF 5
ENDMDL
MODEL 3
REMARK VINA RESULT:      -7.3     12.158     16.087
REMARK  5 active torsions:
REMARK  status: ('A' for Active; 'I' for Inactive)
REMARK    1  A    between atoms: C_22  and  C_21 
REMARK    2  A    between atoms: C_23  and  O_33 
REMARK    3  A    between atoms: C_24  and  O_34 
REMARK    4  A    between atoms: C_25  and  O_30 
REMARK    5  A    between atoms: C_27  and  O_35 
ROOT
HETATM    1  C   UNK N   1      38.984   9.441  10.174  0.00  0.00     0.017 C 
HETATM    2  C   UNK N   1      38.453  12.379  10.130  0.00  0.00     0.015 C 
HETATM    3  C   UNK N   1      33.771  10.576  13.820  0.00  0.00     0.026 C 
HETATM    4  C   UNK N   1      37.189   8.470  17.574  0.00  0.00     0.003 C 
HETATM    5  C   UNK N   1      37.392   8.072  16.122  0.00  0.00     0.003 C 
HETATM    6  C   UNK N   1      36.738   9.920  17.642  0.00  0.00     0.037 C 
HETATM    7  C   UNK N   1      36.297   7.109  15.674  0.00  0.00     0.035 C 
HETATM    8  C   UNK N   1      37.347   8.127  11.503  0.00  0.00    -0.021 C 
HETATM    9  C   UNK N   1      37.385   7.789  12.809  0.00  0.00     0.004 C 
HETATM   10  C   UNK N   1      37.656   9.489  10.915  0.00  0.00     0.033 C 
HETATM   11  C   UNK N   1      37.264  12.019  11.015  0.00  0.00     0.043 C 
HETATM   12  C   UNK N   1      35.042  10.913  14.587  0.00  0.00     0.146 C 
HETATM   13  C   UNK N   1      35.221  10.069  17.518  0.00  0.00     0.165 C 
HETATM   14  C   UNK N   1      36.827   6.025  14.728  0.00  0.00     0.153 C 
HETATM   15  C   UNK N   1      36.849   6.416  13.218  0.00  0.00     0.172 C 
HETATM   16  C   UNK N   1      36.931  13.203  11.931  0.00  0.00     0.158 C 
HETATM   17  C   UNK N   1      37.508  10.723  11.854  0.00  0.00     0.138 C 
HETATM   18  C   UNK N   1      35.782  12.821  12.896  0.00  0.00     0.212 C 
HETATM   19  C   UNK N   1      34.687  11.756  15.808  0.00  0.00     0.268 C 
HETATM   20  C   UNK N   1      36.144  11.498  13.651  0.00  0.00     0.203 C 
HETATM   21  O   UNK N   1      34.136  12.831  15.651  0.00  0.00    -0.265 OA
HETATM   22  O   UNK N   1      37.296  11.678  14.434  0.00  0.00    -0.362 OA
HETATM   23  O   UNK N   1      34.950  11.356  17.085  0.00  0.00    -0.311 OA
HETATM   24  O   UNK N   1      36.371  10.490  12.671  0.00  0.00    -0.346 OA
HETATM   25  H   UNK N   1      38.096  11.950  14.910  0.00  0.00     0.213 HD
ENDROOT
BRANCH  18  26
HETATM   26  O   UNK N   1      35.394  13.909  13.720  0.00  0.00    -0.383 OA
HETATM   27  C   UNK N   1      36.508  14.649  14.149  0.00  0.00     0.202 C 
ENDBRANCH  18  26
BRANCH  16  28
HETATM   28  O   UNK N   1      36.553  14.311  11.164  0.00  0.00    -0.392 OA
HETATM   29  H   UNK N   1      36.367  15.189  11.533  0.00  0.00     0.210 HD
ENDBRANCH  16  28
BRANCH  13  30
HETATM   30  C   UNK N   1      34.534   9.824  18.842  0.00  0.00    -0.029 A 
HETATM   31  C   UNK N   1      33.551   8.828  18.956  0.00  0.00     0.010 A 
HETATM   32  C   UNK N   1      32.901   8.615  20.176  0.00  0.00     0.001 A 
HETATM   33  C   UNK N   1      33.224   9.396  21.289  0.00  0.00     0.000 A 
HETATM   34  C   UNK N   1      34.198  10.390  21.186  0.00  0.00     0.001 A 
HETATM   35  C   UNK N   1      34.849  10.605  19.968  0.00  0.00     0.010 A 
ENDBRANCH  13  30
BRANCH  15  36
HETATM   36  O   UNK N   1      37.366   5.356  12.428  0.00  0.00    -0.384 OA
HETATM   37  C   UNK N   1      36.399   4.348  12.269  0.00  0.00     0.202 C 
ENDBRANCH  15  36
BRANCH  14  38
HETATM   38  O   UNK N   1      38.101   5.592  15.175  0.00  0.00    -0.388 OA
HETATM   39  C   UNK N   1      37.974   4.348  15.818  0.00  0.00     0.202 C 
ENDBRANCH  14  38
TORSDOF 5
ENDMDL
MODEL 4
REMARK VINA RESULT:      -7.3      3.470      8.349
REMARK  5 active torsions:
REMARK  status: ('A' for Active; 'I' for Inactive)
REMARK    1  A    between atoms: C_22  and  C_21 
REMARK    2  A    between atoms: C_23  and  O_33 
REMARK    3  A    between atoms: C_24  and  O_34 
REMARK    4  A    between atoms: C_25  and  O_30 
REMARK    5  A    between atoms: C_27  and  O_35 
ROOT
HETATM    1  C   UNK N   1      34.394  10.442   6.060  0.00  0.00     0.017 C 
HETATM    2  C   UNK N   1      35.342  11.573   8.656  0.00  0.00     0.015 C 
HETATM    3  C   UNK N   1      33.634  16.856   5.836  0.00  0.00     0.026 C 
HETATM    4  C   UNK N   1      28.418  15.201   5.313  0.00  0.00     0.003 C 
HETATM    5  C   UNK N   1      29.516  14.255   4.856  0.00  0.00     0.003 C 
HETATM    6  C   UNK N   1      28.886  15.961   6.543  0.00  0.00     0.037 C 
HETATM    7  C   UNK N   1      30.141  14.749   3.556  0.00  0.00     0.035 C 
HETATM    8  C   UNK N   1      33.604  12.146   4.433  0.00  0.00    -0.021 C 
HETATM    9  C   UNK N   1      32.362  12.644   4.257  0.00  0.00     0.004 C 
HETATM   10  C   UNK N   1      34.310  11.931   5.757  0.00  0.00     0.033 C 
HETATM   11  C   UNK N   1      34.977  12.913   8.028  0.00  0.00     0.043 C 
HETATM   12  C   UNK N   1      32.508  16.212   6.635  0.00  0.00     0.146 C 
HETATM   13  C   UNK N   1      29.663  17.231   6.189  0.00  0.00     0.165 C 
HETATM   14  C   UNK N   1      30.497  13.597   2.608  0.00  0.00     0.153 C 
HETATM   15  C   UNK N   1      31.905  12.966   2.833  0.00  0.00     0.172 C 
HETATM   16  C   UNK N   1      34.588  13.906   9.129  0.00  0.00     0.158 C 
HETATM   17  C   UNK N   1      33.835  12.789   6.967  0.00  0.00     0.138 C 
HETATM   18  C   UNK N   1      34.131  15.245   8.500  0.00  0.00     0.212 C 
HETATM   19  C   UNK N   1      31.781  17.286   7.439  0.00  0.00     0.268 C 
HETATM   20  C   UNK N   1      33.007  14.976   7.443  0.00  0.00     0.203 C 
HETATM   21  O   UNK N   1      32.401  17.937   8.261  0.00  0.00    -0.265 OA
HETATM   22  O   UNK N   1      31.881  14.404   8.057  0.00  0.00    -0.362 OA
HETATM   23  O   UNK N   1      30.457  17.565   7.273  0.00  0.00    -0.311 OA
HETATM   24  O   UNK N   1      33.538  14.084   6.468  0.00  0.00    -0.346 OA
HETATM   25  H   UNK N   1      31.192  14.010   8.616  0.00  0.00     0.213 HD
ENDROOT
BRANCH  18  26
HETATM   26  O   UNK N   1      33.823  16.219   9.484  0.00  0.00    -0.383 OA
HETATM   27  C   UNK N   1      34.927  17.049   9.747  0.00  0.00     0.202 C 
ENDBRANCH  18  26
BRANCH  16  28
HETATM   28  O   UNK N   1      35.678  14.133   9.977  0.00  0.00    -0.392 OA
HETATM   29  H   UNK N   1      35.962  15.012  10.273  0.00  0.00     0.210 HD
ENDBRANCH  16  28
BRANCH  13  30
HETATM   30  C   UNK N   1      28.729  18.377   5.872  0.00  0.00    -0.029 A 
HETATM   31  C   UNK N   1      28.445  18.711   4.538  0.00  0.00     0.010 A 
HETATM   32  C   UNK N   1      27.598  19.784   4.244  0.00  0.00     0.001 A 
HETATM   33  C   UNK N   1      27.031  20.533   5.278  0.00  0.00     0.000 A 
HETATM   34  C   UNK N   1      27.308  20.211   6.608  0.00  0.00     0.001 A 
HETATM   35  C   UNK N   1      28.155  19.140   6.904  0.00  0.00     0.010 A 
ENDBRANCH  13  30
BRANCH  15  36
HETATM   36  O   UNK N   1      32.135  11.904   1.919  0.00  0.00    -0.384 OA
HETATM   37  C   UNK N   1      32.730  12.392   0.742  0.00  0.00     0.202 C 
ENDBRANCH  15  36
BRANCH  14  38
HETATM   38  O   UNK N   1      29.472  12.619   2.649  0.00  0.00    -0.388 OA
HETATM   39  C   UNK N   1      28.648  12.755   1.517  0.00  0.00     0.202 C 
ENDBRANCH  14  38
TORSDOF 5
ENDMDL
MODEL 5
REMARK VINA RESULT:      -7.2     12.107     14.965
REMARK  5 active torsions:
REMARK  status: ('A' for Active; 'I' for Inactive)
REMARK    1  A    between atoms: C_22  and  C_21 
REMARK    2  A    between atoms: C_23  and  O_33 
REMARK    3  A    between atoms: C_24  and  O_34 
REMARK    4  A    between atoms: C_25  and  O_30 
REMARK    5  A    between atoms: C_27  and  O_35 
ROOT
HETATM    1  C   UNK N   1      29.276  19.840  -8.511  0.00  0.00     0.017 C 
HETATM    2  C   UNK N   1      26.565  20.938  -9.114  0.00  0.00     0.015 C 
HETATM    3  C   UNK N   1      27.700  23.961  -3.789  0.00  0.00     0.026 C 
HETATM    4  C   UNK N   1      32.167  26.427  -5.834  0.00  0.00     0.003 C 
HETATM    5  C   UNK N   1      32.043  24.923  -6.002  0.00  0.00     0.003 C 
HETATM    6  C   UNK N   1      30.791  27.064  -5.949  0.00  0.00     0.037 C 
HETATM    7  C   UNK N   1      32.282  24.215  -4.673  0.00  0.00     0.035 C 
HETATM    8  C   UNK N   1      30.267  20.676  -6.392  0.00  0.00    -0.021 C 
HETATM    9  C   UNK N   1      31.052  21.754  -6.186  0.00  0.00     0.004 C 
HETATM   10  C   UNK N   1      29.009  20.625  -7.236  0.00  0.00     0.033 C 
HETATM   11  C   UNK N   1      26.750  21.694  -7.803  0.00  0.00     0.043 C 
HETATM   12  C   UNK N   1      28.177  24.718  -5.021  0.00  0.00     0.146 C 
HETATM   13  C   UNK N   1      30.047  27.099  -4.613  0.00  0.00     0.165 C 
HETATM   14  C   UNK N   1      33.051  22.899  -4.844  0.00  0.00     0.153 C 
HETATM   15  C   UNK N   1      32.168  21.650  -5.144  0.00  0.00     0.172 C 
HETATM   16  C   UNK N   1      25.960  23.006  -7.853  0.00  0.00     0.158 C 
HETATM   17  C   UNK N   1      28.254  21.967  -7.473  0.00  0.00     0.138 C 
HETATM   18  C   UNK N   1      26.209  23.826  -6.563  0.00  0.00     0.212 C 
HETATM   19  C   UNK N   1      27.780  26.186  -4.898  0.00  0.00     0.268 C 
HETATM   20  C   UNK N   1      27.748  24.005  -6.339  0.00  0.00     0.203 C 
HETATM   21  O   UNK N   1      26.602  26.479  -4.800  0.00  0.00    -0.265 OA
HETATM   22  O   UNK N   1      28.320  24.724  -7.402  0.00  0.00    -0.362 OA
HETATM   23  O   UNK N   1      28.692  27.200  -4.878  0.00  0.00    -0.311 OA
HETATM   24  O   UNK N   1      28.326  22.705  -6.263  0.00  0.00    -0.346 OA
HETATM   25  H   UNK N   1      28.567  25.217  -8.200  0.00  0.00     0.213 HD
ENDROOT
BRANCH  18  26
HETATM   26  O   UNK N   1      25.445  25.021  -6.535  0.00  0.00    -0.383 OA
HETATM   27  C   UNK N   1      25.562  25.733  -7.741  0.00  0.00     0.202 C 
ENDBRANCH  18  26
BRANCH  16  28
HETATM   28  O   UNK N   1      24.593  22.738  -7.983  0.00  0.00    -0.392 OA
HETATM   29  H   UNK N   1      24.228  22.029  -8.536  0.00  0.00     0.210 HD
ENDBRANCH  16  28
BRANCH  13  30
HETATM   30  C   UNK N   1      30.487  28.274  -3.769  0.00  0.00    -0.029 A 
HETATM   31  C   UNK N   1      31.187  28.063  -2.570  0.00  0.00     0.010 A 
HETATM   32  C   UNK N   1      31.576  29.148  -1.780  0.00  0.00     0.001 A 
HETATM   33  C   UNK N   1      31.268  30.452  -2.177  0.00  0.00     0.000 A 
HETATM   34  C   UNK N   1      30.570  30.673  -3.365  0.00  0.00     0.001 A 
HETATM   35  C   UNK N   1      30.179  29.590  -4.157  0.00  0.00     0.010 A 
ENDBRANCH  13  30
BRANCH  15  36
HETATM   36  O   UNK N   1      32.970  20.489  -5.299  0.00  0.00    -0.384 OA
HETATM   37  C   UNK N   1      33.473  20.071  -4.053  0.00  0.00     0.202 C 
ENDBRANCH  15  36
BRANCH  14  38
HETATM   38  O   UNK N   1      34.064  23.070  -5.821  0.00  0.00    -0.388 OA
HETATM   39  C   UNK N   1      35.316  23.162  -5.188  0.00  0.00     0.202 C 
ENDBRANCH  14  38
TORSDOF 5
ENDMDL
MODEL 6
REMARK VINA RESULT:      -7.0      3.043      4.755
REMARK  5 active torsions:
REMARK  status: ('A' for Active; 'I' for Inactive)
REMARK    1  A    between atoms: C_22  and  C_21 
REMARK    2  A    between atoms: C_23  and  O_33 
REMARK    3  A    between atoms: C_24  and  O_34 
REMARK    4  A    between atoms: C_25  and  O_30 
REMARK    5  A    between atoms: C_27  and  O_35 
ROOT
HETATM    1  C   UNK N   1      20.374  18.125   7.683  0.00  0.00     0.017 C 
HETATM    2  C   UNK N   1      20.076  15.493   9.063  0.00  0.00     0.015 C 
HETATM    3  C   UNK N   1      23.093  13.601   3.954  0.00  0.00     0.026 C 
HETATM    4  C   UNK N   1      27.449  16.777   5.030  0.00  0.00     0.003 C 
HETATM    5  C   UNK N   1      26.072  17.417   5.073  0.00  0.00     0.003 C 
HETATM    6  C   UNK N   1      27.361  15.353   5.555  0.00  0.00     0.037 C 
HETATM    7  C   UNK N   1      25.517  17.586   3.663  0.00  0.00     0.035 C 
HETATM    8  C   UNK N   1      21.507  17.997   5.475  0.00  0.00    -0.021 C 
HETATM    9  C   UNK N   1      22.820  18.103   5.185  0.00  0.00     0.004 C 
HETATM   10  C   UNK N   1      20.895  17.189   6.603  0.00  0.00     0.033 C 
HETATM   11  C   UNK N   1      20.785  14.942   7.830  0.00  0.00     0.043 C 
HETATM   12  C   UNK N   1      24.027  13.987   5.093  0.00  0.00     0.146 C 
HETATM   13  C   UNK N   1      26.995  14.346   4.462  0.00  0.00     0.165 C 
HETATM   14  C   UNK N   1      24.730  18.892   3.500  0.00  0.00     0.153 C 
HETATM   15  C   UNK N   1      23.222  18.809   3.888  0.00  0.00     0.172 C 
HETATM   16  C   UNK N   1      21.567  13.681   8.211  0.00  0.00     0.158 C 
HETATM   17  C   UNK N   1      21.726  15.994   7.158  0.00  0.00     0.138 C 
HETATM   18  C   UNK N   1      22.363  13.159   6.989  0.00  0.00     0.212 C 
HETATM   19  C   UNK N   1      25.127  12.936   5.222  0.00  0.00     0.268 C 
HETATM   20  C   UNK N   1      23.241  14.314   6.399  0.00  0.00     0.203 C 
HETATM   21  O   UNK N   1      24.823  11.781   5.458  0.00  0.00    -0.265 OA
HETATM   22  O   UNK N   1      24.181  14.750   7.347  0.00  0.00    -0.362 OA
HETATM   23  O   UNK N   1      26.450  13.230   5.073  0.00  0.00    -0.311 OA
HETATM   24  O   UNK N   1      22.369  15.384   6.049  0.00  0.00    -0.346 OA
HETATM   25  H   UNK N   1      24.759  14.946   8.102  0.00  0.00     0.213 HD
ENDROOT
BRANCH  18  26
HETATM   26  O   UNK N   1      23.051  11.953   7.275  0.00  0.00    -0.383 OA
HETATM   27  C   UNK N   1      23.548  11.947   8.590  0.00  0.00     0.202 C 
ENDBRANCH  18  26
BRANCH  16  28
HETATM   28  O   UNK N   1      20.688  12.688   8.657  0.00  0.00    -0.392 OA
HETATM   29  H   UNK N   1      20.458  11.895   8.146  0.00  0.00     0.210 HD
ENDBRANCH  16  28
BRANCH  13  30
HETATM   30  C   UNK N   1      28.209  13.943   3.656  0.00  0.00    -0.029 A 
HETATM   31  C   UNK N   1      28.075  13.589   2.304  0.00  0.00     0.010 A 
HETATM   32  C   UNK N   1      29.194  13.196   1.563  0.00  0.00     0.001 A 
HETATM   33  C   UNK N   1      30.454  13.151   2.166  0.00  0.00     0.000 A 
HETATM   34  C   UNK N   1      30.597  13.499   3.511  0.00  0.00     0.001 A 
HETATM   35  C   UNK N   1      29.481  13.892   4.253  0.00  0.00     0.010 A 
ENDBRANCH  13  30
BRANCH  15  36
HETATM   36  O   UNK N   1      22.585  20.066   3.718  0.00  0.00    -0.384 OA
HETATM   37  C   UNK N   1      21.933  20.119   2.472  0.00  0.00     0.202 C 
ENDBRANCH  15  36
BRANCH  14  38
HETATM   38  O   UNK N   1      25.393  19.932   4.199  0.00  0.00    -0.388 OA
HETATM   39  C   UNK N   1      26.312  20.563   3.341  0.00  0.00     0.202 C 
ENDBRANCH  14  38
TORSDOF 5
ENDMDL
MODEL 7
REMARK VINA RESULT:      -7.0     12.055     15.924
REMARK  5 active torsions:
REMARK  status: ('A' for Active; 'I' for Inactive)
REMARK    1  A    between atoms: C_22  and  C_21 
REMARK    2  A    between atoms: C_23  and  O_33 
REMARK    3  A    between atoms: C_24  and  O_34 
REMARK    4  A    between atoms: C_25  and  O_30 
REMARK    5  A    between atoms: C_27  and  O_35 
ROOT
HETATM    1  C   UNK N   1      28.226  20.141  -9.895  0.00  0.00     0.017 C 
HETATM    2  C   UNK N   1      29.695  19.196  -7.473  0.00  0.00     0.015 C 
HETATM    3  C   UNK N   1      30.836  25.301  -7.009  0.00  0.00     0.026 C 
HETATM    4  C   UNK N   1      25.492  26.541  -6.657  0.00  0.00     0.003 C 
HETATM    5  C   UNK N   1      25.939  25.628  -7.786  0.00  0.00     0.003 C 
HETATM    6  C   UNK N   1      26.319  26.251  -5.415  0.00  0.00     0.037 C 
HETATM    7  C   UNK N   1      26.689  26.422  -8.850  0.00  0.00     0.035 C 
HETATM    8  C   UNK N   1      28.366  22.591 -10.282  0.00  0.00    -0.021 C 
HETATM    9  C   UNK N   1      27.547  23.571  -9.845  0.00  0.00     0.004 C 
HETATM   10  C   UNK N   1      28.903  21.433  -9.464  0.00  0.00     0.033 C 
HETATM   11  C   UNK N   1      30.046  20.670  -7.302  0.00  0.00     0.043 C 
HETATM   12  C   UNK N   1      29.564  24.873  -6.289  0.00  0.00     0.146 C 
HETATM   13  C   UNK N   1      27.623  27.049  -5.378  0.00  0.00     0.165 C 
HETATM   14  C   UNK N   1      26.380  25.930 -10.270  0.00  0.00     0.153 C 
HETATM   15  C   UNK N   1      27.275  24.756 -10.773  0.00  0.00     0.172 C 
HETATM   16  C   UNK N   1      30.251  20.978  -5.814  0.00  0.00     0.158 C 
HETATM   17  C   UNK N   1      28.970  21.621  -7.919  0.00  0.00     0.138 C 
HETATM   18  C   UNK N   1      30.522  22.490  -5.617  0.00  0.00     0.212 C 
HETATM   19  C   UNK N   1      29.510  25.540  -4.917  0.00  0.00     0.268 C 
HETATM   20  C   UNK N   1      29.387  23.324  -6.301  0.00  0.00     0.203 C 
HETATM   21  O   UNK N   1      30.400  25.323  -4.114  0.00  0.00    -0.265 OA
HETATM   22  O   UNK N   1      28.146  23.047  -5.706  0.00  0.00    -0.362 OA
HETATM   23  O   UNK N   1      28.509  26.387  -4.546  0.00  0.00    -0.311 OA
HETATM   24  O   UNK N   1      29.359  22.964  -7.679  0.00  0.00    -0.346 OA
HETATM   25  H   UNK N   1      27.369  22.747  -5.206  0.00  0.00     0.213 HD
ENDROOT
BRANCH  18  26
HETATM   26  O   UNK N   1      30.784  22.813  -4.260  0.00  0.00    -0.383 OA
HETATM   27  C   UNK N   1      30.064  21.980  -3.388  0.00  0.00     0.202 C 
ENDBRANCH  18  26
BRANCH  16  28
HETATM   28  O   UNK N   1      31.329  20.239  -5.315  0.00  0.00    -0.392 OA
HETATM   29  H   UNK N   1      32.046  19.884  -5.865  0.00  0.00     0.210 HD
ENDBRANCH  16  28
BRANCH  13  30
HETATM   30  C   UNK N   1      27.395  28.453  -4.863  0.00  0.00    -0.029 A 
HETATM   31  C   UNK N   1      26.539  28.677  -3.774  0.00  0.00     0.010 A 
HETATM   32  C   UNK N   1      26.313  29.977  -3.311  0.00  0.00     0.001 A 
HETATM   33  C   UNK N   1      26.937  31.062  -3.932  0.00  0.00     0.000 A 
HETATM   34  C   UNK N   1      27.789  30.850  -5.017  0.00  0.00     0.001 A 
HETATM   35  C   UNK N   1      28.016  29.552  -5.483  0.00  0.00     0.010 A 
ENDBRANCH  13  30
BRANCH  15  36
HETATM   36  O   UNK N   1      26.904  24.364 -12.086  0.00  0.00    -0.384 OA
HETATM   37  C   UNK N   1      27.672  25.057 -13.039  0.00  0.00     0.202 C 
ENDBRANCH  15  36
BRANCH  14  38
HETATM   38  O   UNK N   1      25.001  25.616 -10.369  0.00  0.00    -0.388 OA
HETATM   39  C   UNK N   1      24.362  26.564 -11.187  0.00  0.00     0.202 C 
ENDBRANCH  14  38
TORSDOF 5
ENDMDL
MODEL 8
REMARK VINA RESULT:      -6.8      1.922      5.881
REMARK  5 active torsions:
REMARK  status: ('A' for Active; 'I' for Inactive)
REMARK    1  A    between atoms: C_22  and  C_21 
REMARK    2  A    between atoms: C_23  and  O_33 
REMARK    3  A    between atoms: C_24  and  O_34 
REMARK    4  A    between atoms: C_25  and  O_30 
REMARK    5  A    between atoms: C_27  and  O_35 
ROOT
HETATM    1  C   UNK N   1      22.253  13.348   2.224  0.00  0.00     0.017 C 
HETATM    2  C   UNK N   1      21.311  16.140   2.708  0.00  0.00     0.015 C 
HETATM    3  C   UNK N   1      26.142  16.026   6.636  0.00  0.00     0.026 C 
HETATM    4  C   UNK N   1      29.737  15.011   2.603  0.00  0.00     0.003 C 
HETATM    5  C   UNK N   1      28.493  14.142   2.686  0.00  0.00     0.003 C 
HETATM    6  C   UNK N   1      29.387  16.433   3.010  0.00  0.00     0.037 C 
HETATM    7  C   UNK N   1      28.593  13.176   3.861  0.00  0.00     0.035 C 
HETATM    8  C   UNK N   1      24.209  12.677   3.602  0.00  0.00    -0.021 C 
HETATM    9  C   UNK N   1      25.524  12.786   3.323  0.00  0.00     0.004 C 
HETATM   10  C   UNK N   1      23.151  13.742   3.388  0.00  0.00     0.033 C 
HETATM   11  C   UNK N   1      22.456  16.187   3.713  0.00  0.00     0.043 C 
HETATM   12  C   UNK N   1      26.518  16.496   5.237  0.00  0.00     0.146 C 
HETATM   13  C   UNK N   1      29.484  16.652   4.521  0.00  0.00     0.165 C 
HETATM   14  C   UNK N   1      27.993  11.802   3.537  0.00  0.00     0.153 C 
HETATM   15  C   UNK N   1      26.460  11.672   3.795  0.00  0.00     0.172 C 
HETATM   16  C   UNK N   1      22.961  17.627   3.848  0.00  0.00     0.158 C 
HETATM   17  C   UNK N   1      23.628  15.224   3.336  0.00  0.00     0.138 C 
HETATM   18  C   UNK N   1      24.181  17.677   4.800  0.00  0.00     0.212 C 
HETATM   19  C   UNK N   1      27.424  17.719   5.341  0.00  0.00     0.268 C 
HETATM   20  C   UNK N   1      25.265  16.652   4.323  0.00  0.00     0.203 C 
HETATM   21  O   UNK N   1      27.011  18.722   5.895  0.00  0.00    -0.265 OA
HETATM   22  O   UNK N   1      25.729  16.987   3.041  0.00  0.00    -0.362 OA
HETATM   23  O   UNK N   1      28.695  17.742   4.848  0.00  0.00    -0.311 OA
HETATM   24  O   UNK N   1      24.659  15.363   4.301  0.00  0.00    -0.346 OA
HETATM   25  H   UNK N   1      25.940  17.337   2.160  0.00  0.00     0.213 HD
ENDROOT
BRANCH  18  26
HETATM   26  O   UNK N   1      24.643  19.002   5.007  0.00  0.00    -0.383 OA
HETATM   27  C   UNK N   1      24.621  19.745   3.815  0.00  0.00     0.202 C 
ENDBRANCH  18  26
BRANCH  16  28
HETATM   28  O   UNK N   1      21.943  18.448   4.346  0.00  0.00    -0.392 OA
HETATM   29  H   UNK N   1      21.133  18.667   3.858  0.00  0.00     0.210 HD
ENDBRANCH  16  28
BRANCH  13  30
HETATM   30  C   UNK N   1      30.911  16.912   4.949  0.00  0.00    -0.029 A 
HETATM   31  C   UNK N   1      31.308  16.671   6.274  0.00  0.00     0.010 A 
HETATM   32  C   UNK N   1      32.622  16.930   6.675  0.00  0.00     0.001 A 
HETATM   33  C   UNK N   1      33.549  17.433   5.759  0.00  0.00     0.000 A 
HETATM   34  C   UNK N   1      33.164  17.679   4.439  0.00  0.00     0.001 A 
HETATM   35  C   UNK N   1      31.852  17.421   4.036  0.00  0.00     0.010 A 
ENDBRANCH  13  30
BRANCH  15  36
HETATM   36  O   UNK N   1      25.998  10.373   3.453  0.00  0.00    -0.384 OA
HETATM   37  C   UNK N   1      26.328   9.455   4.466  0.00  0.00     0.202 C 
ENDBRANCH  15  36
BRANCH  14  38
HETATM   38  O   UNK N   1      28.333  11.441   2.208  0.00  0.00    -0.388 OA
HETATM   39  C   UNK N   1      29.357  10.478   2.232  0.00  0.00     0.202 C 
ENDBRANCH  14  38
TORSDOF 5
ENDMDL
MODEL 9
REMARK VINA RESULT:      -6.8      4.599      9.518
REMARK  5 active torsions:
REMARK  status: ('A' for Active; 'I' for Inactive)
REMARK    1  A    between atoms: C_22  and  C_21 
REMARK    2  A    between atoms: C_23  and  O_33 
REMARK    3  A    between atoms: C_24  and  O_34 
REMARK    4  A    between atoms: C_25  and  O_30 
REMARK    5  A    between atoms: C_27  and  O_35 
ROOT
HETATM    1  C   UNK N   1      38.767  12.714   5.333  0.00  0.00     0.017 C 
HETATM    2  C   UNK N   1      37.665  12.739   2.558  0.00  0.00     0.015 C 
HETATM    3  C   UNK N   1      32.318  12.766   5.751  0.00  0.00     0.026 C 
HETATM    4  C   UNK N   1      33.531  17.506   8.256  0.00  0.00     0.003 C 
HETATM    5  C   UNK N   1      34.577  16.404   8.268  0.00  0.00     0.003 C 
HETATM    6  C   UNK N   1      32.787  17.481   6.931  0.00  0.00     0.037 C 
HETATM    7  C   UNK N   1      34.167  15.288   9.223  0.00  0.00     0.035 C 
HETATM    8  C   UNK N   1      37.038  12.668   7.117  0.00  0.00    -0.021 C 
HETATM    9  C   UNK N   1      36.439  13.699   7.749  0.00  0.00     0.004 C 
HETATM   10  C   UNK N   1      37.283  12.545   5.626  0.00  0.00     0.033 C 
HETATM   11  C   UNK N   1      36.312  12.716   3.261  0.00  0.00     0.043 C 
HETATM   12  C   UNK N   1      32.845  14.163   5.453  0.00  0.00     0.146 C 
HETATM   13  C   UNK N   1      31.597  16.520   6.944  0.00  0.00     0.165 C 
HETATM   14  C   UNK N   1      35.366  14.698   9.976  0.00  0.00     0.153 C 
HETATM   15  C   UNK N   1      36.111  13.545   9.236  0.00  0.00     0.172 C 
HETATM   16  C   UNK N   1      35.266  13.409   2.381  0.00  0.00     0.158 C 
HETATM   17  C   UNK N   1      36.361  13.370   4.680  0.00  0.00     0.138 C 
HETATM   18  C   UNK N   1      33.906  13.471   3.120  0.00  0.00     0.212 C 
HETATM   19  C   UNK N   1      31.695  15.046   4.976  0.00  0.00     0.268 C 
HETATM   20  C   UNK N   1      34.102  14.123   4.531  0.00  0.00     0.203 C 
HETATM   21  O   UNK N   1      31.082  14.735   3.971  0.00  0.00    -0.265 OA
HETATM   22  O   UNK N   1      34.562  15.444   4.403  0.00  0.00    -0.362 OA
HETATM   23  O   UNK N   1      31.309  16.176   5.634  0.00  0.00    -0.311 OA
HETATM   24  O   UNK N   1      35.057  13.339   5.239  0.00  0.00    -0.346 OA
HETATM   25  H   UNK N   1      34.883  16.326   4.157  0.00  0.00     0.213 HD
ENDROOT
BRANCH  18  26
HETATM   26  O   UNK N   1      32.888  14.046   2.317  0.00  0.00    -0.383 OA
HETATM   27  C   UNK N   1      32.037  13.062   1.786  0.00  0.00     0.202 C 
ENDBRANCH  18  26
BRANCH  16  28
HETATM   28  O   UNK N   1      35.115  12.712   1.177  0.00  0.00    -0.392 OA
HETATM   29  H   UNK N   1      35.284  11.763   1.074  0.00  0.00     0.210 HD
ENDBRANCH  16  28
BRANCH  13  30
HETATM   30  C   UNK N   1      30.382  17.156   7.581  0.00  0.00    -0.029 A 
HETATM   31  C   UNK N   1      29.381  17.730   6.781  0.00  0.00     0.010 A 
HETATM   32  C   UNK N   1      28.267  18.336   7.371  0.00  0.00     0.001 A 
HETATM   33  C   UNK N   1      28.146  18.377   8.762  0.00  0.00     0.000 A 
HETATM   34  C   UNK N   1      29.136  17.811   9.567  0.00  0.00     0.001 A 
HETATM   35  C   UNK N   1      30.250  17.205   8.980  0.00  0.00     0.010 A 
ENDBRANCH  13  30
BRANCH  15  36
HETATM   36  O   UNK N   1      37.208  13.076  10.005  0.00  0.00    -0.384 OA
HETATM   37  C   UNK N   1      36.751  12.327  11.104  0.00  0.00     0.202 C 
ENDBRANCH  15  36
BRANCH  14  38
HETATM   38  O   UNK N   1      36.252  15.742  10.344  0.00  0.00    -0.388 OA
HETATM   39  C   UNK N   1      36.062  16.062  11.700  0.00  0.00     0.202 C 
ENDBRANCH  14  38
TORSDOF 5
ENDMDL
