MODEL 1
REMARK VINA RESULT:      -5.9      0.000      0.000
REMARK  12 active torsions:
REMARK  status: ('A' for Active; 'I' for Inactive)
REMARK    1  A    between atoms: C_2  and  O_1 
REMARK    2  A    between atoms: C_3  and  O_4 
REMARK    3  A    between atoms: C_5  and  C_6 
REMARK    4  A    between atoms: C_6  and  O_7 
REMARK    5  A    between atoms: O_7  and  P_8 
REMARK    6  A    between atoms: P_8  and  O_9 
REMARK    7  A    between atoms: P_8  and  O_10 
REMARK    8  A    between atoms: C_13  and  C_14 
REMARK    9  A    between atoms: C_14  and  O_15 
REMARK   10  A    between atoms: O_15  and  P_16 
REMARK   11  A    between atoms: P_16  and  O_17 
REMARK   12  A    between atoms: P_16  and  O_18 
ROOT
HETATM    1  C   UNK N   1      34.514  14.216  10.074  0.00  0.00     0.180 C 
HETATM    2  C   UNK N   1      34.977  13.162  11.034  0.00  0.00     0.180 C 
HETATM    3  C   UNK N   1      36.401  13.690  11.279  0.00  0.00     0.177 C 
HETATM    4  O   UNK N   1      36.357  15.109  11.218  0.00  0.00    -0.371 OA
HETATM    5  C   UNK N   1      35.048  15.446  10.793  0.00  0.00     0.177 C 
ENDROOT
BRANCH   3   6
HETATM    6  C   UNK N   1      36.994  13.242  12.616  0.00  0.00     0.215 C 
BRANCH   6   7
HETATM    7  O   UNK N   1      36.676  14.122  13.658  0.00  0.00    -0.294 OA
BRANCH   7   8
HETATM    8  P   UNK N   1      36.513  13.092  15.055  0.00  0.00     0.390 P 
HETATM    9  O   UNK N   1      35.043  13.527  14.807  0.00  0.00    -0.632 OA
BRANCH   8  10
HETATM   10  O   UNK N   1      36.035  13.738  16.594  0.00  0.00    -0.307 OA
HETATM   11  H   UNK N   1      36.696  14.067  17.223  0.00  0.00     0.222 HD
ENDBRANCH   8  10
BRANCH   8  12
HETATM   12  O   UNK N   1      37.468  14.484  15.464  0.00  0.00    -0.307 OA
HETATM   13  H   UNK N   1      37.564  15.353  15.044  0.00  0.00     0.222 HD
ENDBRANCH   8  12
ENDBRANCH   7   8
ENDBRANCH   6   7
ENDBRANCH   3   6
BRANCH   2  14
HETATM   14  O   UNK N   1      34.215  13.224  12.210  0.00  0.00    -0.390 OA
HETATM   15  H   UNK N   1      34.085  13.040  13.153  0.00  0.00     0.210 HD
ENDBRANCH   2  14
BRANCH   1  16
HETATM   16  O   UNK N   1      33.124  14.242   9.910  0.00  0.00    -0.390 OA
HETATM   17  H   UNK N   1      32.663  14.492   9.093  0.00  0.00     0.210 HD
ENDBRANCH   1  16
BRANCH   5  18
HETATM   18  C   UNK N   1      35.010  16.707   9.939  0.00  0.00     0.215 C 
BRANCH  18  19
HETATM   19  O   UNK N   1      34.645  16.434   8.620  0.00  0.00    -0.294 OA
BRANCH  19  20
HETATM   20  P   UNK N   1      34.240  17.975   7.921  0.00  0.00     0.390 P 
HETATM   21  O   UNK N   1      32.800  18.327   8.377  0.00  0.00    -0.632 OA
BRANCH  20  22
HETATM   22  O   UNK N   1      34.245  17.965   6.182  0.00  0.00    -0.307 OA
HETATM   23  H   UNK N   1      34.066  17.644   5.284  0.00  0.00     0.222 HD
ENDBRANCH  20  22
BRANCH  20  24
HETATM   24  O   UNK N   1      35.281  19.226   8.524  0.00  0.00    -0.307 OA
HETATM   25  H   UNK N   1      35.981  19.799   8.171  0.00  0.00     0.222 HD
ENDBRANCH  20  24
ENDBRANCH  19  20
ENDBRANCH  18  19
ENDBRANCH   5  18
TORSDOF 12
ENDMDL
MODEL 2
REMARK VINA RESULT:      -5.8      1.295      6.857
REMARK  12 active torsions:
REMARK  status: ('A' for Active; 'I' for Inactive)
REMARK    1  A    between atoms: C_2  and  O_1 
REMARK    2  A    between atoms: C_3  and  O_4 
REMARK    3  A    between atoms: C_5  and  C_6 
REMARK    4  A    between atoms: C_6  and  O_7 
REMARK    5  A    between atoms: O_7  and  P_8 
REMARK    6  A    between atoms: P_8  and  O_9 
REMARK    7  A    between atoms: P_8  and  O_10 
REMARK    8  A    between atoms: C_13  and  C_14 
REMARK    9  A    between atoms: C_14  and  O_15 
REMARK   10  A    between atoms: O_15  and  P_16 
REMARK   11  A    between atoms: P_16  and  O_17 
REMARK   12  A    between atoms: P_16  and  O_18 
ROOT
HETATM    1  C   UNK N   1      37.027  13.388  10.718  0.00  0.00     0.180 C 
HETATM    2  C   UNK N   1      36.708  14.587   9.877  0.00  0.00     0.180 C 
HETATM    3  C   UNK N   1      35.180  14.418   9.815  0.00  0.00     0.177 C 
HETATM    4  O   UNK N   1      34.752  13.856  11.047  0.00  0.00    -0.371 OA
HETATM    5  C   UNK N   1      35.931  13.531  11.764  0.00  0.00     0.177 C 
ENDROOT
BRANCH   3   6
HETATM    6  C   UNK N   1      34.433  15.727   9.550  0.00  0.00     0.215 C 
BRANCH   6   7
HETATM    7  O   UNK N   1      34.840  16.338   8.358  0.00  0.00    -0.294 OA
BRANCH   7   8
HETATM    8  P   UNK N   1      34.059  17.895   8.384  0.00  0.00     0.390 P 
HETATM    9  O   UNK N   1      34.699  17.885   6.969  0.00  0.00    -0.632 OA
BRANCH   8  10
HETATM   10  O   UNK N   1      34.984  19.364   8.367  0.00  0.00    -0.307 OA
HETATM   11  H   UNK N   1      35.073  19.888   7.555  0.00  0.00     0.222 HD
ENDBRANCH   8  10
BRANCH   8  12
HETATM   12  O   UNK N   1      35.309  17.851   9.588  0.00  0.00    -0.307 OA
HETATM   13  H   UNK N   1      35.568  18.479  10.280  0.00  0.00     0.222 HD
ENDBRANCH   8  12
ENDBRANCH   7   8
ENDBRANCH   6   7
ENDBRANCH   3   6
BRANCH   2  14
HETATM   14  O   UNK N   1      37.050  15.757  10.570  0.00  0.00    -0.390 OA
HETATM   15  H   UNK N   1      37.148  16.721  10.621  0.00  0.00     0.210 HD
ENDBRANCH   2  14
BRANCH   1  16
HETATM   16  O   UNK N   1      38.314  13.426  11.269  0.00  0.00    -0.390 OA
HETATM   17  H   UNK N   1      38.800  14.235  11.495  0.00  0.00     0.210 HD
ENDBRANCH   1  16
BRANCH   5  18
HETATM   18  C   UNK N   1      35.769  12.293  12.638  0.00  0.00     0.215 C 
BRANCH  18  19
HETATM   19  O   UNK N   1      36.871  12.094  13.471  0.00  0.00    -0.294 OA
BRANCH  19  20
HETATM   20  P   UNK N   1      36.445  12.832  14.988  0.00  0.00     0.390 P 
HETATM   21  O   UNK N   1      35.006  13.395  14.843  0.00  0.00    -0.632 OA
BRANCH  20  22
HETATM   22  O   UNK N   1      37.480  14.161  15.421  0.00  0.00    -0.307 OA
HETATM   23  H   UNK N   1      37.937  15.012  15.330  0.00  0.00     0.222 HD
ENDBRANCH  20  22
BRANCH  20  24
HETATM   24  O   UNK N   1      36.401  11.656  16.264  0.00  0.00    -0.307 OA
HETATM   25  H   UNK N   1      36.941  11.426  17.037  0.00  0.00     0.222 HD
ENDBRANCH  20  24
ENDBRANCH  19  20
ENDBRANCH  18  19
ENDBRANCH   5  18
TORSDOF 12
ENDMDL
MODEL 3
REMARK VINA RESULT:      -5.7      2.128      6.695
REMARK  12 active torsions:
REMARK  status: ('A' for Active; 'I' for Inactive)
REMARK    1  A    between atoms: C_2  and  O_1 
REMARK    2  A    between atoms: C_3  and  O_4 
REMARK    3  A    between atoms: C_5  and  C_6 
REMARK    4  A    between atoms: C_6  and  O_7 
REMARK    5  A    between atoms: O_7  and  P_8 
REMARK    6  A    between atoms: P_8  and  O_9 
REMARK    7  A    between atoms: P_8  and  O_10 
REMARK    8  A    between atoms: C_13  and  C_14 
REMARK    9  A    between atoms: C_14  and  O_15 
REMARK   10  A    between atoms: O_15  and  P_16 
REMARK   11  A    between atoms: P_16  and  O_17 
REMARK   12  A    between atoms: P_16  and  O_18 
ROOT
HETATM    1  C   UNK N   1      36.685  13.409  11.263  0.00  0.00     0.180 C 
HETATM    2  C   UNK N   1      36.459  14.507  10.269  0.00  0.00     0.180 C 
HETATM    3  C   UNK N   1      34.923  14.557  10.334  0.00  0.00     0.177 C 
HETATM    4  O   UNK N   1      34.532  14.248  11.665  0.00  0.00    -0.371 OA
HETATM    5  C   UNK N   1      35.714  13.860  12.344  0.00  0.00     0.177 C 
ENDROOT
BRANCH   3   6
HETATM    6  C   UNK N   1      34.340  15.910   9.919  0.00  0.00     0.215 C 
BRANCH   6   7
HETATM    7  O   UNK N   1      34.696  16.261   8.611  0.00  0.00    -0.294 OA
BRANCH   7   8
HETATM    8  P   UNK N   1      34.045  17.864   8.404  0.00  0.00     0.390 P 
HETATM    9  O   UNK N   1      34.753  17.630   7.042  0.00  0.00    -0.632 OA
BRANCH   8  10
HETATM   10  O   UNK N   1      35.087  19.246   8.267  0.00  0.00    -0.307 OA
HETATM   11  H   UNK N   1      34.733  20.146   8.334  0.00  0.00     0.222 HD
ENDBRANCH   8  10
BRANCH   8  12
HETATM   12  O   UNK N   1      35.225  17.875   9.677  0.00  0.00    -0.307 OA
HETATM   13  H   UNK N   1      35.873  17.215   9.969  0.00  0.00     0.222 HD
ENDBRANCH   8  12
ENDBRANCH   7   8
ENDBRANCH   6   7
ENDBRANCH   3   6
BRANCH   2  14
HETATM   14  O   UNK N   1      37.016  15.702  10.747  0.00  0.00    -0.390 OA
HETATM   15  H   UNK N   1      37.724  16.364  10.770  0.00  0.00     0.210 HD
ENDBRANCH   2  14
BRANCH   1  16
HETATM   16  O   UNK N   1      38.008  13.336  11.716  0.00  0.00    -0.390 OA
HETATM   17  H   UNK N   1      38.717  13.950  11.468  0.00  0.00     0.210 HD
ENDBRANCH   1  16
BRANCH   5  18
HETATM   18  C   UNK N   1      35.462  12.800  13.409  0.00  0.00     0.215 C 
BRANCH  18  19
HETATM   19  O   UNK N   1      35.870  11.532  12.990  0.00  0.00    -0.294 OA
BRANCH  19  20
HETATM   20  P   UNK N   1      34.404  10.677  12.605  0.00  0.00     0.390 P 
HETATM   21  O   UNK N   1      34.771   9.179  12.438  0.00  0.00    -0.632 OA
BRANCH  20  22
HETATM   22  O   UNK N   1      33.674  11.201  11.116  0.00  0.00    -0.307 OA
HETATM   23  H   UNK N   1      33.274  11.126  10.236  0.00  0.00     0.222 HD
ENDBRANCH  20  22
BRANCH  20  24
HETATM   24  O   UNK N   1      33.263  10.776  13.909  0.00  0.00    -0.307 OA
HETATM   25  H   UNK N   1      32.327  10.560  14.052  0.00  0.00     0.222 HD
ENDBRANCH  20  24
ENDBRANCH  19  20
ENDBRANCH  18  19
ENDBRANCH   5  18
TORSDOF 12
ENDMDL
MODEL 4
REMARK VINA RESULT:      -5.4      1.440      2.393
REMARK  12 active torsions:
REMARK  status: ('A' for Active; 'I' for Inactive)
REMARK    1  A    between atoms: C_2  and  O_1 
REMARK    2  A    between atoms: C_3  and  O_4 
REMARK    3  A    between atoms: C_5  and  C_6 
REMARK    4  A    between atoms: C_6  and  O_7 
REMARK    5  A    between atoms: O_7  and  P_8 
REMARK    6  A    between atoms: P_8  and  O_9 
REMARK    7  A    between atoms: P_8  and  O_10 
REMARK    8  A    between atoms: C_13  and  C_14 
REMARK    9  A    between atoms: C_14  and  O_15 
REMARK   10  A    between atoms: O_15  and  P_16 
REMARK   11  A    between atoms: P_16  and  O_17 
REMARK   12  A    between atoms: P_16  and  O_18 
ROOT
HETATM    1  C   UNK N   1      34.858  16.372   9.987  0.00  0.00     0.180 C 
HETATM    2  C   UNK N   1      35.576  16.018  11.254  0.00  0.00     0.180 C 
HETATM    3  C   UNK N   1      35.226  14.521  11.300  0.00  0.00     0.177 C 
HETATM    4  O   UNK N   1      35.159  14.046   9.963  0.00  0.00    -0.371 OA
HETATM    5  C   UNK N   1      35.282  15.187   9.132  0.00  0.00     0.177 C 
ENDROOT
BRANCH   3   6
HETATM    6  C   UNK N   1      36.227  13.686  12.102  0.00  0.00     0.215 C 
BRANCH   6   7
HETATM    7  O   UNK N   1      36.444  14.207  13.383  0.00  0.00    -0.294 OA
BRANCH   7   8
HETATM    8  P   UNK N   1      36.313  12.825  14.437  0.00  0.00     0.390 P 
HETATM    9  O   UNK N   1      34.881  13.422  14.515  0.00  0.00    -0.632 OA
BRANCH   8  10
HETATM   10  O   UNK N   1      36.067  13.020  16.145  0.00  0.00    -0.307 OA
HETATM   11  H   UNK N   1      35.866  12.257  16.709  0.00  0.00     0.222 HD
ENDBRANCH   8  10
BRANCH   8  12
HETATM   12  O   UNK N   1      37.450  13.958  15.100  0.00  0.00    -0.307 OA
HETATM   13  H   UNK N   1      37.348  14.864  15.430  0.00  0.00     0.222 HD
ENDBRANCH   8  12
ENDBRANCH   7   8
ENDBRANCH   6   7
ENDBRANCH   3   6
BRANCH   2  14
HETATM   14  O   UNK N   1      36.955  16.201  11.083  0.00  0.00    -0.390 OA
HETATM   15  H   UNK N   1      37.766  16.725  11.181  0.00  0.00     0.210 HD
ENDBRANCH   2  14
BRANCH   1  16
HETATM   16  O   UNK N   1      35.257  17.602   9.450  0.00  0.00    -0.390 OA
HETATM   17  H   UNK N   1      35.356  18.425   9.955  0.00  0.00     0.210 HD
ENDBRANCH   1  16
BRANCH   5  18
HETATM   18  C   UNK N   1      34.488  15.064   7.837  0.00  0.00     0.215 C 
BRANCH  18  19
HETATM   19  O   UNK N   1      33.383  15.916   7.819  0.00  0.00    -0.294 OA
BRANCH  19  20
HETATM   20  P   UNK N   1      33.507  16.804   6.327  0.00  0.00     0.390 P 
HETATM   21  O   UNK N   1      34.400  18.044   6.598  0.00  0.00    -0.632 OA
BRANCH  20  22
HETATM   22  O   UNK N   1      31.975  17.386   5.744  0.00  0.00    -0.307 OA
HETATM   23  H   UNK N   1      31.263  18.019   5.565  0.00  0.00     0.222 HD
ENDBRANCH  20  22
BRANCH  20  24
HETATM   24  O   UNK N   1      34.305  15.864   5.105  0.00  0.00    -0.307 OA
HETATM   25  H   UNK N   1      35.056  15.250   5.059  0.00  0.00     0.222 HD
ENDBRANCH  20  24
ENDBRANCH  19  20
ENDBRANCH  18  19
ENDBRANCH   5  18
TORSDOF 12
ENDMDL
MODEL 5
REMARK VINA RESULT:      -5.2      2.419      3.822
REMARK  12 active torsions:
REMARK  status: ('A' for Active; 'I' for Inactive)
REMARK    1  A    between atoms: C_2  and  O_1 
REMARK    2  A    between atoms: C_3  and  O_4 
REMARK    3  A    between atoms: C_5  and  C_6 
REMARK    4  A    between atoms: C_6  and  O_7 
REMARK    5  A    between atoms: O_7  and  P_8 
REMARK    6  A    between atoms: P_8  and  O_9 
REMARK    7  A    between atoms: P_8  and  O_10 
REMARK    8  A    between atoms: C_13  and  C_14 
REMARK    9  A    between atoms: C_14  and  O_15 
REMARK   10  A    between atoms: O_15  and  P_16 
REMARK   11  A    between atoms: P_16  and  O_17 
REMARK   12  A    between atoms: P_16  and  O_18 
ROOT
HETATM    1  C   UNK N   1      34.933  16.825  10.108  0.00  0.00     0.180 C 
HETATM    2  C   UNK N   1      35.569  16.059  11.228  0.00  0.00     0.180 C 
HETATM    3  C   UNK N   1      34.858  14.712  11.010  0.00  0.00     0.177 C 
HETATM    4  O   UNK N   1      34.645  14.550   9.615  0.00  0.00    -0.371 OA
HETATM    5  C   UNK N   1      35.029  15.774   9.013  0.00  0.00     0.177 C 
ENDROOT
BRANCH   3   6
HETATM    6  C   UNK N   1      35.638  13.516  11.562  0.00  0.00     0.215 C 
BRANCH   6   7
HETATM    7  O   UNK N   1      35.959  12.587  10.565  0.00  0.00    -0.294 OA
BRANCH   7   8
HETATM    8  P   UNK N   1      37.656  12.269  10.804  0.00  0.00     0.390 P 
HETATM    9  O   UNK N   1      37.295  13.053  12.095  0.00  0.00    -0.632 OA
BRANCH   8  10
HETATM   10  O   UNK N   1      38.818  13.559  10.812  0.00  0.00    -0.307 OA
HETATM   11  H   UNK N   1      38.534  14.485  10.845  0.00  0.00     0.222 HD
ENDBRANCH   8  10
BRANCH   8  12
HETATM   12  O   UNK N   1      37.445  13.299   9.422  0.00  0.00    -0.307 OA
HETATM   13  H   UNK N   1      37.091  14.197   9.329  0.00  0.00     0.222 HD
ENDBRANCH   8  12
ENDBRANCH   7   8
ENDBRANCH   6   7
ENDBRANCH   3   6
BRANCH   2  14
HETATM   14  O   UNK N   1      36.946  15.937  10.996  0.00  0.00    -0.390 OA
HETATM   15  H   UNK N   1      37.862  16.235  11.114  0.00  0.00     0.210 HD
ENDBRANCH   2  14
BRANCH   1  16
HETATM   16  O   UNK N   1      35.613  18.007   9.791  0.00  0.00    -0.390 OA
HETATM   17  H   UNK N   1      35.845  18.294   8.893  0.00  0.00     0.210 HD
ENDBRANCH   1  16
BRANCH   5  18
HETATM   18  C   UNK N   1      34.200  16.112   7.779  0.00  0.00     0.215 C 
BRANCH  18  19
HETATM   19  O   UNK N   1      33.233  17.081   8.050  0.00  0.00    -0.294 OA
BRANCH  19  20
HETATM   20  P   UNK N   1      31.721  16.220   8.119  0.00  0.00     0.390 P 
HETATM   21  O   UNK N   1      30.889  16.644   6.880  0.00  0.00    -0.632 OA
BRANCH  20  22
HETATM   22  O   UNK N   1      30.779  16.598   9.530  0.00  0.00    -0.307 OA
HETATM   23  H   UNK N   1      30.389  17.142  10.233  0.00  0.00     0.222 HD
ENDBRANCH  20  22
BRANCH  20  24
HETATM   24  O   UNK N   1      31.973  14.507   7.997  0.00  0.00    -0.307 OA
HETATM   25  H   UNK N   1      31.970  13.744   8.597  0.00  0.00     0.222 HD
ENDBRANCH  20  24
ENDBRANCH  19  20
ENDBRANCH  18  19
ENDBRANCH   5  18
TORSDOF 12
ENDMDL
MODEL 6
REMARK VINA RESULT:      -5.1      2.198      2.957
REMARK  12 active torsions:
REMARK  status: ('A' for Active; 'I' for Inactive)
REMARK    1  A    between atoms: C_2  and  O_1 
REMARK    2  A    between atoms: C_3  and  O_4 
REMARK    3  A    between atoms: C_5  and  C_6 
REMARK    4  A    between atoms: C_6  and  O_7 
REMARK    5  A    between atoms: O_7  and  P_8 
REMARK    6  A    between atoms: P_8  and  O_9 
REMARK    7  A    between atoms: P_8  and  O_10 
REMARK    8  A    between atoms: C_13  and  C_14 
REMARK    9  A    between atoms: C_14  and  O_15 
REMARK   10  A    between atoms: O_15  and  P_16 
REMARK   11  A    between atoms: P_16  and  O_17 
REMARK   12  A    between atoms: P_16  and  O_18 
ROOT
HETATM    1  C   UNK N   1      35.862  15.620  11.330  0.00  0.00     0.180 C 
HETATM    2  C   UNK N   1      36.293  14.531  12.264  0.00  0.00     0.180 C 
HETATM    3  C   UNK N   1      34.985  13.721  12.284  0.00  0.00     0.177 C 
HETATM    4  O   UNK N   1      34.385  13.828  11.002  0.00  0.00    -0.371 OA
HETATM    5  C   UNK N   1      35.158  14.772  10.281  0.00  0.00     0.177 C 
ENDROOT
BRANCH   3   6
HETATM    6  C   UNK N   1      35.187  12.248  12.646  0.00  0.00     0.215 C 
BRANCH   6   7
HETATM    7  O   UNK N   1      35.631  11.490  11.556  0.00  0.00    -0.294 OA
BRANCH   7   8
HETATM    8  P   UNK N   1      35.997   9.929  12.237  0.00  0.00     0.390 P 
HETATM    9  O   UNK N   1      34.698  10.310  12.998  0.00  0.00    -0.632 OA
BRANCH   8  10
HETATM   10  O   UNK N   1      36.461   9.763  13.902  0.00  0.00    -0.307 OA
HETATM   11  H   UNK N   1      35.800   9.812  14.610  0.00  0.00     0.222 HD
ENDBRANCH   8  10
BRANCH   8  12
HETATM   12  O   UNK N   1      37.258  11.052  12.642  0.00  0.00    -0.307 OA
HETATM   13  H   UNK N   1      37.323  11.737  13.326  0.00  0.00     0.222 HD
ENDBRANCH   8  12
ENDBRANCH   7   8
ENDBRANCH   6   7
ENDBRANCH   3   6
BRANCH   2  14
HETATM   14  O   UNK N   1      37.328  13.787  11.679  0.00  0.00    -0.390 OA
HETATM   15  H   UNK N   1      37.995  13.649  10.988  0.00  0.00     0.210 HD
ENDBRANCH   2  14
BRANCH   1  16
HETATM   16  O   UNK N   1      36.932  16.356  10.807  0.00  0.00    -0.390 OA
HETATM   17  H   UNK N   1      37.205  17.236  11.110  0.00  0.00     0.210 HD
ENDBRANCH   1  16
BRANCH   5  18
HETATM   18  C   UNK N   1      34.327  15.593   9.302  0.00  0.00     0.215 C 
BRANCH  18  19
HETATM   19  O   UNK N   1      35.123  16.243   8.358  0.00  0.00    -0.294 OA
BRANCH  19  20
HETATM   20  P   UNK N   1      34.349  17.776   8.076  0.00  0.00     0.390 P 
HETATM   21  O   UNK N   1      34.155  17.922   6.543  0.00  0.00    -0.632 OA
BRANCH  20  22
HETATM   22  O   UNK N   1      35.296  19.133   8.610  0.00  0.00    -0.307 OA
HETATM   23  H   UNK N   1      36.012  19.787   8.606  0.00  0.00     0.222 HD
ENDBRANCH  20  22
BRANCH  20  24
HETATM   24  O   UNK N   1      32.768  17.818   8.792  0.00  0.00    -0.307 OA
HETATM   25  H   UNK N   1      31.850  17.722   8.492  0.00  0.00     0.222 HD
ENDBRANCH  20  24
ENDBRANCH  19  20
ENDBRANCH  18  19
ENDBRANCH   5  18
TORSDOF 12
ENDMDL
MODEL 7
REMARK VINA RESULT:      -5.1     11.340     14.252
REMARK  12 active torsions:
REMARK  status: ('A' for Active; 'I' for Inactive)
REMARK    1  A    between atoms: C_2  and  O_1 
REMARK    2  A    between atoms: C_3  and  O_4 
REMARK    3  A    between atoms: C_5  and  C_6 
REMARK    4  A    between atoms: C_6  and  O_7 
REMARK    5  A    between atoms: O_7  and  P_8 
REMARK    6  A    between atoms: P_8  and  O_9 
REMARK    7  A    between atoms: P_8  and  O_10 
REMARK    8  A    between atoms: C_13  and  C_14 
REMARK    9  A    between atoms: C_14  and  O_15 
REMARK   10  A    between atoms: O_15  and  P_16 
REMARK   11  A    between atoms: P_16  and  O_17 
REMARK   12  A    between atoms: P_16  and  O_18 
ROOT
HETATM    1  C   UNK N   1      23.781  17.168   4.069  0.00  0.00     0.180 C 
HETATM    2  C   UNK N   1      25.266  17.327   4.188  0.00  0.00     0.180 C 
HETATM    3  C   UNK N   1      25.399  18.704   3.514  0.00  0.00     0.177 C 
HETATM    4  O   UNK N   1      24.234  19.455   3.822  0.00  0.00    -0.371 OA
HETATM    5  C   UNK N   1      23.355  18.566   4.489  0.00  0.00     0.177 C 
ENDROOT
BRANCH   3   6
HETATM    6  C   UNK N   1      26.649  19.474   3.947  0.00  0.00     0.215 C 
BRANCH   6   7
HETATM    7  O   UNK N   1      26.334  20.640   4.654  0.00  0.00    -0.294 OA
BRANCH   7   8
HETATM    8  P   UNK N   1      27.405  20.612   6.028  0.00  0.00     0.390 P 
HETATM    9  O   UNK N   1      27.970  19.455   5.161  0.00  0.00    -0.632 OA
BRANCH   8  10
HETATM   10  O   UNK N   1      27.415  19.271   7.131  0.00  0.00    -0.307 OA
HETATM   11  H   UNK N   1      28.238  18.976   7.550  0.00  0.00     0.222 HD
ENDBRANCH   8  10
BRANCH   8  12
HETATM   12  O   UNK N   1      25.792  20.221   6.539  0.00  0.00    -0.307 OA
HETATM   13  H   UNK N   1      24.936  20.273   6.085  0.00  0.00     0.222 HD
ENDBRANCH   8  12
ENDBRANCH   7   8
ENDBRANCH   6   7
ENDBRANCH   3   6
BRANCH   2  14
HETATM   14  O   UNK N   1      25.628  17.399   5.541  0.00  0.00    -0.390 OA
HETATM   15  H   UNK N   1      25.468  17.688   6.453  0.00  0.00     0.210 HD
ENDBRANCH   2  14
BRANCH   1  16
HETATM   16  O   UNK N   1      23.263  16.167   4.901  0.00  0.00    -0.390 OA
HETATM   17  H   UNK N   1      23.033  15.269   4.616  0.00  0.00     0.210 HD
ENDBRANCH   1  16
BRANCH   5  18
HETATM   18  C   UNK N   1      21.887  18.860   4.202  0.00  0.00     0.215 C 
BRANCH  18  19
HETATM   19  O   UNK N   1      21.412  18.132   3.111  0.00  0.00    -0.294 OA
BRANCH  19  20
HETATM   20  P   UNK N   1      20.230  19.157   2.348  0.00  0.00     0.390 P 
HETATM   21  O   UNK N   1      20.316  20.549   3.028  0.00  0.00    -0.632 OA
BRANCH  20  22
HETATM   22  O   UNK N   1      18.599  18.586   2.539  0.00  0.00    -0.307 OA
HETATM   23  H   UNK N   1      17.815  18.035   2.387  0.00  0.00     0.222 HD
ENDBRANCH  20  22
BRANCH  20  24
HETATM   24  O   UNK N   1      20.599  19.391   0.669  0.00  0.00    -0.307 OA
HETATM   25  H   UNK N   1      21.016  20.077   0.122  0.00  0.00     0.222 HD
ENDBRANCH  20  24
ENDBRANCH  19  20
ENDBRANCH  18  19
ENDBRANCH   5  18
TORSDOF 12
ENDMDL
MODEL 8
REMARK VINA RESULT:      -5.1      3.193      7.232
REMARK  12 active torsions:
REMARK  status: ('A' for Active; 'I' for Inactive)
REMARK    1  A    between atoms: C_2  and  O_1 
REMARK    2  A    between atoms: C_3  and  O_4 
REMARK    3  A    between atoms: C_5  and  C_6 
REMARK    4  A    between atoms: C_6  and  O_7 
REMARK    5  A    between atoms: O_7  and  P_8 
REMARK    6  A    between atoms: P_8  and  O_9 
REMARK    7  A    between atoms: P_8  and  O_10 
REMARK    8  A    between atoms: C_13  and  C_14 
REMARK    9  A    between atoms: C_14  and  O_15 
REMARK   10  A    between atoms: O_15  and  P_16 
REMARK   11  A    between atoms: P_16  and  O_17 
REMARK   12  A    between atoms: P_16  and  O_18 
ROOT
HETATM    1  C   UNK N   1      34.236  17.148   8.473  0.00  0.00     0.180 C 
HETATM    2  C   UNK N   1      33.110  17.939   7.878  0.00  0.00     0.180 C 
HETATM    3  C   UNK N   1      32.233  16.763   7.412  0.00  0.00     0.177 C 
HETATM    4  O   UNK N   1      32.395  15.702   8.341  0.00  0.00    -0.371 OA
HETATM    5  C   UNK N   1      33.425  16.105   9.227  0.00  0.00     0.177 C 
ENDROOT
BRANCH   3   6
HETATM    6  C   UNK N   1      30.752  17.124   7.282  0.00  0.00     0.215 C 
BRANCH   6   7
HETATM    7  O   UNK N   1      30.089  17.091   8.515  0.00  0.00    -0.294 OA
BRANCH   7   8
HETATM    8  P   UNK N   1      28.944  18.403   8.422  0.00  0.00     0.390 P 
HETATM    9  O   UNK N   1      29.467  18.539   9.878  0.00  0.00    -0.632 OA
BRANCH   8  10
HETATM   10  O   UNK N   1      27.484  18.387   9.361  0.00  0.00    -0.307 OA
HETATM   11  H   UNK N   1      27.284  19.103   9.984  0.00  0.00     0.222 HD
ENDBRANCH   8  10
BRANCH   8  12
HETATM   12  O   UNK N   1      28.112  16.889   8.244  0.00  0.00    -0.307 OA
HETATM   13  H   UNK N   1      28.285  16.114   7.687  0.00  0.00     0.222 HD
ENDBRANCH   8  12
ENDBRANCH   7   8
ENDBRANCH   6   7
ENDBRANCH   3   6
BRANCH   2  14
HETATM   14  O   UNK N   1      32.463  18.673   8.883  0.00  0.00    -0.390 OA
HETATM   15  H   UNK N   1      31.858  18.736   9.637  0.00  0.00     0.210 HD
ENDBRANCH   2  14
BRANCH   1  16
HETATM   16  O   UNK N   1      35.061  17.908   9.312  0.00  0.00    -0.390 OA
HETATM   17  H   UNK N   1      34.760  18.629   9.887  0.00  0.00     0.210 HD
ENDBRANCH   1  16
BRANCH   5  18
HETATM   18  C   UNK N   1      34.265  14.937   9.728  0.00  0.00     0.215 C 
BRANCH  18  19
HETATM   19  O   UNK N   1      34.375  14.931  11.120  0.00  0.00    -0.294 OA
BRANCH  19  20
HETATM   20  P   UNK N   1      36.083  14.961  11.450  0.00  0.00     0.390 P 
HETATM   21  O   UNK N   1      36.663  16.235  10.782  0.00  0.00    -0.632 OA
BRANCH  20  22
HETATM   22  O   UNK N   1      36.935  13.596  10.790  0.00  0.00    -0.307 OA
HETATM   23  H   UNK N   1      37.140  12.878  10.171  0.00  0.00     0.222 HD
ENDBRANCH  20  22
BRANCH  20  24
HETATM   24  O   UNK N   1      36.387  15.100  13.153  0.00  0.00    -0.307 OA
HETATM   25  H   UNK N   1      36.843  14.585  13.838  0.00  0.00     0.222 HD
ENDBRANCH  20  24
ENDBRANCH  19  20
ENDBRANCH  18  19
ENDBRANCH   5  18
TORSDOF 12
ENDMDL
MODEL 9
REMARK VINA RESULT:      -5.0      5.622      9.164
REMARK  12 active torsions:
REMARK  status: ('A' for Active; 'I' for Inactive)
REMARK    1  A    between atoms: C_2  and  O_1 
REMARK    2  A    between atoms: C_3  and  O_4 
REMARK    3  A    between atoms: C_5  and  C_6 
REMARK    4  A    between atoms: C_6  and  O_7 
REMARK    5  A    between atoms: O_7  and  P_8 
REMARK    6  A    between atoms: P_8  and  O_9 
REMARK    7  A    between atoms: P_8  and  O_10 
REMARK    8  A    between atoms: C_13  and  C_14 
REMARK    9  A    between atoms: C_14  and  O_15 
REMARK   10  A    between atoms: O_15  and  P_16 
REMARK   11  A    between atoms: P_16  and  O_17 
REMARK   12  A    between atoms: P_16  and  O_18 
ROOT
HETATM    1  C   UNK N   1      29.837  18.593   8.923  0.00  0.00     0.180 C 
HETATM    2  C   UNK N   1      28.413  18.663   8.462  0.00  0.00     0.180 C 
HETATM    3  C   UNK N   1      28.643  18.344   6.975  0.00  0.00     0.177 C 
HETATM    4  O   UNK N   1      29.733  17.438   6.885  0.00  0.00    -0.371 OA
HETATM    5  C   UNK N   1      30.264  17.328   8.195  0.00  0.00     0.177 C 
ENDROOT
BRANCH   3   6
HETATM    6  C   UNK N   1      27.413  17.753   6.282  0.00  0.00     0.215 C 
BRANCH   6   7
HETATM    7  O   UNK N   1      27.375  16.357   6.370  0.00  0.00    -0.294 OA
BRANCH   7   8
HETATM    8  P   UNK N   1      26.693  15.848   4.849  0.00  0.00     0.390 P 
HETATM    9  O   UNK N   1      25.427  16.285   5.634  0.00  0.00    -0.632 OA
BRANCH   8  10
HETATM   10  O   UNK N   1      25.672  14.448   4.747  0.00  0.00    -0.307 OA
HETATM   11  H   UNK N   1      24.706  14.531   4.787  0.00  0.00     0.222 HD
ENDBRANCH   8  10
BRANCH   8  12
HETATM   12  O   UNK N   1      27.428  14.489   5.642  0.00  0.00    -0.307 OA
HETATM   13  H   UNK N   1      27.092  13.607   5.864  0.00  0.00     0.222 HD
ENDBRANCH   8  12
ENDBRANCH   7   8
ENDBRANCH   6   7
ENDBRANCH   3   6
BRANCH   2  14
HETATM   14  O   UNK N   1      27.665  17.649   9.077  0.00  0.00    -0.390 OA
HETATM   15  H   UNK N   1      27.464  17.076   9.834  0.00  0.00     0.210 HD
ENDBRANCH   2  14
BRANCH   1  16
HETATM   16  O   UNK N   1      29.963  18.490  10.314  0.00  0.00    -0.390 OA
HETATM   17  H   UNK N   1      29.226  18.512  10.945  0.00  0.00     0.210 HD
ENDBRANCH   1  16
BRANCH   5  18
HETATM   18  C   UNK N   1      31.772  17.108   8.204  0.00  0.00     0.215 C 
BRANCH  18  19
HETATM   19  O   UNK N   1      32.472  18.295   8.422  0.00  0.00    -0.294 OA
BRANCH  19  20
HETATM   20  P   UNK N   1      34.124  17.943   8.001  0.00  0.00     0.390 P 
HETATM   21  O   UNK N   1      34.207  17.889   6.453  0.00  0.00    -0.632 OA
BRANCH  20  22
HETATM   22  O   UNK N   1      34.674  16.406   8.603  0.00  0.00    -0.307 OA
HETATM   23  H   UNK N   1      35.075  15.773   9.218  0.00  0.00     0.222 HD
ENDBRANCH  20  22
BRANCH  20  24
HETATM   24  O   UNK N   1      35.185  19.214   8.522  0.00  0.00    -0.307 OA
HETATM   25  H   UNK N   1      35.707  19.425   9.313  0.00  0.00     0.222 HD
ENDBRANCH  20  24
ENDBRANCH  19  20
ENDBRANCH  18  19
ENDBRANCH   5  18
TORSDOF 12
ENDMDL
