MODEL 1
REMARK VINA RESULT:      -5.2      0.000      0.000
REMARK  14 active torsions:
REMARK  status: ('A' for Active; 'I' for Inactive)
REMARK    1  A    between atoms: C_2  and  N_3 
REMARK    2  A    between atoms: C_2  and  C_4 
REMARK    3  A    between atoms: C_4  and  C_5 
REMARK    4  A    between atoms: C_4  and  N_13 
REMARK    5  A    between atoms: C_5  and  C_6 
REMARK    6  A    between atoms: C_6  and  C_7 
REMARK    7  A    between atoms: C_7  and  C_8 
REMARK    8  A    between atoms: C_8  and  C_9 
REMARK    9  A    between atoms: C_9  and  C_10 
REMARK   10  A    between atoms: C_10  and  O_11 
REMARK       I    between atoms: N_13  and  C_14 
REMARK   11  A    between atoms: C_14  and  O_16 
REMARK   12  A    between atoms: O_16  and  P_17 
REMARK   13  A    between atoms: P_17  and  O_18 
REMARK   14  A    between atoms: P_17  and  O_19 
ROOT
HETATM    1  C   UNK N   1      36.808  13.367  12.095  0.00  0.00     0.108 C 
ENDROOT
BRANCH   1   2
HETATM    2  C   UNK N   1      37.799  12.617  11.177  0.00  0.00     0.092 C 
HETATM    3  C   UNK N   1      37.107  12.161   9.903  0.00  0.00     0.033 C 
BRANCH   2   4
HETATM    4  N   UNK N   1      38.873  13.505  10.767  0.00  0.00    -0.424 N 
HETATM    5  H   UNK N   1      38.690  14.495  10.605  0.00  0.00     0.150 HD
HETATM    6  H   UNK N   1      39.816  13.136  10.640  0.00  0.00     0.150 HD
ENDBRANCH   2   4
ENDBRANCH   1   2
BRANCH   1   7
HETATM    7  C   UNK N   1      35.384  13.515  11.546  0.00  0.00     0.027 C 
BRANCH   7   8
HETATM    8  C   UNK N   1      34.908  14.954  11.477  0.00  0.00     0.002 C 
BRANCH   8   9
HETATM    9  C   UNK N   1      35.935  15.785  10.727  0.00  0.00     0.001 C 
BRANCH   9  10
HETATM   10  C   UNK N   1      35.338  17.140  10.387  0.00  0.00     0.010 C 
BRANCH  10  11
HETATM   11  C   UNK N   1      34.435  17.050   9.168  0.00  0.00     0.110 C 
BRANCH  11  12
HETATM   12  C   UNK N   1      34.715  18.155   8.200  0.00  0.00     0.139 C 
HETATM   13  O   UNK N   1      35.248  19.185   8.580  0.00  0.00    -0.650 OA
BRANCH  12  14
HETATM   14  O   UNK N   1      34.404  17.999   6.901  0.00  0.00    -0.776 OA
HETATM   15  H   UNK N   1      33.658  18.252   6.393  0.00  0.00     0.167 HD
ENDBRANCH  12  14
ENDBRANCH  11  12
ENDBRANCH  10  11
ENDBRANCH   9  10
ENDBRANCH   8   9
ENDBRANCH   7   8
ENDBRANCH   1   7
BRANCH   1  16
HETATM   16  N   UNK N   1      36.782  13.047  13.522  0.00  0.00    -0.330 N 
HETATM   17  C   UNK N   1      36.725  13.886  14.596  0.00  0.00     0.369 C 
HETATM   18  O   UNK N   1      36.758  15.095  14.457  0.00  0.00    -0.238 OA
HETATM   19  H   UNK N   1      36.809  12.087  13.739  0.00  0.00     0.165 HD
BRANCH  17  20
HETATM   20  O   UNK N   1      36.523  13.334  15.833  0.00  0.00    -0.202 OA
BRANCH  20  21
HETATM   21  P   UNK N   1      35.318  12.156  16.307  0.00  0.00     0.399 P 
HETATM   22  O   UNK N   1      36.437  11.222  15.764  0.00  0.00    -0.631 OA
BRANCH  21  23
HETATM   23  O   UNK N   1      34.640  11.181  15.041  0.00  0.00    -0.307 OA
HETATM   24  H   UNK N   1      35.112  10.684  14.354  0.00  0.00     0.222 HD
ENDBRANCH  21  23
BRANCH  21  25
HETATM   25  O   UNK N   1      34.439  13.104  15.148  0.00  0.00    -0.307 OA
HETATM   26  H   UNK N   1      33.662  13.436  14.669  0.00  0.00     0.222 HD
ENDBRANCH  21  25
ENDBRANCH  20  21
ENDBRANCH  17  20
ENDBRANCH   1  16
TORSDOF 14
ENDMDL
MODEL 2
REMARK VINA RESULT:      -5.1     14.096     16.497
REMARK  14 active torsions:
REMARK  status: ('A' for Active; 'I' for Inactive)
REMARK    1  A    between atoms: C_2  and  N_3 
REMARK    2  A    between atoms: C_2  and  C_4 
REMARK    3  A    between atoms: C_4  and  C_5 
REMARK    4  A    between atoms: C_4  and  N_13 
REMARK    5  A    between atoms: C_5  and  C_6 
REMARK    6  A    between atoms: C_6  and  C_7 
REMARK    7  A    between atoms: C_7  and  C_8 
REMARK    8  A    between atoms: C_8  and  C_9 
REMARK    9  A    between atoms: C_9  and  C_10 
REMARK   10  A    between atoms: C_10  and  O_11 
REMARK       I    between atoms: N_13  and  C_14 
REMARK   11  A    between atoms: C_14  and  O_16 
REMARK   12  A    between atoms: O_16  and  P_17 
REMARK   13  A    between atoms: P_17  and  O_18 
REMARK   14  A    between atoms: P_17  and  O_19 
ROOT
HETATM    1  C   UNK N   1      20.301  16.313   8.678  0.00  0.00     0.108 C 
ENDROOT
BRANCH   1   2
HETATM    2  C   UNK N   1      19.118  17.307   8.654  0.00  0.00     0.092 C 
HETATM    3  C   UNK N   1      17.903  16.708   9.342  0.00  0.00     0.033 C 
BRANCH   2   4
HETATM    4  N   UNK N   1      19.459  18.510   9.395  0.00  0.00    -0.424 N 
HETATM    5  H   UNK N   1      18.824  19.308   9.402  0.00  0.00     0.150 HD
HETATM    6  H   UNK N   1      20.339  18.556   9.910  0.00  0.00     0.150 HD
ENDBRANCH   2   4
ENDBRANCH   1   2
BRANCH   1   7
HETATM    7  C   UNK N   1      20.041  14.997   9.420  0.00  0.00     0.027 C 
BRANCH   7   8
HETATM    8  C   UNK N   1      21.289  14.158   9.621  0.00  0.00     0.002 C 
BRANCH   8   9
HETATM    9  C   UNK N   1      20.912  12.860  10.315  0.00  0.00     0.001 C 
BRANCH   9  10
HETATM   10  C   UNK N   1      22.089  12.367  11.139  0.00  0.00     0.010 C 
BRANCH  10  11
HETATM   11  C   UNK N   1      23.160  11.754  10.252  0.00  0.00     0.110 C 
BRANCH  11  12
HETATM   12  C   UNK N   1      24.473  12.449  10.426  0.00  0.00     0.139 C 
HETATM   13  O   UNK N   1      24.941  13.117   9.517  0.00  0.00    -0.650 OA
BRANCH  12  14
HETATM   14  O   UNK N   1      25.125  12.361  11.598  0.00  0.00    -0.776 OA
HETATM   15  H   UNK N   1      24.834  12.388  12.489  0.00  0.00     0.167 HD
ENDBRANCH  12  14
ENDBRANCH  11  12
ENDBRANCH  10  11
ENDBRANCH   9  10
ENDBRANCH   8   9
ENDBRANCH   7   8
ENDBRANCH   1   7
BRANCH   1  16
HETATM   16  N   UNK N   1      21.050  16.073   7.445  0.00  0.00    -0.330 N 
HETATM   17  C   UNK N   1      20.611  15.598   6.245  0.00  0.00     0.369 C 
HETATM   18  O   UNK N   1      19.459  15.234   6.091  0.00  0.00    -0.238 OA
HETATM   19  H   UNK N   1      22.010  16.285   7.488  0.00  0.00     0.165 HD
BRANCH  17  20
HETATM   20  O   UNK N   1      21.474  15.638   5.181  0.00  0.00    -0.202 OA
BRANCH  20  21
HETATM   21  P   UNK N   1      22.491  16.965   4.666  0.00  0.00     0.399 P 
HETATM   22  O   UNK N   1      23.394  16.316   5.755  0.00  0.00    -0.631 OA
BRANCH  21  23
HETATM   23  O   UNK N   1      22.858  18.175   5.855  0.00  0.00    -0.307 OA
HETATM   24  H   UNK N   1      23.374  18.987   5.740  0.00  0.00     0.222 HD
ENDBRANCH  21  23
BRANCH  21  25
HETATM   25  O   UNK N   1      21.071  17.806   5.206  0.00  0.00    -0.307 OA
HETATM   26  H   UNK N   1      20.206  18.241   5.129  0.00  0.00     0.222 HD
ENDBRANCH  21  25
ENDBRANCH  20  21
ENDBRANCH  17  20
ENDBRANCH   1  16
TORSDOF 14
ENDMDL
MODEL 3
REMARK VINA RESULT:      -5.1     17.729     20.572
REMARK  14 active torsions:
REMARK  status: ('A' for Active; 'I' for Inactive)
REMARK    1  A    between atoms: C_2  and  N_3 
REMARK    2  A    between atoms: C_2  and  C_4 
REMARK    3  A    between atoms: C_4  and  C_5 
REMARK    4  A    between atoms: C_4  and  N_13 
REMARK    5  A    between atoms: C_5  and  C_6 
REMARK    6  A    between atoms: C_6  and  C_7 
REMARK    7  A    between atoms: C_7  and  C_8 
REMARK    8  A    between atoms: C_8  and  C_9 
REMARK    9  A    between atoms: C_9  and  C_10 
REMARK   10  A    between atoms: C_10  and  O_11 
REMARK       I    between atoms: N_13  and  C_14 
REMARK   11  A    between atoms: C_14  and  O_16 
REMARK   12  A    between atoms: O_16  and  P_17 
REMARK   13  A    between atoms: P_17  and  O_18 
REMARK   14  A    between atoms: P_17  and  O_19 
ROOT
HETATM    1  C   UNK N   1      29.225  25.149  -3.677  0.00  0.00     0.108 C 
ENDROOT
BRANCH   1   2
HETATM    2  C   UNK N   1      29.664  26.539  -4.191  0.00  0.00     0.092 C 
HETATM    3  C   UNK N   1      29.634  26.580  -5.710  0.00  0.00     0.033 C 
BRANCH   2   4
HETATM    4  N   UNK N   1      28.737  27.559  -3.734  0.00  0.00    -0.424 N 
HETATM    5  H   UNK N   1      29.009  28.211  -2.999  0.00  0.00     0.150 HD
HETATM    6  H   UNK N   1      27.807  27.623  -4.150  0.00  0.00     0.150 HD
ENDBRANCH   2   4
ENDBRANCH   1   2
BRANCH   1   7
HETATM    7  C   UNK N   1      28.144  24.450  -4.508  0.00  0.00     0.027 C 
BRANCH   7   8
HETATM    8  C   UNK N   1      26.795  24.382  -3.814  0.00  0.00     0.002 C 
BRANCH   8   9
HETATM    9  C   UNK N   1      25.698  24.670  -4.824  0.00  0.00     0.001 C 
BRANCH   9  10
HETATM   10  C   UNK N   1      26.038  25.937  -5.591  0.00  0.00     0.010 C 
BRANCH  10  11
HETATM   11  C   UNK N   1      25.040  27.043  -5.290  0.00  0.00     0.110 C 
BRANCH  11  12
HETATM   12  C   UNK N   1      25.585  28.009  -4.286  0.00  0.00     0.139 C 
HETATM   13  O   UNK N   1      25.461  27.790  -3.091  0.00  0.00    -0.650 OA
BRANCH  12  14
HETATM   14  O   UNK N   1      26.238  29.107  -4.703  0.00  0.00    -0.776 OA
HETATM   15  H   UNK N   1      26.543  29.872  -4.256  0.00  0.00     0.167 HD
ENDBRANCH  12  14
ENDBRANCH  11  12
ENDBRANCH  10  11
ENDBRANCH   9  10
ENDBRANCH   8   9
ENDBRANCH   7   8
ENDBRANCH   1   7
BRANCH   1  16
HETATM   16  N   UNK N   1      30.249  24.195  -3.252  0.00  0.00    -0.330 N 
HETATM   17  C   UNK N   1      30.199  23.256  -2.264  0.00  0.00     0.369 C 
HETATM   18  O   UNK N   1      29.232  23.158  -1.532  0.00  0.00    -0.238 OA
HETATM   19  H   UNK N   1      31.096  24.236  -3.751  0.00  0.00     0.165 HD
BRANCH  17  20
HETATM   20  O   UNK N   1      31.226  22.353  -2.183  0.00  0.00    -0.202 OA
BRANCH  20  21
HETATM   21  P   UNK N   1      32.220  21.727  -3.480  0.00  0.00     0.399 P 
HETATM   22  O   UNK N   1      30.823  21.191  -3.904  0.00  0.00    -0.631 OA
BRANCH  21  23
HETATM   23  O   UNK N   1      32.323  20.000  -3.621  0.00  0.00    -0.307 OA
HETATM   24  H   UNK N   1      31.714  19.335  -3.263  0.00  0.00     0.222 HD
ENDBRANCH  21  23
BRANCH  21  25
HETATM   25  O   UNK N   1      32.965  20.999  -2.090  0.00  0.00    -0.307 OA
HETATM   26  H   UNK N   1      33.418  20.311  -1.576  0.00  0.00     0.222 HD
ENDBRANCH  21  25
ENDBRANCH  20  21
ENDBRANCH  17  20
ENDBRANCH   1  16
TORSDOF 14
ENDMDL
MODEL 4
REMARK VINA RESULT:      -5.1     15.083     17.549
REMARK  14 active torsions:
REMARK  status: ('A' for Active; 'I' for Inactive)
REMARK    1  A    between atoms: C_2  and  N_3 
REMARK    2  A    between atoms: C_2  and  C_4 
REMARK    3  A    between atoms: C_4  and  C_5 
REMARK    4  A    between atoms: C_4  and  N_13 
REMARK    5  A    between atoms: C_5  and  C_6 
REMARK    6  A    between atoms: C_6  and  C_7 
REMARK    7  A    between atoms: C_7  and  C_8 
REMARK    8  A    between atoms: C_8  and  C_9 
REMARK    9  A    between atoms: C_9  and  C_10 
REMARK   10  A    between atoms: C_10  and  O_11 
REMARK       I    between atoms: N_13  and  C_14 
REMARK   11  A    between atoms: C_14  and  O_16 
REMARK   12  A    between atoms: O_16  and  P_17 
REMARK   13  A    between atoms: P_17  and  O_18 
REMARK   14  A    between atoms: P_17  and  O_19 
ROOT
HETATM    1  C   UNK N   1      21.697  19.132   3.720  0.00  0.00     0.108 C 
ENDROOT
BRANCH   1   2
HETATM    2  C   UNK N   1      20.859  19.702   2.552  0.00  0.00     0.092 C 
HETATM    3  C   UNK N   1      19.391  19.352   2.729  0.00  0.00     0.033 C 
BRANCH   2   4
HETATM    4  N   UNK N   1      20.937  21.153   2.540  0.00  0.00    -0.424 N 
HETATM    5  H   UNK N   1      21.117  21.666   3.402  0.00  0.00     0.150 HD
HETATM    6  H   UNK N   1      20.812  21.659   1.663  0.00  0.00     0.150 HD
ENDBRANCH   2   4
ENDBRANCH   1   2
BRANCH   1   7
HETATM    7  C   UNK N   1      21.053  17.975   4.490  0.00  0.00     0.027 C 
BRANCH   7   8
HETATM    8  C   UNK N   1      21.543  16.607   4.051  0.00  0.00     0.002 C 
BRANCH   8   9
HETATM    9  C   UNK N   1      20.494  15.962   3.161  0.00  0.00     0.001 C 
BRANCH   9  10
HETATM   10  C   UNK N   1      21.125  15.575   1.835  0.00  0.00     0.010 C 
BRANCH  10  11
HETATM   11  C   UNK N   1      20.064  15.273   0.790  0.00  0.00     0.110 C 
BRANCH  11  12
HETATM   12  C   UNK N   1      19.558  16.526   0.149  0.00  0.00     0.139 C 
HETATM   13  O   UNK N   1      20.335  17.414  -0.164  0.00  0.00    -0.650 OA
BRANCH  12  14
HETATM   14  O   UNK N   1      18.246  16.661  -0.108  0.00  0.00    -0.776 OA
HETATM   15  H   UNK N   1      17.726  16.480  -0.867  0.00  0.00     0.167 HD
ENDBRANCH  12  14
ENDBRANCH  11  12
ENDBRANCH  10  11
ENDBRANCH   9  10
ENDBRANCH   8   9
ENDBRANCH   7   8
ENDBRANCH   1   7
BRANCH   1  16
HETATM   16  N   UNK N   1      23.124  18.887   3.513  0.00  0.00    -0.330 N 
HETATM   17  C   UNK N   1      24.141  19.781   3.353  0.00  0.00     0.369 C 
HETATM   18  O   UNK N   1      23.928  20.978   3.296  0.00  0.00    -0.238 OA
HETATM   19  H   UNK N   1      23.388  17.939   3.487  0.00  0.00     0.165 HD
BRANCH  17  20
HETATM   20  O   UNK N   1      25.425  19.303   3.362  0.00  0.00    -0.202 OA
BRANCH  20  21
HETATM   21  P   UNK N   1      26.180  18.256   4.544  0.00  0.00     0.399 P 
HETATM   22  O   UNK N   1      25.547  17.204   3.589  0.00  0.00    -0.631 OA
BRANCH  21  23
HETATM   23  O   UNK N   1      25.123  17.245   5.479  0.00  0.00    -0.307 OA
HETATM   24  H   UNK N   1      25.185  17.028   6.422  0.00  0.00     0.222 HD
ENDBRANCH  21  23
BRANCH  21  25
HETATM   25  O   UNK N   1      25.098  19.181   5.540  0.00  0.00    -0.307 OA
HETATM   26  H   UNK N   1      24.748  19.570   6.358  0.00  0.00     0.222 HD
ENDBRANCH  21  25
ENDBRANCH  20  21
ENDBRANCH  17  20
ENDBRANCH   1  16
TORSDOF 14
ENDMDL
MODEL 5
REMARK VINA RESULT:      -5.1      6.190      8.059
REMARK  14 active torsions:
REMARK  status: ('A' for Active; 'I' for Inactive)
REMARK    1  A    between atoms: C_2  and  N_3 
REMARK    2  A    between atoms: C_2  and  C_4 
REMARK    3  A    between atoms: C_4  and  C_5 
REMARK    4  A    between atoms: C_4  and  N_13 
REMARK    5  A    between atoms: C_5  and  C_6 
REMARK    6  A    between atoms: C_6  and  C_7 
REMARK    7  A    between atoms: C_7  and  C_8 
REMARK    8  A    between atoms: C_8  and  C_9 
REMARK    9  A    between atoms: C_9  and  C_10 
REMARK   10  A    between atoms: C_10  and  O_11 
REMARK       I    between atoms: N_13  and  C_14 
REMARK   11  A    between atoms: C_14  and  O_16 
REMARK   12  A    between atoms: O_16  and  P_17 
REMARK   13  A    between atoms: P_17  and  O_18 
REMARK   14  A    between atoms: P_17  and  O_19 
ROOT
HETATM    1  C   UNK N   1      31.558  17.112   5.274  0.00  0.00     0.108 C 
ENDROOT
BRANCH   1   2
HETATM    2  C   UNK N   1      31.887  16.099   4.154  0.00  0.00     0.092 C 
HETATM    3  C   UNK N   1      32.895  16.687   3.181  0.00  0.00     0.033 C 
BRANCH   2   4
HETATM    4  N   UNK N   1      32.506  14.911   4.719  0.00  0.00    -0.424 N 
HETATM    5  H   UNK N   1      32.681  14.848   5.721  0.00  0.00     0.150 HD
HETATM    6  H   UNK N   1      32.766  14.136   4.108  0.00  0.00     0.150 HD
ENDBRANCH   2   4
ENDBRANCH   1   2
BRANCH   1   7
HETATM    7  C   UNK N   1      30.075  17.464   5.429  0.00  0.00     0.027 C 
BRANCH   7   8
HETATM    8  C   UNK N   1      29.209  16.282   5.826  0.00  0.00     0.002 C 
BRANCH   8   9
HETATM    9  C   UNK N   1      28.032  16.779   6.647  0.00  0.00     0.001 C 
BRANCH   9  10
HETATM   10  C   UNK N   1      28.415  18.070   7.351  0.00  0.00     0.010 C 
BRANCH  10  11
HETATM   11  C   UNK N   1      28.296  17.927   8.859  0.00  0.00     0.110 C 
BRANCH  11  12
HETATM   12  C   UNK N   1      29.617  18.129   9.531  0.00  0.00     0.139 C 
HETATM   13  O   UNK N   1      29.743  18.980  10.397  0.00  0.00    -0.650 OA
BRANCH  12  14
HETATM   14  O   UNK N   1      30.661  17.350   9.198  0.00  0.00    -0.776 OA
HETATM   15  H   UNK N   1      31.173  17.275   8.416  0.00  0.00     0.167 HD
ENDBRANCH  12  14
ENDBRANCH  11  12
ENDBRANCH  10  11
ENDBRANCH   9  10
ENDBRANCH   8   9
ENDBRANCH   7   8
ENDBRANCH   1   7
BRANCH   1  16
HETATM   16  N   UNK N   1      32.193  16.954   6.582  0.00  0.00    -0.330 N 
HETATM   17  C   UNK N   1      33.408  17.397   7.013  0.00  0.00     0.369 C 
HETATM   18  O   UNK N   1      34.180  17.962   6.260  0.00  0.00    -0.238 OA
HETATM   19  H   UNK N   1      31.665  16.456   7.248  0.00  0.00     0.165 HD
BRANCH  17  20
HETATM   20  O   UNK N   1      33.699  17.282   8.347  0.00  0.00    -0.202 OA
BRANCH  20  21
HETATM   21  P   UNK N   1      34.361  15.900   9.193  0.00  0.00     0.399 P 
HETATM   22  O   UNK N   1      32.885  15.445   9.008  0.00  0.00    -0.631 OA
BRANCH  21  23
HETATM   23  O   UNK N   1      33.701  15.556  10.761  0.00  0.00    -0.307 OA
HETATM   24  H   UNK N   1      34.182  15.367  11.582  0.00  0.00     0.222 HD
ENDBRANCH  21  23
BRANCH  21  25
HETATM   25  O   UNK N   1      34.664  17.180  10.328  0.00  0.00    -0.307 OA
HETATM   26  H   UNK N   1      34.609  18.073  10.703  0.00  0.00     0.222 HD
ENDBRANCH  21  25
ENDBRANCH  20  21
ENDBRANCH  17  20
ENDBRANCH   1  16
TORSDOF 14
ENDMDL
MODEL 6
REMARK VINA RESULT:      -5.1      4.381      5.464
REMARK  14 active torsions:
REMARK  status: ('A' for Active; 'I' for Inactive)
REMARK    1  A    between atoms: C_2  and  N_3 
REMARK    2  A    between atoms: C_2  and  C_4 
REMARK    3  A    between atoms: C_4  and  C_5 
REMARK    4  A    between atoms: C_4  and  N_13 
REMARK    5  A    between atoms: C_5  and  C_6 
REMARK    6  A    between atoms: C_6  and  C_7 
REMARK    7  A    between atoms: C_7  and  C_8 
REMARK    8  A    between atoms: C_8  and  C_9 
REMARK    9  A    between atoms: C_9  and  C_10 
REMARK   10  A    between atoms: C_10  and  O_11 
REMARK       I    between atoms: N_13  and  C_14 
REMARK   11  A    between atoms: C_14  and  O_16 
REMARK   12  A    between atoms: O_16  and  P_17 
REMARK   13  A    between atoms: P_17  and  O_18 
REMARK   14  A    between atoms: P_17  and  O_19 
ROOT
HETATM    1  C   UNK N   1      34.307  15.799   8.342  0.00  0.00     0.108 C 
ENDROOT
BRANCH   1   2
HETATM    2  C   UNK N   1      34.862  14.984   7.152  0.00  0.00     0.092 C 
HETATM    3  C   UNK N   1      34.032  13.731   6.930  0.00  0.00     0.033 C 
BRANCH   2   4
HETATM    4  N   UNK N   1      34.772  15.760   5.927  0.00  0.00    -0.424 N 
HETATM    5  H   UNK N   1      35.523  15.724   5.238  0.00  0.00     0.150 HD
HETATM    6  H   UNK N   1      33.953  16.344   5.756  0.00  0.00     0.150 HD
ENDBRANCH   2   4
ENDBRANCH   1   2
BRANCH   1   7
HETATM    7  C   UNK N   1      32.795  16.050   8.321  0.00  0.00     0.027 C 
BRANCH   7   8
HETATM    8  C   UNK N   1      32.425  17.502   8.082  0.00  0.00     0.002 C 
BRANCH   8   9
HETATM    9  C   UNK N   1      30.912  17.631   8.041  0.00  0.00     0.001 C 
BRANCH   9  10
HETATM   10  C   UNK N   1      30.472  18.727   8.997  0.00  0.00     0.010 C 
BRANCH  10  11
HETATM   11  C   UNK N   1      29.416  18.218   9.964  0.00  0.00     0.110 C 
BRANCH  11  12
HETATM   12  C   UNK N   1      28.106  18.002   9.276  0.00  0.00     0.139 C 
HETATM   13  O   UNK N   1      27.541  16.923   9.352  0.00  0.00    -0.650 OA
BRANCH  12  14
HETATM   14  O   UNK N   1      27.536  19.012   8.594  0.00  0.00    -0.776 OA
HETATM   15  H   UNK N   1      26.797  19.051   8.019  0.00  0.00     0.167 HD
ENDBRANCH  12  14
ENDBRANCH  11  12
ENDBRANCH  10  11
ENDBRANCH   9  10
ENDBRANCH   8   9
ENDBRANCH   7   8
ENDBRANCH   1   7
BRANCH   1  16
HETATM   16  N   UNK N   1      34.759  15.476   9.695  0.00  0.00    -0.330 N 
HETATM   17  C   UNK N   1      35.351  16.280  10.623  0.00  0.00     0.369 C 
HETATM   18  O   UNK N   1      35.646  17.433  10.367  0.00  0.00    -0.238 OA
HETATM   19  H   UNK N   1      34.615  14.543   9.975  0.00  0.00     0.165 HD
BRANCH  17  20
HETATM   20  O   UNK N   1      35.513  15.788  11.892  0.00  0.00    -0.202 OA
BRANCH  20  21
HETATM   21  P   UNK N   1      35.988  14.172  12.371  0.00  0.00     0.399 P 
HETATM   22  O   UNK N   1      36.902  14.385  11.130  0.00  0.00    -0.631 OA
BRANCH  21  23
HETATM   23  O   UNK N   1      35.667  12.897  11.238  0.00  0.00    -0.307 OA
HETATM   24  H   UNK N   1      34.847  12.725  10.750  0.00  0.00     0.222 HD
ENDBRANCH  21  23
BRANCH  21  25
HETATM   25  O   UNK N   1      34.288  13.963  12.082  0.00  0.00    -0.307 OA
HETATM   26  H   UNK N   1      33.410  14.170  11.723  0.00  0.00     0.222 HD
ENDBRANCH  21  25
ENDBRANCH  20  21
ENDBRANCH  17  20
ENDBRANCH   1  16
TORSDOF 14
ENDMDL
MODEL 7
REMARK VINA RESULT:      -5.0     23.041     24.128
REMARK  14 active torsions:
REMARK  status: ('A' for Active; 'I' for Inactive)
REMARK    1  A    between atoms: C_2  and  N_3 
REMARK    2  A    between atoms: C_2  and  C_4 
REMARK    3  A    between atoms: C_4  and  C_5 
REMARK    4  A    between atoms: C_4  and  N_13 
REMARK    5  A    between atoms: C_5  and  C_6 
REMARK    6  A    between atoms: C_6  and  C_7 
REMARK    7  A    between atoms: C_7  and  C_8 
REMARK    8  A    between atoms: C_8  and  C_9 
REMARK    9  A    between atoms: C_9  and  C_10 
REMARK   10  A    between atoms: C_10  and  O_11 
REMARK       I    between atoms: N_13  and  C_14 
REMARK   11  A    between atoms: C_14  and  O_16 
REMARK   12  A    between atoms: O_16  and  P_17 
REMARK   13  A    between atoms: P_17  and  O_18 
REMARK   14  A    between atoms: P_17  and  O_19 
ROOT
HETATM    1  C   UNK N   1      26.205  25.776  -7.254  0.00  0.00     0.108 C 
ENDROOT
BRANCH   1   2
HETATM    2  C   UNK N   1      25.679  25.993  -5.816  0.00  0.00     0.092 C 
HETATM    3  C   UNK N   1      24.579  27.041  -5.803  0.00  0.00     0.033 C 
BRANCH   2   4
HETATM    4  N   UNK N   1      25.086  24.768  -5.309  0.00  0.00    -0.424 N 
HETATM    5  H   UNK N   1      24.164  24.471  -5.628  0.00  0.00     0.150 HD
HETATM    6  H   UNK N   1      25.595  24.202  -4.629  0.00  0.00     0.150 HD
ENDBRANCH   2   4
ENDBRANCH   1   2
BRANCH   1   7
HETATM    7  C   UNK N   1      27.432  26.610  -7.639  0.00  0.00     0.027 C 
BRANCH   7   8
HETATM    8  C   UNK N   1      28.017  27.399  -6.482  0.00  0.00     0.002 C 
BRANCH   8   9
HETATM    9  C   UNK N   1      27.818  28.883  -6.740  0.00  0.00     0.001 C 
BRANCH   9  10
HETATM   10  C   UNK N   1      28.008  29.650  -5.442  0.00  0.00     0.010 C 
BRANCH  10  11
HETATM   11  C   UNK N   1      27.787  28.751  -4.237  0.00  0.00     0.110 C 
BRANCH  11  12
HETATM   12  C   UNK N   1      26.509  29.084  -3.536  0.00  0.00     0.139 C 
HETATM   13  O   UNK N   1      25.910  28.226  -2.906  0.00  0.00    -0.650 OA
BRANCH  12  14
HETATM   14  O   UNK N   1      26.034  30.341  -3.575  0.00  0.00    -0.776 OA
HETATM   15  H   UNK N   1      25.212  30.717  -3.326  0.00  0.00     0.167 HD
ENDBRANCH  12  14
ENDBRANCH  11  12
ENDBRANCH  10  11
ENDBRANCH   9  10
ENDBRANCH   8   9
ENDBRANCH   7   8
ENDBRANCH   1   7
BRANCH   1  16
HETATM   16  N   UNK N   1      26.323  24.411  -7.767  0.00  0.00    -0.330 N 
HETATM   17  C   UNK N   1      27.031  23.359  -7.267  0.00  0.00     0.369 C 
HETATM   18  O   UNK N   1      27.748  23.484  -6.291  0.00  0.00    -0.238 OA
HETATM   19  H   UNK N   1      25.819  24.227  -8.592  0.00  0.00     0.165 HD
BRANCH  17  20
HETATM   20  O   UNK N   1      26.832  22.125  -7.829  0.00  0.00    -0.202 OA
BRANCH  20  21
HETATM   21  P   UNK N   1      25.321  21.270  -8.050  0.00  0.00     0.399 P 
HETATM   22  O   UNK N   1      25.407  22.055  -9.391  0.00  0.00    -0.631 OA
BRANCH  21  23
HETATM   23  O   UNK N   1      23.890  22.240  -8.201  0.00  0.00    -0.307 OA
HETATM   24  H   UNK N   1      23.576  22.935  -7.602  0.00  0.00     0.222 HD
ENDBRANCH  21  23
BRANCH  21  25
HETATM   25  O   UNK N   1      24.994  22.184  -6.610  0.00  0.00    -0.307 OA
HETATM   26  H   UNK N   1      24.890  22.347  -5.659  0.00  0.00     0.222 HD
ENDBRANCH  21  25
ENDBRANCH  20  21
ENDBRANCH  17  20
ENDBRANCH   1  16
TORSDOF 14
ENDMDL
MODEL 8
REMARK VINA RESULT:      -5.0      8.171     11.453
REMARK  14 active torsions:
REMARK  status: ('A' for Active; 'I' for Inactive)
REMARK    1  A    between atoms: C_2  and  N_3 
REMARK    2  A    between atoms: C_2  and  C_4 
REMARK    3  A    between atoms: C_4  and  C_5 
REMARK    4  A    between atoms: C_4  and  N_13 
REMARK    5  A    between atoms: C_5  and  C_6 
REMARK    6  A    between atoms: C_6  and  C_7 
REMARK    7  A    between atoms: C_7  and  C_8 
REMARK    8  A    between atoms: C_8  and  C_9 
REMARK    9  A    between atoms: C_9  and  C_10 
REMARK   10  A    between atoms: C_10  and  O_11 
REMARK       I    between atoms: N_13  and  C_14 
REMARK   11  A    between atoms: C_14  and  O_16 
REMARK   12  A    between atoms: O_16  and  P_17 
REMARK   13  A    between atoms: P_17  and  O_18 
REMARK   14  A    between atoms: P_17  and  O_19 
ROOT
HETATM    1  C   UNK N   1      28.695  18.556   7.125  0.00  0.00     0.108 C 
ENDROOT
BRANCH   1   2
HETATM    2  C   UNK N   1      28.679  18.026   8.577  0.00  0.00     0.092 C 
HETATM    3  C   UNK N   1      29.738  18.726   9.412  0.00  0.00     0.033 C 
BRANCH   2   4
HETATM    4  N   UNK N   1      27.401  18.319   9.203  0.00  0.00    -0.424 N 
HETATM    5  H   UNK N   1      26.981  17.653   9.851  0.00  0.00     0.150 HD
HETATM    6  H   UNK N   1      26.923  19.195   8.994  0.00  0.00     0.150 HD
ENDBRANCH   2   4
ENDBRANCH   1   2
BRANCH   1   7
HETATM    7  C   UNK N   1      29.527  17.736   6.133  0.00  0.00     0.027 C 
BRANCH   7   8
HETATM    8  C   UNK N   1      29.634  16.267   6.500  0.00  0.00     0.002 C 
BRANCH   8   9
HETATM    9  C   UNK N   1      31.065  15.956   6.904  0.00  0.00     0.001 C 
BRANCH   9  10
HETATM   10  C   UNK N   1      31.941  17.167   6.631  0.00  0.00     0.010 C 
BRANCH  10  11
HETATM   11  C   UNK N   1      32.663  17.616   7.891  0.00  0.00     0.110 C 
BRANCH  11  12
HETATM   12  C   UNK N   1      34.061  18.052   7.591  0.00  0.00     0.139 C 
HETATM   13  O   UNK N   1      34.506  17.957   6.458  0.00  0.00    -0.650 OA
BRANCH  12  14
HETATM   14  O   UNK N   1      34.820  18.578   8.568  0.00  0.00    -0.776 OA
HETATM   15  H   UNK N   1      34.772  18.532   9.503  0.00  0.00     0.167 HD
ENDBRANCH  12  14
ENDBRANCH  11  12
ENDBRANCH  10  11
ENDBRANCH   9  10
ENDBRANCH   8   9
ENDBRANCH   7   8
ENDBRANCH   1   7
BRANCH   1  16
HETATM   16  N   UNK N   1      27.438  18.988   6.514  0.00  0.00    -0.330 N 
HETATM   17  C   UNK N   1      27.032  20.242   6.165  0.00  0.00     0.369 C 
HETATM   18  O   UNK N   1      27.714  21.220   6.411  0.00  0.00    -0.238 OA
HETATM   19  H   UNK N   1      26.792  18.269   6.328  0.00  0.00     0.165 HD
BRANCH  17  20
HETATM   20  O   UNK N   1      25.880  20.365   5.434  0.00  0.00    -0.202 OA
BRANCH  20  21
HETATM   21  P   UNK N   1      25.475  19.590   3.918  0.00  0.00     0.399 P 
HETATM   22  O   UNK N   1      25.016  18.502   4.930  0.00  0.00    -0.631 OA
BRANCH  21  23
HETATM   23  O   UNK N   1      26.315  18.118   3.546  0.00  0.00    -0.307 OA
HETATM   24  H   UNK N   1      26.929  17.623   4.110  0.00  0.00     0.222 HD
ENDBRANCH  21  23
BRANCH  21  25
HETATM   25  O   UNK N   1      27.184  19.838   3.735  0.00  0.00    -0.307 OA
HETATM   26  H   UNK N   1      28.020  19.992   3.266  0.00  0.00     0.222 HD
ENDBRANCH  21  25
ENDBRANCH  20  21
ENDBRANCH  17  20
ENDBRANCH   1  16
TORSDOF 14
ENDMDL
MODEL 9
REMARK VINA RESULT:      -5.0     19.877     21.790
REMARK  14 active torsions:
REMARK  status: ('A' for Active; 'I' for Inactive)
REMARK    1  A    between atoms: C_2  and  N_3 
REMARK    2  A    between atoms: C_2  and  C_4 
REMARK    3  A    between atoms: C_4  and  C_5 
REMARK    4  A    between atoms: C_4  and  N_13 
REMARK    5  A    between atoms: C_5  and  C_6 
REMARK    6  A    between atoms: C_6  and  C_7 
REMARK    7  A    between atoms: C_7  and  C_8 
REMARK    8  A    between atoms: C_8  and  C_9 
REMARK    9  A    between atoms: C_9  and  C_10 
REMARK   10  A    between atoms: C_10  and  O_11 
REMARK       I    between atoms: N_13  and  C_14 
REMARK   11  A    between atoms: C_14  and  O_16 
REMARK   12  A    between atoms: O_16  and  P_17 
REMARK   13  A    between atoms: P_17  and  O_18 
REMARK   14  A    between atoms: P_17  and  O_19 
ROOT
HETATM    1  C   UNK N   1      26.458  25.171  -6.155  0.00  0.00     0.108 C 
ENDROOT
BRANCH   1   2
HETATM    2  C   UNK N   1      26.174  23.891  -6.972  0.00  0.00     0.092 C 
HETATM    3  C   UNK N   1      27.447  23.082  -7.157  0.00  0.00     0.033 C 
BRANCH   2   4
HETATM    4  N   UNK N   1      25.242  23.036  -6.257  0.00  0.00    -0.424 N 
HETATM    5  H   UNK N   1      24.383  23.422  -5.867  0.00  0.00     0.150 HD
HETATM    6  H   UNK N   1      25.450  22.042  -6.145  0.00  0.00     0.150 HD
ENDBRANCH   2   4
ENDBRANCH   1   2
BRANCH   1   7
HETATM    7  C   UNK N   1      25.222  25.984  -5.753  0.00  0.00     0.027 C 
BRANCH   7   8
HETATM    8  C   UNK N   1      25.487  27.475  -5.644  0.00  0.00     0.002 C 
BRANCH   8   9
HETATM    9  C   UNK N   1      25.481  27.878  -4.179  0.00  0.00     0.001 C 
BRANCH   9  10
HETATM   10  C   UNK N   1      26.344  29.115  -3.993  0.00  0.00     0.010 C 
BRANCH  10  11
HETATM   11  C   UNK N   1      27.720  28.920  -4.607  0.00  0.00     0.110 C 
BRANCH  11  12
HETATM   12  C   UNK N   1      28.695  28.393  -3.603  0.00  0.00     0.139 C 
HETATM   13  O   UNK N   1      28.933  29.024  -2.585  0.00  0.00    -0.650 OA
BRANCH  12  14
HETATM   14  O   UNK N   1      29.289  27.204  -3.809  0.00  0.00    -0.776 OA
HETATM   15  H   UNK N   1      30.124  26.965  -4.160  0.00  0.00     0.167 HD
ENDBRANCH  12  14
ENDBRANCH  11  12
ENDBRANCH  10  11
ENDBRANCH   9  10
ENDBRANCH   8   9
ENDBRANCH   7   8
ENDBRANCH   1   7
BRANCH   1  16
HETATM   16  N   UNK N   1      27.419  25.110  -5.053  0.00  0.00    -0.330 N 
HETATM   17  C   UNK N   1      27.277  24.562  -3.812  0.00  0.00     0.369 C 
HETATM   18  O   UNK N   1      26.219  24.085  -3.447  0.00  0.00    -0.238 OA
HETATM   19  H   UNK N   1      28.293  25.524  -5.234  0.00  0.00     0.165 HD
BRANCH  17  20
HETATM   20  O   UNK N   1      28.391  24.468  -3.020  0.00  0.00    -0.202 OA
BRANCH  20  21
HETATM   21  P   UNK N   1      29.539  23.150  -2.923  0.00  0.00     0.399 P 
HETATM   22  O   UNK N   1      28.666  22.865  -1.667  0.00  0.00    -0.631 OA
BRANCH  21  23
HETATM   23  O   UNK N   1      30.581  23.124  -1.536  0.00  0.00    -0.307 OA
HETATM   24  H   UNK N   1      30.430  22.684  -0.685  0.00  0.00     0.222 HD
ENDBRANCH  21  23
BRANCH  21  25
HETATM   25  O   UNK N   1      30.591  24.531  -2.867  0.00  0.00    -0.307 OA
HETATM   26  H   UNK N   1      31.418  25.019  -2.730  0.00  0.00     0.222 HD
ENDBRANCH  21  25
ENDBRANCH  20  21
ENDBRANCH  17  20
ENDBRANCH   1  16
TORSDOF 14
ENDMDL
