MODEL 1
REMARK VINA RESULT:      -4.3      0.000      0.000
REMARK  7 active torsions:
REMARK  status: ('A' for Active; 'I' for Inactive)
REMARK    1  A    between atoms: P_2  and  O_3 
REMARK    2  A    between atoms: P_2  and  C_5 
REMARK    3  A    between atoms: C_5  and  C_6 
REMARK    4  A    between atoms: C_6  and  C_7 
REMARK    5  A    between atoms: C_7  and  N_8 
REMARK    6  A    between atoms: C_7  and  C_9 
REMARK    7  A    between atoms: C_9  and  O_10 
ROOT
HETATM    1  C   UNK N   1      32.929  16.934   7.855  0.00  0.00     0.173 C 
ENDROOT
BRANCH   1   2
HETATM    2  C   UNK N   1      33.419  15.499   8.039  0.00  0.00     0.045 C 
BRANCH   2   3
HETATM    3  C   UNK N   1      34.844  15.356   8.579  0.00  0.00     0.096 C 
BRANCH   3   4
HETATM    4  P   UNK N   1      34.940  15.498  10.441  0.00  0.00     0.094 P 
HETATM    5  C   UNK N   1      36.253  14.611  11.414  0.00  0.00     0.109 C 
HETATM    6  O   UNK N   1      35.089  17.005  10.782  0.00  0.00    -0.674 OA
BRANCH   4   7
HETATM    7  O   UNK N   1      33.392  15.138  11.135  0.00  0.00    -0.350 OA
HETATM    8  H   UNK N   1      32.975  14.444  11.670  0.00  0.00     0.217 HD
ENDBRANCH   4   7
ENDBRANCH   3   4
ENDBRANCH   2   3
ENDBRANCH   1   2
BRANCH   1   9
HETATM    9  N   UNK N   1      32.350  17.389   9.108  0.00  0.00    -0.418 N 
HETATM   10  H   UNK N   1      31.892  16.758   9.764  0.00  0.00     0.150 HD
HETATM   11  H   UNK N   1      32.403  18.382   9.340  0.00  0.00     0.150 HD
ENDBRANCH   1   9
BRANCH   1  12
HETATM   12  C   UNK N   1      34.021  17.872   7.413  0.00  0.00     0.163 C 
HETATM   13  O   UNK N   1      34.383  17.882   6.246  0.00  0.00    -0.648 OA
BRANCH  12  14
HETATM   14  O   UNK N   1      34.581  18.731   8.287  0.00  0.00    -0.775 OA
HETATM   15  H   UNK N   1      34.862  18.441   9.133  0.00  0.00     0.167 HD
ENDBRANCH  12  14
ENDBRANCH   1  12
TORSDOF 7
ENDMDL
MODEL 2
REMARK VINA RESULT:      -4.3      2.005      2.255
REMARK  7 active torsions:
REMARK  status: ('A' for Active; 'I' for Inactive)
REMARK    1  A    between atoms: P_2  and  O_3 
REMARK    2  A    between atoms: P_2  and  C_5 
REMARK    3  A    between atoms: C_5  and  C_6 
REMARK    4  A    between atoms: C_6  and  C_7 
REMARK    5  A    between atoms: C_7  and  N_8 
REMARK    6  A    between atoms: C_7  and  C_9 
REMARK    7  A    between atoms: C_9  and  O_10 
ROOT
HETATM    1  C   UNK N   1      34.239  16.974   8.877  0.00  0.00     0.173 C 
ENDROOT
BRANCH   1   2
HETATM    2  C   UNK N   1      34.862  15.661   8.405  0.00  0.00     0.045 C 
BRANCH   2   3
HETATM    3  C   UNK N   1      34.936  14.554   9.459  0.00  0.00     0.096 C 
BRANCH   3   4
HETATM    4  P   UNK N   1      36.647  14.345  10.186  0.00  0.00     0.094 P 
HETATM    5  C   UNK N   1      37.000  13.054  11.476  0.00  0.00     0.109 C 
HETATM    6  O   UNK N   1      37.617  14.062   9.009  0.00  0.00    -0.674 OA
BRANCH   4   7
HETATM    7  O   UNK N   1      37.230  15.877  10.754  0.00  0.00    -0.350 OA
HETATM    8  H   UNK N   1      38.068  16.363  10.812  0.00  0.00     0.217 HD
ENDBRANCH   4   7
ENDBRANCH   3   4
ENDBRANCH   2   3
ENDBRANCH   1   2
BRANCH   1   9
HETATM    9  N   UNK N   1      34.644  17.212  10.252  0.00  0.00    -0.418 N 
HETATM   10  H   UNK N   1      34.711  16.465  10.943  0.00  0.00     0.150 HD
HETATM   11  H   UNK N   1      34.873  18.165  10.538  0.00  0.00     0.150 HD
ENDBRANCH   1   9
BRANCH   1  12
HETATM   12  C   UNK N   1      34.619  18.145   8.010  0.00  0.00     0.163 C 
HETATM   13  O   UNK N   1      34.305  18.160   6.829  0.00  0.00    -0.648 OA
BRANCH  12  14
HETATM   14  O   UNK N   1      35.272  19.201   8.534  0.00  0.00    -0.775 OA
HETATM   15  H   UNK N   1      36.007  19.579   8.091  0.00  0.00     0.167 HD
ENDBRANCH  12  14
ENDBRANCH   1  12
TORSDOF 7
ENDMDL
MODEL 3
REMARK VINA RESULT:      -4.3     12.071     13.266
REMARK  7 active torsions:
REMARK  status: ('A' for Active; 'I' for Inactive)
REMARK    1  A    between atoms: P_2  and  O_3 
REMARK    2  A    between atoms: P_2  and  C_5 
REMARK    3  A    between atoms: C_5  and  C_6 
REMARK    4  A    between atoms: C_6  and  C_7 
REMARK    5  A    between atoms: C_7  and  N_8 
REMARK    6  A    between atoms: C_7  and  C_9 
REMARK    7  A    between atoms: C_9  and  O_10 
ROOT
HETATM    1  C   UNK N   1      23.903  11.764  10.998  0.00  0.00     0.173 C 
ENDROOT
BRANCH   1   2
HETATM    2  C   UNK N   1      23.014  11.907   9.763  0.00  0.00     0.045 C 
BRANCH   2   3
HETATM    3  C   UNK N   1      22.877  13.329   9.215  0.00  0.00     0.096 C 
BRANCH   3   4
HETATM    4  P   UNK N   1      21.100  13.893   9.071  0.00  0.00     0.094 P 
HETATM    5  C   UNK N   1      20.666  15.690   8.880  0.00  0.00     0.109 C 
HETATM    6  O   UNK N   1      20.482  13.164   7.848  0.00  0.00    -0.674 OA
BRANCH   4   7
HETATM    7  O   UNK N   1      20.171  13.229  10.376  0.00  0.00    -0.350 OA
HETATM    8  H   UNK N   1      19.448  13.494  10.966  0.00  0.00     0.217 HD
ENDBRANCH   4   7
ENDBRANCH   3   4
ENDBRANCH   2   3
ENDBRANCH   1   2
BRANCH   1   9
HETATM    9  N   UNK N   1      24.938  12.784  10.944  0.00  0.00    -0.418 N 
HETATM   10  H   UNK N   1      25.428  13.025  10.084  0.00  0.00     0.150 HD
HETATM   11  H   UNK N   1      25.183  13.278  11.803  0.00  0.00     0.150 HD
ENDBRANCH   1   9
BRANCH   1  12
HETATM   12  C   UNK N   1      23.132  11.869  12.287  0.00  0.00     0.163 C 
HETATM   13  O   UNK N   1      23.713  12.145  13.326  0.00  0.00    -0.648 OA
BRANCH  12  14
HETATM   14  O   UNK N   1      21.795  11.700  12.301  0.00  0.00    -0.775 OA
HETATM   15  H   UNK N   1      21.226  12.395  12.569  0.00  0.00     0.167 HD
ENDBRANCH  12  14
ENDBRANCH   1  12
TORSDOF 7
ENDMDL
MODEL 4
REMARK VINA RESULT:      -4.2     13.520     14.448
REMARK  7 active torsions:
REMARK  status: ('A' for Active; 'I' for Inactive)
REMARK    1  A    between atoms: P_2  and  O_3 
REMARK    2  A    between atoms: P_2  and  C_5 
REMARK    3  A    between atoms: C_5  and  C_6 
REMARK    4  A    between atoms: C_6  and  C_7 
REMARK    5  A    between atoms: C_7  and  N_8 
REMARK    6  A    between atoms: C_7  and  C_9 
REMARK    7  A    between atoms: C_9  and  O_10 
ROOT
HETATM    1  C   UNK N   1      20.478  19.084   1.986  0.00  0.00     0.173 C 
ENDROOT
BRANCH   1   2
HETATM    2  C   UNK N   1      21.300  18.836   3.251  0.00  0.00     0.045 C 
BRANCH   2   3
HETATM    3  C   UNK N   1      20.706  17.822   4.231  0.00  0.00     0.096 C 
BRANCH   3   4
HETATM    4  P   UNK N   1      21.665  17.699   5.832  0.00  0.00     0.094 P 
HETATM    5  C   UNK N   1      21.945  16.064   6.670  0.00  0.00     0.109 C 
HETATM    6  O   UNK N   1      23.071  18.304   5.575  0.00  0.00    -0.674 OA
BRANCH   4   7
HETATM    7  O   UNK N   1      21.014  18.817   6.988  0.00  0.00    -0.350 OA
HETATM    8  H   UNK N   1      20.294  18.859   7.637  0.00  0.00     0.217 HD
ENDBRANCH   4   7
ENDBRANCH   3   4
ENDBRANCH   2   3
ENDBRANCH   1   2
BRANCH   1   9
HETATM    9  N   UNK N   1      19.070  19.114   2.348  0.00  0.00    -0.418 N 
HETATM   10  H   UNK N   1      18.505  19.960   2.288  0.00  0.00     0.150 HD
HETATM   11  H   UNK N   1      18.630  18.253   2.674  0.00  0.00     0.150 HD
ENDBRANCH   1   9
BRANCH   1  12
HETATM   12  C   UNK N   1      20.863  20.356   1.280  0.00  0.00     0.163 C 
HETATM   13  O   UNK N   1      21.435  21.246   1.892  0.00  0.00    -0.648 OA
BRANCH  12  14
HETATM   14  O   UNK N   1      20.618  20.511  -0.036  0.00  0.00    -0.775 OA
HETATM   15  H   UNK N   1      21.241  20.228  -0.677  0.00  0.00     0.167 HD
ENDBRANCH  12  14
ENDBRANCH   1  12
TORSDOF 7
ENDMDL
MODEL 5
REMARK VINA RESULT:      -4.1      1.705      2.131
REMARK  7 active torsions:
REMARK  status: ('A' for Active; 'I' for Inactive)
REMARK    1  A    between atoms: P_2  and  O_3 
REMARK    2  A    between atoms: P_2  and  C_5 
REMARK    3  A    between atoms: C_5  and  C_6 
REMARK    4  A    between atoms: C_6  and  C_7 
REMARK    5  A    between atoms: C_7  and  N_8 
REMARK    6  A    between atoms: C_7  and  C_9 
REMARK    7  A    between atoms: C_9  and  O_10 
ROOT
HETATM    1  C   UNK N   1      34.406  17.039   9.078  0.00  0.00     0.173 C 
ENDROOT
BRANCH   1   2
HETATM    2  C   UNK N   1      34.959  15.710   8.565  0.00  0.00     0.045 C 
BRANCH   2   3
HETATM    3  C   UNK N   1      34.203  14.462   9.025  0.00  0.00     0.096 C 
BRANCH   3   4
HETATM    4  P   UNK N   1      34.917  13.700  10.576  0.00  0.00     0.094 P 
HETATM    5  C   UNK N   1      36.752  13.535  10.818  0.00  0.00     0.109 C 
HETATM    6  O   UNK N   1      34.391  14.526  11.780  0.00  0.00    -0.674 OA
BRANCH   4   7
HETATM    7  O   UNK N   1      34.174  12.159  10.863  0.00  0.00    -0.350 OA
HETATM    8  H   UNK N   1      33.744  11.450  10.358  0.00  0.00     0.217 HD
ENDBRANCH   4   7
ENDBRANCH   3   4
ENDBRANCH   2   3
ENDBRANCH   1   2
BRANCH   1   9
HETATM    9  N   UNK N   1      34.979  17.305  10.388  0.00  0.00    -0.418 N 
HETATM   10  H   UNK N   1      34.445  17.213  11.251  0.00  0.00     0.150 HD
HETATM   11  H   UNK N   1      35.956  17.594  10.444  0.00  0.00     0.150 HD
ENDBRANCH   1   9
BRANCH   1  12
HETATM   12  C   UNK N   1      34.683  18.186   8.144  0.00  0.00     0.163 C 
HETATM   13  O   UNK N   1      35.259  19.183   8.554  0.00  0.00    -0.648 OA
BRANCH  12  14
HETATM   14  O   UNK N   1      34.334  18.111   6.845  0.00  0.00    -0.775 OA
HETATM   15  H   UNK N   1      34.926  18.385   6.172  0.00  0.00     0.167 HD
ENDBRANCH  12  14
ENDBRANCH   1  12
TORSDOF 7
ENDMDL
MODEL 6
REMARK VINA RESULT:      -4.1      2.766      3.795
REMARK  7 active torsions:
REMARK  status: ('A' for Active; 'I' for Inactive)
REMARK    1  A    between atoms: P_2  and  O_3 
REMARK    2  A    between atoms: P_2  and  C_5 
REMARK    3  A    between atoms: C_5  and  C_6 
REMARK    4  A    between atoms: C_6  and  C_7 
REMARK    5  A    between atoms: C_7  and  N_8 
REMARK    6  A    between atoms: C_7  and  C_9 
REMARK    7  A    between atoms: C_9  and  O_10 
ROOT
HETATM    1  C   UNK N   1      34.232  17.147   9.070  0.00  0.00     0.173 C 
ENDROOT
BRANCH   1   2
HETATM    2  C   UNK N   1      34.474  15.755   8.485  0.00  0.00     0.045 C 
BRANCH   2   3
HETATM    3  C   UNK N   1      33.231  14.871   8.363  0.00  0.00     0.096 C 
BRANCH   3   4
HETATM    4  P   UNK N   1      32.082  15.405   6.988  0.00  0.00     0.094 P 
HETATM    5  C   UNK N   1      30.831  16.756   7.240  0.00  0.00     0.109 C 
HETATM    6  O   UNK N   1      32.967  15.849   5.792  0.00  0.00    -0.674 OA
BRANCH   4   7
HETATM    7  O   UNK N   1      31.280  14.016   6.326  0.00  0.00    -0.350 OA
HETATM    8  H   UNK N   1      31.088  13.098   6.573  0.00  0.00     0.217 HD
ENDBRANCH   4   7
ENDBRANCH   3   4
ENDBRANCH   2   3
ENDBRANCH   1   2
BRANCH   1   9
HETATM    9  N   UNK N   1      34.936  17.244  10.338  0.00  0.00    -0.418 N 
HETATM   10  H   UNK N   1      35.818  16.765  10.516  0.00  0.00     0.150 HD
HETATM   11  H   UNK N   1      34.529  17.815  11.080  0.00  0.00     0.150 HD
ENDBRANCH   1   9
BRANCH   1  12
HETATM   12  C   UNK N   1      34.668  18.252   8.145  0.00  0.00     0.163 C 
HETATM   13  O   UNK N   1      35.276  19.215   8.587  0.00  0.00    -0.648 OA
BRANCH  12  14
HETATM   14  O   UNK N   1      34.427  18.172   6.821  0.00  0.00    -0.775 OA
HETATM   15  H   UNK N   1      34.142  17.368   6.432  0.00  0.00     0.167 HD
ENDBRANCH  12  14
ENDBRANCH   1  12
TORSDOF 7
ENDMDL
MODEL 7
REMARK VINA RESULT:      -4.1      4.002      5.289
REMARK  7 active torsions:
REMARK  status: ('A' for Active; 'I' for Inactive)
REMARK    1  A    between atoms: P_2  and  O_3 
REMARK    2  A    between atoms: P_2  and  C_5 
REMARK    3  A    between atoms: C_5  and  C_6 
REMARK    4  A    between atoms: C_6  and  C_7 
REMARK    5  A    between atoms: C_7  and  N_8 
REMARK    6  A    between atoms: C_7  and  C_9 
REMARK    7  A    between atoms: C_9  and  O_10 
ROOT
HETATM    1  C   UNK N   1      32.961  17.812   8.788  0.00  0.00     0.173 C 
ENDROOT
BRANCH   1   2
HETATM    2  C   UNK N   1      31.583  17.836   8.126  0.00  0.00     0.045 C 
BRANCH   2   3
HETATM    3  C   UNK N   1      30.468  18.477   8.955  0.00  0.00     0.096 C 
BRANCH   3   4
HETATM    4  P   UNK N   1      28.773  18.262   8.196  0.00  0.00     0.094 P 
HETATM    5  C   UNK N   1      28.063  19.529   7.035  0.00  0.00     0.109 C 
HETATM    6  O   UNK N   1      28.781  16.918   7.420  0.00  0.00    -0.674 OA
BRANCH   4   7
HETATM    7  O   UNK N   1      27.613  17.934   9.443  0.00  0.00    -0.350 OA
HETATM    8  H   UNK N   1      27.097  17.185   9.781  0.00  0.00     0.217 HD
ENDBRANCH   4   7
ENDBRANCH   3   4
ENDBRANCH   2   3
ENDBRANCH   1   2
BRANCH   1   9
HETATM    9  N   UNK N   1      33.254  16.449   9.198  0.00  0.00    -0.418 N 
HETATM   10  H   UNK N   1      33.939  16.227   9.919  0.00  0.00     0.150 HD
HETATM   11  H   UNK N   1      32.753  15.683   8.746  0.00  0.00     0.150 HD
ENDBRANCH   1   9
BRANCH   1  12
HETATM   12  C   UNK N   1      34.049  18.333   7.887  0.00  0.00     0.163 C 
HETATM   13  O   UNK N   1      34.918  19.064   8.338  0.00  0.00    -0.648 OA
BRANCH  12  14
HETATM   14  O   UNK N   1      34.098  17.969   6.591  0.00  0.00    -0.775 OA
HETATM   15  H   UNK N   1      33.339  17.628   6.159  0.00  0.00     0.167 HD
ENDBRANCH  12  14
ENDBRANCH   1  12
TORSDOF 7
ENDMDL
MODEL 8
REMARK VINA RESULT:      -3.8      3.495      4.545
REMARK  7 active torsions:
REMARK  status: ('A' for Active; 'I' for Inactive)
REMARK    1  A    between atoms: P_2  and  O_3 
REMARK    2  A    between atoms: P_2  and  C_5 
REMARK    3  A    between atoms: C_5  and  C_6 
REMARK    4  A    between atoms: C_6  and  C_7 
REMARK    5  A    between atoms: C_7  and  N_8 
REMARK    6  A    between atoms: C_7  and  C_9 
REMARK    7  A    between atoms: C_9  and  O_10 
ROOT
HETATM    1  C   UNK N   1      29.743  18.250   8.355  0.00  0.00     0.173 C 
ENDROOT
BRANCH   1   2
HETATM    2  C   UNK N   1      31.204  17.940   8.676  0.00  0.00     0.045 C 
BRANCH   2   3
HETATM    3  C   UNK N   1      32.026  17.372   7.517  0.00  0.00     0.096 C 
BRANCH   3   4
HETATM    4  P   UNK N   1      33.831  17.135   7.942  0.00  0.00     0.094 P 
HETATM    5  C   UNK N   1      34.763  15.621   7.401  0.00  0.00     0.109 C 
HETATM    6  O   UNK N   1      34.605  18.352   7.366  0.00  0.00    -0.674 OA
BRANCH   4   7
HETATM    7  O   UNK N   1      34.062  17.355   9.647  0.00  0.00    -0.350 OA
HETATM    8  H   UNK N   1      33.622  17.122  10.479  0.00  0.00     0.217 HD
ENDBRANCH   4   7
ENDBRANCH   3   4
ENDBRANCH   2   3
ENDBRANCH   1   2
BRANCH   1   9
HETATM    9  N   UNK N   1      29.422  17.674   7.059  0.00  0.00    -0.418 N 
HETATM   10  H   UNK N   1      29.384  16.668   6.898  0.00  0.00     0.150 HD
HETATM   11  H   UNK N   1      29.227  18.303   6.279  0.00  0.00     0.150 HD
ENDBRANCH   1   9
BRANCH   1  12
HETATM   12  C   UNK N   1      28.793  17.739   9.404  0.00  0.00     0.163 C 
HETATM   13  O   UNK N   1      29.198  16.996  10.286  0.00  0.00    -0.648 OA
BRANCH  12  14
HETATM   14  O   UNK N   1      27.501  18.122   9.404  0.00  0.00    -0.775 OA
HETATM   15  H   UNK N   1      26.818  17.507   9.217  0.00  0.00     0.167 HD
ENDBRANCH  12  14
ENDBRANCH   1  12
TORSDOF 7
ENDMDL
MODEL 9
REMARK VINA RESULT:      -3.8      3.242      4.511
REMARK  7 active torsions:
REMARK  status: ('A' for Active; 'I' for Inactive)
REMARK    1  A    between atoms: P_2  and  O_3 
REMARK    2  A    between atoms: P_2  and  C_5 
REMARK    3  A    between atoms: C_5  and  C_6 
REMARK    4  A    between atoms: C_6  and  C_7 
REMARK    5  A    between atoms: C_7  and  N_8 
REMARK    6  A    between atoms: C_7  and  C_9 
REMARK    7  A    between atoms: C_9  and  O_10 
ROOT
HETATM    1  C   UNK N   1      34.827  14.877  10.893  0.00  0.00     0.173 C 
ENDROOT
BRANCH   1   2
HETATM    2  C   UNK N   1      35.074  14.126  12.201  0.00  0.00     0.045 C 
BRANCH   2   3
HETATM    3  C   UNK N   1      35.162  12.604  12.077  0.00  0.00     0.096 C 
BRANCH   3   4
HETATM    4  P   UNK N   1      36.917  11.982  11.901  0.00  0.00     0.094 P 
HETATM    5  C   UNK N   1      37.698  10.903  13.198  0.00  0.00     0.109 C 
HETATM    6  O   UNK N   1      36.994  11.187  10.570  0.00  0.00    -0.674 OA
BRANCH   4   7
HETATM    7  O   UNK N   1      37.977  13.314  11.569  0.00  0.00    -0.350 OA
HETATM    8  H   UNK N   1      38.740  13.759  11.973  0.00  0.00     0.217 HD
ENDBRANCH   4   7
ENDBRANCH   3   4
ENDBRANCH   2   3
ENDBRANCH   1   2
BRANCH   1   9
HETATM    9  N   UNK N   1      33.412  15.201  10.806  0.00  0.00    -0.418 N 
HETATM   10  H   UNK N   1      32.861  15.036   9.964  0.00  0.00     0.150 HD
HETATM   11  H   UNK N   1      32.952  15.609  11.621  0.00  0.00     0.150 HD
ENDBRANCH   1   9
BRANCH   1  12
HETATM   12  C   UNK N   1      35.657  16.127  10.772  0.00  0.00     0.163 C 
HETATM   13  O   UNK N   1      35.114  17.207  10.591  0.00  0.00    -0.648 OA
BRANCH  12  14
HETATM   14  O   UNK N   1      36.997  16.073  10.898  0.00  0.00    -0.775 OA
HETATM   15  H   UNK N   1      37.539  16.763  10.566  0.00  0.00     0.167 HD
ENDBRANCH  12  14
ENDBRANCH   1  12
TORSDOF 7
ENDMDL
