REMARK  9 active torsions:
REMARK  status: ('A' for Active; 'I' for Inactive)
REMARK    1  A    between atoms: O_42  and  C_3 
REMARK    2  A    between atoms: C_19  and  C_18 
REMARK    3  A    between atoms: N_36  and  C_18 
REMARK    4  A    between atoms: O_39  and  C_19 
REMARK    5  A    between atoms: C_28  and  C_21 
REMARK    6  A    between atoms: C_29  and  C_22 
REMARK    7  A    between atoms: O_41  and  C_25 
REMARK    8  A    between atoms: C_30  and  C_26 
REMARK    9  A    between atoms: O_42  and  C_27 
REMARK       I    between atoms: N_37  and  C_31 
REMARK       I    between atoms: N_38  and  C_31 
ROOT
HETATM    1  C   UNK N   1      -2.468  -2.839  -1.321  0.00  0.00     0.292 C 
HETATM    2  C   UNK N   1      -3.380  -1.472   0.539  0.00  0.00     0.292 C 
HETATM    3  C   UNK N   1      -1.029  -2.455  -0.927  0.00  0.00     0.158 C 
HETATM    4  C   UNK N   1      -2.242  -0.559   0.108  0.00  0.00     0.158 C 
HETATM    5  C   UNK N   1       3.544  -1.236  -0.509  0.00  0.00     0.144 C 
HETATM    6  C   UNK N   1       2.607  -0.526   0.500  0.00  0.00     0.156 C 
HETATM    7  C   UNK N   1       1.866  -2.641  -0.013  0.00  0.00     0.121 C 
HETATM    8  C   UNK N   1       0.138  -0.788   0.509  0.00  0.00     0.327 C 
HETATM    9  N   UNK N   1       3.064  -2.594  -0.466  0.00  0.00    -0.364 N 
ATOM     10  HN  UNK N   1       3.605  -3.408  -0.756  1.00  0.00     0.162 HD
HETATM   11  N   UNK N   1      -3.423  -2.744  -0.196  0.00  0.00     0.093 N 
HETATM   12  N   UNK N   1      -1.010  -1.315  -0.034  0.00  0.00    -0.330 N 
HETATM   13  N   UNK N   1       1.405  -1.341   0.374  0.00  0.00    -0.273 N 
HETATM   14  O   UNK N   1       0.044   0.294   1.079  0.00  0.00    -0.247 OA
ENDROOT
BRANCH   6  15
HETATM   15  C   UNK N   1       2.497   0.957   0.207  0.00  0.00    -0.032 A 
HETATM   16  C   UNK N   1       2.892   1.887   1.178  0.00  0.00     0.011 A 
HETATM   17  C   UNK N   1       2.796   3.257   0.922  0.00  0.00     0.019 A 
HETATM   18  C   UNK N   1       2.302   3.705  -0.306  0.00  0.00     0.011 A 
HETATM   19  C   UNK N   1       1.907   2.785  -1.280  0.00  0.00     0.019 A 
HETATM   20 Br   UNK N   1       2.165   5.574  -0.649  0.00  0.00    -0.051 Br
HETATM   21  C   UNK N   1       2.006   1.414  -1.027  0.00  0.00     0.011 A 
ENDBRANCH   6  15
BRANCH   7  22
HETATM   22  C   UNK N   1       1.239  -3.977   0.304  0.00  0.00     0.042 A 
HETATM   23  C   UNK N   1       0.049  -4.055   1.044  0.00  0.00     0.021 A 
HETATM   24  C   UNK N   1      -0.546  -5.286   1.333  0.00  0.00     0.038 A 
HETATM   25  C   UNK N   1       0.042  -6.474   0.910  0.00  0.00     0.070 A 
HETATM   26  C   UNK N   1       1.271  -6.425   0.247  0.00  0.00     0.074 A 
HETATM   27  C   UNK N   1       1.888  -5.196  -0.048  0.00  0.00     0.085 A 
BRANCH  25  28
HETATM   28  O   UNK N   1      -0.588  -7.649   1.152  0.00  0.00    -0.356 OA
HETATM   29  C   UNK N   1      -0.116  -8.863   0.704  0.00  0.00     0.210 C 
ENDBRANCH  25  28
BRANCH  27  30
HETATM   30  O   UNK N   1       3.111  -5.180  -0.637  0.00  0.00    -0.350 OA
BRANCH  30  31
HETATM   31  C   UNK N   1       3.881  -6.309  -0.810  0.00  0.00     0.171 C 
HETATM   32  C   UNK N   1       5.072  -6.253   0.129  0.00  0.00     0.034 C 
ENDBRANCH  30  31
ENDBRANCH  27  30
ENDBRANCH   7  22
BRANCH   5  33
HETATM   33  C   UNK N   1       4.997  -1.081  -0.164  0.00  0.00    -0.033 A 
HETATM   34  C   UNK N   1       5.514  -1.619   1.023  0.00  0.00     0.011 A 
HETATM   35  C   UNK N   1       6.855  -1.419   1.359  0.00  0.00     0.019 A 
HETATM   36  C   UNK N   1       7.681  -0.667   0.518  0.00  0.00     0.011 A 
HETATM   37  C   UNK N   1       7.172  -0.130  -0.667  0.00  0.00     0.019 A 
HETATM   38 Br   UNK N   1       9.498  -0.360   0.997  0.00  0.00    -0.051 Br
HETATM   39  C   UNK N   1       5.834  -0.342  -1.010  0.00  0.00     0.011 A 
ENDBRANCH   5  33
BRANCH  11  40
HETATM   40  C   UNK N   1      -3.198  -3.805   0.776  0.00  0.00     0.298 C 
BRANCH  40  41
HETATM   41  C   UNK N   1      -3.774  -5.122   0.289  0.00  0.00     0.194 C 
BRANCH  41  42
HETATM   42  O   UNK N   1      -5.163  -5.031   0.210  0.00  0.00    -0.399 OA
HETATM   43  H   UNK N   1      -5.591  -4.162   0.155  0.00  0.00     0.209 HD
ENDBRANCH  41  42
ENDBRANCH  40  41
ENDBRANCH  11  40
TORSDOF 9
