MODEL 1
REMARK VINA RESULT:      -6.6      0.000      0.000
REMARK  12 active torsions:
REMARK  status: ('A' for Active; 'I' for Inactive)
REMARK    1  A    between atoms: C_1  and  O_7 
REMARK    2  A    between atoms: C_2  and  O_8 
REMARK    3  A    between atoms: C_4  and  O_9 
REMARK    4  A    between atoms: C_5  and  C_11 
REMARK    5  A    between atoms: C_6  and  O_10 
REMARK    6  A    between atoms: C_13  and  O_10 
REMARK    7  A    between atoms: O_12  and  C_11 
REMARK    8  A    between atoms: C_14  and  O_19 
REMARK    9  A    between atoms: C_16  and  O_20 
REMARK   10  A    between atoms: C_17  and  C_22 
REMARK   11  A    between atoms: C_18  and  O_21 
REMARK   12  A    between atoms: C_22  and  O_23 
ROOT
HETATM    1  O   UNK N   1      32.601  16.020   7.371  0.00  0.00    -0.348 OA
ENDROOT
BRANCH   1   2
HETATM    2  C   UNK N   1      32.960  16.352   8.688  0.00  0.00     0.187 C 
HETATM    3  C   UNK N   1      33.069  15.042   9.484  0.00  0.00     0.183 C 
HETATM    4  C   UNK N   1      33.787  15.227  10.821  0.00  0.00     0.204 C 
HETATM    5  C   UNK N   1      35.081  15.991  10.553  0.00  0.00     0.288 C 
HETATM    6  O   UNK N   1      34.750  17.254  10.042  0.00  0.00    -0.349 OA
HETATM    7  C   UNK N   1      34.339  17.052   8.713  0.00  0.00     0.180 C 
BRANCH   3   8
HETATM    8  O   UNK N   1      31.804  14.486   9.685  0.00  0.00    -0.390 OA
HETATM    9  H   UNK N   1      31.297  14.027   8.997  0.00  0.00     0.210 HD
ENDBRANCH   3   8
BRANCH   4  10
HETATM   10  O   UNK N   1      34.075  13.977  11.371  0.00  0.00    -0.388 OA
HETATM   11  H   UNK N   1      33.991  13.762  12.313  0.00  0.00     0.210 HD
ENDBRANCH   4  10
BRANCH   5  12
HETATM   12  O   UNK N   1      35.809  16.146  11.733  0.00  0.00    -0.369 OA
HETATM   13  H   UNK N   1      36.292  15.424  12.165  0.00  0.00     0.212 HD
ENDBRANCH   5  12
BRANCH   7  14
HETATM   14  C   UNK N   1      34.283  18.402   8.019  0.00  0.00     0.198 C 
BRANCH  14  15
HETATM   15  O   UNK N   1      35.285  19.238   8.511  0.00  0.00    -0.398 OA
HETATM   16  H   UNK N   1      35.125  20.168   8.737  0.00  0.00     0.209 HD
ENDBRANCH  14  15
ENDBRANCH   7  14
ENDBRANCH   1   2
BRANCH   1  17
HETATM   17  C   UNK N   1      31.247  16.340   7.202  0.00  0.00     0.292 C 
HETATM   18  C   UNK N   1      31.044  17.048   5.854  0.00  0.00     0.204 C 
HETATM   19  C   UNK N   1      29.576  17.461   5.723  0.00  0.00     0.183 C 
HETATM   20  C   UNK N   1      29.106  18.203   6.974  0.00  0.00     0.180 C 
HETATM   21  C   UNK N   1      29.469  17.343   8.188  0.00  0.00     0.179 C 
HETATM   22  O   UNK N   1      30.868  17.215   8.237  0.00  0.00    -0.348 OA
BRANCH  18  23
HETATM   23  O   UNK N   1      31.390  16.197   4.803  0.00  0.00    -0.388 OA
HETATM   24  H   UNK N   1      31.476  15.233   4.858  0.00  0.00     0.210 HD
ENDBRANCH  18  23
BRANCH  19  25
HETATM   25  O   UNK N   1      29.402  18.266   4.594  0.00  0.00    -0.390 OA
HETATM   26  H   UNK N   1      30.045  18.255   3.869  0.00  0.00     0.210 HD
ENDBRANCH  19  25
BRANCH  20  27
HETATM   27  O   UNK N   1      27.724  18.400   6.909  0.00  0.00    -0.390 OA
HETATM   28  H   UNK N   1      27.154  18.720   6.193  0.00  0.00     0.210 HD
ENDBRANCH  20  27
BRANCH  21  29
HETATM   29  C   UNK N   1      28.980  17.985   9.475  0.00  0.00     0.198 C 
BRANCH  29  30
HETATM   30  O   UNK N   1      27.591  17.888   9.556  0.00  0.00    -0.398 OA
HETATM   31  H   UNK N   1      27.162  17.482  10.327  0.00  0.00     0.209 HD
ENDBRANCH  29  30
ENDBRANCH  21  29
ENDBRANCH   1  17
TORSDOF 12
ENDMDL
MODEL 2
REMARK VINA RESULT:      -6.3      3.133      5.258
REMARK  12 active torsions:
REMARK  status: ('A' for Active; 'I' for Inactive)
REMARK    1  A    between atoms: C_1  and  O_7 
REMARK    2  A    between atoms: C_2  and  O_8 
REMARK    3  A    between atoms: C_4  and  O_9 
REMARK    4  A    between atoms: C_5  and  C_11 
REMARK    5  A    between atoms: C_6  and  O_10 
REMARK    6  A    between atoms: C_13  and  O_10 
REMARK    7  A    between atoms: O_12  and  C_11 
REMARK    8  A    between atoms: C_14  and  O_19 
REMARK    9  A    between atoms: C_16  and  O_20 
REMARK   10  A    between atoms: C_17  and  C_22 
REMARK   11  A    between atoms: C_18  and  O_21 
REMARK   12  A    between atoms: C_22  and  O_23 
ROOT
HETATM    1  O   UNK N   1      34.167  14.982  10.548  0.00  0.00    -0.348 OA
ENDROOT
BRANCH   1   2
HETATM    2  C   UNK N   1      35.163  14.008  10.727  0.00  0.00     0.187 C 
HETATM    3  C   UNK N   1      35.821  14.263  12.091  0.00  0.00     0.183 C 
HETATM    4  C   UNK N   1      36.668  13.080  12.564  0.00  0.00     0.204 C 
HETATM    5  C   UNK N   1      35.823  11.817  12.421  0.00  0.00     0.288 C 
HETATM    6  O   UNK N   1      35.520  11.639  11.063  0.00  0.00    -0.349 OA
HETATM    7  C   UNK N   1      34.538  12.593  10.746  0.00  0.00     0.180 C 
BRANCH   3   8
HETATM    8  O   UNK N   1      36.592  15.427  12.052  0.00  0.00    -0.390 OA
HETATM    9  H   UNK N   1      36.250  16.311  12.256  0.00  0.00     0.210 HD
ENDBRANCH   3   8
BRANCH   4  10
HETATM   10  O   UNK N   1      37.025  13.268  13.900  0.00  0.00    -0.388 OA
HETATM   11  H   UNK N   1      36.868  12.619  14.604  0.00  0.00     0.210 HD
ENDBRANCH   4  10
BRANCH   5  12
HETATM   12  O   UNK N   1      36.526  10.706  12.887  0.00  0.00    -0.369 OA
HETATM   13  H   UNK N   1      36.564  10.446  13.821  0.00  0.00     0.212 HD
ENDBRANCH   5  12
BRANCH   7  14
HETATM   14  C   UNK N   1      33.944  12.236   9.393  0.00  0.00     0.198 C 
BRANCH  14  15
HETATM   15  O   UNK N   1      32.616  12.657   9.325  0.00  0.00    -0.398 OA
HETATM   16  H   UNK N   1      31.907  12.232   9.831  0.00  0.00     0.209 HD
ENDBRANCH  14  15
ENDBRANCH   7  14
ENDBRANCH   1   2
BRANCH   1  17
HETATM   17  C   UNK N   1      34.402  15.614   9.319  0.00  0.00     0.292 C 
HETATM   18  C   UNK N   1      34.589  17.123   9.537  0.00  0.00     0.204 C 
HETATM   19  C   UNK N   1      34.763  17.806   8.178  0.00  0.00     0.183 C 
HETATM   20  C   UNK N   1      33.663  17.376   7.207  0.00  0.00     0.180 C 
HETATM   21  C   UNK N   1      33.619  15.846   7.204  0.00  0.00     0.179 C 
HETATM   22  O   UNK N   1      33.280  15.409   8.496  0.00  0.00    -0.348 OA
BRANCH  18  23
HETATM   23  O   UNK N   1      35.710  17.363  10.331  0.00  0.00    -0.388 OA
HETATM   24  H   UNK N   1      35.705  17.746  11.222  0.00  0.00     0.210 HD
ENDBRANCH  18  23
BRANCH  19  25
HETATM   25  O   UNK N   1      34.750  19.195   8.332  0.00  0.00    -0.390 OA
HETATM   26  H   UNK N   1      34.764  19.783   7.562  0.00  0.00     0.210 HD
ENDBRANCH  19  25
BRANCH  20  27
HETATM   27  O   UNK N   1      33.951  17.861   5.929  0.00  0.00    -0.390 OA
HETATM   28  H   UNK N   1      33.376  18.214   5.232  0.00  0.00     0.210 HD
ENDBRANCH  20  27
BRANCH  21  29
HETATM   29  C   UNK N   1      32.586  15.333   6.214  0.00  0.00     0.198 C 
BRANCH  29  30
HETATM   30  O   UNK N   1      31.951  14.204   6.731  0.00  0.00    -0.398 OA
HETATM   31  H   UNK N   1      32.397  13.632   7.375  0.00  0.00     0.209 HD
ENDBRANCH  29  30
ENDBRANCH  21  29
ENDBRANCH   1  17
TORSDOF 12
ENDMDL
MODEL 3
REMARK VINA RESULT:      -6.0      2.789      4.753
REMARK  12 active torsions:
REMARK  status: ('A' for Active; 'I' for Inactive)
REMARK    1  A    between atoms: C_1  and  O_7 
REMARK    2  A    between atoms: C_2  and  O_8 
REMARK    3  A    between atoms: C_4  and  O_9 
REMARK    4  A    between atoms: C_5  and  C_11 
REMARK    5  A    between atoms: C_6  and  O_10 
REMARK    6  A    between atoms: C_13  and  O_10 
REMARK    7  A    between atoms: O_12  and  C_11 
REMARK    8  A    between atoms: C_14  and  O_19 
REMARK    9  A    between atoms: C_16  and  O_20 
REMARK   10  A    between atoms: C_17  and  C_22 
REMARK   11  A    between atoms: C_18  and  O_21 
REMARK   12  A    between atoms: C_22  and  O_23 
ROOT
HETATM    1  O   UNK N   1      35.110  13.694   9.997  0.00  0.00    -0.348 OA
ENDROOT
BRANCH   1   2
HETATM    2  C   UNK N   1      34.923  13.607  11.387  0.00  0.00     0.187 C 
HETATM    3  C   UNK N   1      35.001  12.122  11.773  0.00  0.00     0.183 C 
HETATM    4  C   UNK N   1      35.165  11.916  13.280  0.00  0.00     0.204 C 
HETATM    5  C   UNK N   1      36.300  12.822  13.752  0.00  0.00     0.288 C 
HETATM    6  O   UNK N   1      35.928  14.154  13.518  0.00  0.00    -0.349 OA
HETATM    7  C   UNK N   1      36.047  14.363  12.133  0.00  0.00     0.180 C 
BRANCH   3   8
HETATM    8  O   UNK N   1      33.877  11.436  11.309  0.00  0.00    -0.390 OA
HETATM    9  H   UNK N   1      33.626  10.545  11.598  0.00  0.00     0.210 HD
ENDBRANCH   3   8
BRANCH   4  10
HETATM   10  O   UNK N   1      35.482  10.581  13.535  0.00  0.00    -0.388 OA
HETATM   11  H   UNK N   1      35.329  10.136  14.384  0.00  0.00     0.210 HD
ENDBRANCH   4  10
BRANCH   5  12
HETATM   12  O   UNK N   1      36.533  12.641  15.115  0.00  0.00    -0.369 OA
HETATM   13  H   UNK N   1      36.027  13.088  15.812  0.00  0.00     0.212 HD
ENDBRANCH   5  12
BRANCH   7  14
HETATM   14  C   UNK N   1      35.974  15.858  11.867  0.00  0.00     0.198 C 
BRANCH  14  15
HETATM   15  O   UNK N   1      36.838  16.204  10.829  0.00  0.00    -0.398 OA
HETATM   16  H   UNK N   1      37.145  15.563  10.169  0.00  0.00     0.209 HD
ENDBRANCH  14  15
ENDBRANCH   7  14
ENDBRANCH   1   2
BRANCH   1  17
HETATM   17  C   UNK N   1      34.110  14.529   9.482  0.00  0.00     0.292 C 
HETATM   18  C   UNK N   1      33.273  13.761   8.447  0.00  0.00     0.204 C 
HETATM   19  C   UNK N   1      32.239  14.711   7.837  0.00  0.00     0.183 C 
HETATM   20  C   UNK N   1      32.900  16.007   7.370  0.00  0.00     0.180 C 
HETATM   21  C   UNK N   1      33.727  16.554   8.537  0.00  0.00     0.179 C 
HETATM   22  O   UNK N   1      34.730  15.619   8.845  0.00  0.00    -0.348 OA
BRANCH  18  23
HETATM   23  O   UNK N   1      32.624  12.684   9.052  0.00  0.00    -0.388 OA
HETATM   24  H   UNK N   1      33.053  11.950   9.517  0.00  0.00     0.210 HD
ENDBRANCH  18  23
BRANCH  19  25
HETATM   25  O   UNK N   1      31.590  14.091   6.766  0.00  0.00    -0.390 OA
HETATM   26  H   UNK N   1      30.654  14.263   6.582  0.00  0.00     0.210 HD
ENDBRANCH  19  25
BRANCH  20  27
HETATM   27  O   UNK N   1      31.916  16.926   6.994  0.00  0.00    -0.390 OA
HETATM   28  H   UNK N   1      31.973  17.861   6.743  0.00  0.00     0.210 HD
ENDBRANCH  20  27
BRANCH  21  29
HETATM   29  C   UNK N   1      34.373  17.880   8.172  0.00  0.00     0.198 C 
BRANCH  29  30
HETATM   30  O   UNK N   1      34.519  17.973   6.788  0.00  0.00    -0.398 OA
HETATM   31  H   UNK N   1      35.307  17.622   6.345  0.00  0.00     0.209 HD
ENDBRANCH  29  30
ENDBRANCH  21  29
ENDBRANCH   1  17
TORSDOF 12
ENDMDL
MODEL 4
REMARK VINA RESULT:      -5.9      6.871     10.261
REMARK  12 active torsions:
REMARK  status: ('A' for Active; 'I' for Inactive)
REMARK    1  A    between atoms: C_1  and  O_7 
REMARK    2  A    between atoms: C_2  and  O_8 
REMARK    3  A    between atoms: C_4  and  O_9 
REMARK    4  A    between atoms: C_5  and  C_11 
REMARK    5  A    between atoms: C_6  and  O_10 
REMARK    6  A    between atoms: C_13  and  O_10 
REMARK    7  A    between atoms: O_12  and  C_11 
REMARK    8  A    between atoms: C_14  and  O_19 
REMARK    9  A    between atoms: C_16  and  O_20 
REMARK   10  A    between atoms: C_17  and  C_22 
REMARK   11  A    between atoms: C_18  and  O_21 
REMARK   12  A    between atoms: C_22  and  O_23 
ROOT
HETATM    1  O   UNK N   1      23.548  18.940   4.450  0.00  0.00    -0.348 OA
ENDROOT
BRANCH   1   2
HETATM    2  C   UNK N   1      24.752  18.315   4.086  0.00  0.00     0.187 C 
HETATM    3  C   UNK N   1      25.811  19.415   3.913  0.00  0.00     0.183 C 
HETATM    4  C   UNK N   1      27.234  18.857   3.864  0.00  0.00     0.204 C 
HETATM    5  C   UNK N   1      27.401  17.907   5.047  0.00  0.00     0.288 C 
HETATM    6  O   UNK N   1      26.497  16.846   4.893  0.00  0.00    -0.349 OA
HETATM    7  C   UNK N   1      25.225  17.358   5.206  0.00  0.00     0.180 C 
BRANCH   3   8
HETATM    8  O   UNK N   1      25.547  20.171   2.769  0.00  0.00    -0.390 OA
HETATM    9  H   UNK N   1      26.085  20.924   2.479  0.00  0.00     0.210 HD
ENDBRANCH   3   8
BRANCH   4  10
HETATM   10  O   UNK N   1      28.149  19.906   3.961  0.00  0.00    -0.388 OA
HETATM   11  H   UNK N   1      28.951  19.984   3.420  0.00  0.00     0.210 HD
ENDBRANCH   4  10
BRANCH   5  12
HETATM   12  O   UNK N   1      28.701  17.403   5.087  0.00  0.00    -0.369 OA
HETATM   13  H   UNK N   1      29.349  17.638   5.770  0.00  0.00     0.212 HD
ENDBRANCH   5  12
BRANCH   7  14
HETATM   14  C   UNK N   1      24.267  16.190   5.372  0.00  0.00     0.198 C 
BRANCH  14  15
HETATM   15  O   UNK N   1      23.231  16.538   6.237  0.00  0.00    -0.398 OA
HETATM   16  H   UNK N   1      22.385  16.896   5.923  0.00  0.00     0.209 HD
ENDBRANCH  14  15
ENDBRANCH   7  14
ENDBRANCH   1   2
BRANCH   1  17
HETATM   17  C   UNK N   1      22.584  18.605   3.490  0.00  0.00     0.292 C 
HETATM   18  C   UNK N   1      21.900  19.880   2.973  0.00  0.00     0.204 C 
HETATM   19  C   UNK N   1      20.796  19.489   1.985  0.00  0.00     0.183 C 
HETATM   20  C   UNK N   1      19.893  18.407   2.579  0.00  0.00     0.180 C 
HETATM   21  C   UNK N   1      20.793  17.276   3.083  0.00  0.00     0.179 C 
HETATM   22  O   UNK N   1      21.618  17.785   4.100  0.00  0.00    -0.348 OA
BRANCH  18  23
HETATM   23  O   UNK N   1      22.828  20.705   2.339  0.00  0.00    -0.388 OA
HETATM   24  H   UNK N   1      23.036  20.705   1.392  0.00  0.00     0.210 HD
ENDBRANCH  18  23
BRANCH  19  25
HETATM   25  O   UNK N   1      20.039  20.612   1.643  0.00  0.00    -0.390 OA
HETATM   26  H   UNK N   1      19.370  20.967   2.248  0.00  0.00     0.210 HD
ENDBRANCH  19  25
BRANCH  20  27
HETATM   27  O   UNK N   1      19.019  17.937   1.595  0.00  0.00    -0.390 OA
HETATM   28  H   UNK N   1      18.102  17.626   1.648  0.00  0.00     0.210 HD
ENDBRANCH  20  27
BRANCH  21  29
HETATM   29  C   UNK N   1      19.965  16.128   3.636  0.00  0.00     0.198 C 
BRANCH  29  30
HETATM   30  O   UNK N   1      18.813  16.624   4.246  0.00  0.00    -0.398 OA
HETATM   31  H   UNK N   1      18.307  17.348   3.844  0.00  0.00     0.209 HD
ENDBRANCH  29  30
ENDBRANCH  21  29
ENDBRANCH   1  17
TORSDOF 12
ENDMDL
MODEL 5
REMARK VINA RESULT:      -5.9      2.056      3.858
REMARK  12 active torsions:
REMARK  status: ('A' for Active; 'I' for Inactive)
REMARK    1  A    between atoms: C_1  and  O_7 
REMARK    2  A    between atoms: C_2  and  O_8 
REMARK    3  A    between atoms: C_4  and  O_9 
REMARK    4  A    between atoms: C_5  and  C_11 
REMARK    5  A    between atoms: C_6  and  O_10 
REMARK    6  A    between atoms: C_13  and  O_10 
REMARK    7  A    between atoms: O_12  and  C_11 
REMARK    8  A    between atoms: C_14  and  O_19 
REMARK    9  A    between atoms: C_16  and  O_20 
REMARK   10  A    between atoms: C_17  and  C_22 
REMARK   11  A    between atoms: C_18  and  O_21 
REMARK   12  A    between atoms: C_22  and  O_23 
ROOT
HETATM    1  O   UNK N   1      30.954  16.044   7.050  0.00  0.00    -0.348 OA
ENDROOT
BRANCH   1   2
HETATM    2  C   UNK N   1      32.273  16.422   6.751  0.00  0.00     0.187 C 
HETATM    3  C   UNK N   1      33.155  16.013   7.941  0.00  0.00     0.183 C 
HETATM    4  C   UNK N   1      34.646  16.045   7.604  0.00  0.00     0.204 C 
HETATM    5  C   UNK N   1      34.843  15.285   6.294  0.00  0.00     0.288 C 
HETATM    6  O   UNK N   1      34.139  15.957   5.284  0.00  0.00    -0.349 OA
HETATM    7  C   UNK N   1      32.778  15.677   5.493  0.00  0.00     0.180 C 
BRANCH   3   8
HETATM    8  O   UNK N   1      32.889  16.824   9.046  0.00  0.00    -0.390 OA
HETATM    9  H   UNK N   1      33.552  17.382   9.482  0.00  0.00     0.210 HD
ENDBRANCH   3   8
BRANCH   4  10
HETATM   10  O   UNK N   1      35.367  15.429   8.627  0.00  0.00    -0.388 OA
HETATM   11  H   UNK N   1      35.146  15.496   9.569  0.00  0.00     0.210 HD
ENDBRANCH   4  10
BRANCH   5  12
HETATM   12  O   UNK N   1      36.196  15.235   5.959  0.00  0.00    -0.369 OA
HETATM   13  H   UNK N   1      36.530  14.882   5.119  0.00  0.00     0.212 HD
ENDBRANCH   5  12
BRANCH   7  14
HETATM   14  C   UNK N   1      32.006  16.102   4.255  0.00  0.00     0.198 C 
BRANCH  14  15
HETATM   15  O   UNK N   1      31.793  17.480   4.272  0.00  0.00    -0.398 OA
HETATM   16  H   UNK N   1      30.910  17.871   4.365  0.00  0.00     0.209 HD
ENDBRANCH  14  15
ENDBRANCH   7  14
ENDBRANCH   1   2
BRANCH   1  17
HETATM   17  C   UNK N   1      30.166  17.202   7.056  0.00  0.00     0.292 C 
HETATM   18  C   UNK N   1      29.312  17.245   8.333  0.00  0.00     0.204 C 
HETATM   19  C   UNK N   1      28.401  18.474   8.283  0.00  0.00     0.183 C 
HETATM   20  C   UNK N   1      27.659  18.548   6.948  0.00  0.00     0.180 C 
HETATM   21  C   UNK N   1      28.698  18.422   5.832  0.00  0.00     0.179 C 
HETATM   22  O   UNK N   1      29.313  17.162   5.939  0.00  0.00    -0.348 OA
BRANCH  18  23
HETATM   23  O   UNK N   1      30.130  17.310   9.461  0.00  0.00    -0.388 OA
HETATM   24  H   UNK N   1      30.358  18.114   9.952  0.00  0.00     0.210 HD
ENDBRANCH  18  23
BRANCH  19  25
HETATM   25  O   UNK N   1      27.486  18.437   9.339  0.00  0.00    -0.390 OA
HETATM   26  H   UNK N   1      26.949  19.212   9.562  0.00  0.00     0.210 HD
ENDBRANCH  19  25
BRANCH  20  27
HETATM   27  O   UNK N   1      26.985  19.769   6.855  0.00  0.00    -0.390 OA
HETATM   28  H   UNK N   1      27.220  20.657   7.166  0.00  0.00     0.210 HD
ENDBRANCH  20  27
BRANCH  21  29
HETATM   29  C   UNK N   1      28.047  18.547   4.465  0.00  0.00     0.198 C 
BRANCH  29  30
HETATM   30  O   UNK N   1      28.129  19.866   4.018  0.00  0.00    -0.398 OA
HETATM   31  H   UNK N   1      28.965  20.229   3.686  0.00  0.00     0.209 HD
ENDBRANCH  29  30
ENDBRANCH  21  29
ENDBRANCH   1  17
TORSDOF 12
ENDMDL
MODEL 6
REMARK VINA RESULT:      -5.8      2.781      6.531
REMARK  12 active torsions:
REMARK  status: ('A' for Active; 'I' for Inactive)
REMARK    1  A    between atoms: C_1  and  O_7 
REMARK    2  A    between atoms: C_2  and  O_8 
REMARK    3  A    between atoms: C_4  and  O_9 
REMARK    4  A    between atoms: C_5  and  C_11 
REMARK    5  A    between atoms: C_6  and  O_10 
REMARK    6  A    between atoms: C_13  and  O_10 
REMARK    7  A    between atoms: O_12  and  C_11 
REMARK    8  A    between atoms: C_14  and  O_19 
REMARK    9  A    between atoms: C_16  and  O_20 
REMARK   10  A    between atoms: C_17  and  C_22 
REMARK   11  A    between atoms: C_18  and  O_21 
REMARK   12  A    between atoms: C_22  and  O_23 
ROOT
HETATM    1  O   UNK N   1      33.537  15.504   5.646  0.00  0.00    -0.348 OA
ENDROOT
BRANCH   1   2
HETATM    2  C   UNK N   1      32.217  15.150   5.321  0.00  0.00     0.187 C 
HETATM    3  C   UNK N   1      31.683  16.203   4.338  0.00  0.00     0.183 C 
HETATM    4  C   UNK N   1      30.399  15.754   3.638  0.00  0.00     0.204 C 
HETATM    5  C   UNK N   1      30.634  14.347   3.094  0.00  0.00     0.288 C 
HETATM    6  O   UNK N   1      30.878  13.491   4.178  0.00  0.00    -0.349 OA
HETATM    7  C   UNK N   1      32.183  13.770   4.621  0.00  0.00     0.180 C 
BRANCH   3   8
HETATM    8  O   UNK N   1      31.480  17.421   4.990  0.00  0.00    -0.390 OA
HETATM    9  H   UNK N   1      31.553  17.542   5.949  0.00  0.00     0.210 HD
ENDBRANCH   3   8
BRANCH   4  10
HETATM   10  O   UNK N   1      30.111  16.629   2.590  0.00  0.00    -0.388 OA
HETATM   11  H   UNK N   1      29.488  16.435   1.871  0.00  0.00     0.210 HD
ENDBRANCH   4  10
BRANCH   5  12
HETATM   12  O   UNK N   1      29.511  13.901   2.397  0.00  0.00    -0.369 OA
HETATM   13  H   UNK N   1      28.761  13.450   2.817  0.00  0.00     0.212 HD
ENDBRANCH   5  12
BRANCH   7  14
HETATM   14  C   UNK N   1      32.614  12.663   5.568  0.00  0.00     0.198 C 
BRANCH  14  15
HETATM   15  O   UNK N   1      32.275  12.993   6.880  0.00  0.00    -0.398 OA
HETATM   16  H   UNK N   1      31.709  12.429   7.430  0.00  0.00     0.209 HD
ENDBRANCH  14  15
ENDBRANCH   7  14
ENDBRANCH   1   2
BRANCH   1  17
HETATM   17  C   UNK N   1      33.529  16.052   6.935  0.00  0.00     0.292 C 
HETATM   18  C   UNK N   1      34.367  17.340   6.958  0.00  0.00     0.204 C 
HETATM   19  C   UNK N   1      34.413  17.880   8.390  0.00  0.00     0.183 C 
HETATM   20  C   UNK N   1      34.805  16.779   9.374  0.00  0.00     0.180 C 
HETATM   21  C   UNK N   1      33.884  15.582   9.124  0.00  0.00     0.179 C 
HETATM   22  O   UNK N   1      34.105  15.119   7.816  0.00  0.00    -0.348 OA
BRANCH  18  23
HETATM   23  O   UNK N   1      33.808  18.297   6.111  0.00  0.00    -0.388 OA
HETATM   24  H   UNK N   1      34.299  18.943   5.580  0.00  0.00     0.210 HD
ENDBRANCH  18  23
BRANCH  19  25
HETATM   25  O   UNK N   1      35.317  18.943   8.473  0.00  0.00    -0.390 OA
HETATM   26  H   UNK N   1      36.225  18.853   8.146  0.00  0.00     0.210 HD
ENDBRANCH  19  25
BRANCH  20  27
HETATM   27  O   UNK N   1      34.657  17.246  10.683  0.00  0.00    -0.390 OA
HETATM   28  H   UNK N   1      34.798  16.813  11.539  0.00  0.00     0.210 HD
ENDBRANCH  20  27
BRANCH  21  29
HETATM   29  C   UNK N   1      34.170  14.460  10.108  0.00  0.00     0.198 C 
BRANCH  29  30
HETATM   30  O   UNK N   1      33.540  14.722  11.324  0.00  0.00    -0.398 OA
HETATM   31  H   UNK N   1      33.614  15.592  11.748  0.00  0.00     0.209 HD
ENDBRANCH  29  30
ENDBRANCH  21  29
ENDBRANCH   1  17
TORSDOF 12
ENDMDL
MODEL 7
REMARK VINA RESULT:      -5.8      3.035      7.630
REMARK  12 active torsions:
REMARK  status: ('A' for Active; 'I' for Inactive)
REMARK    1  A    between atoms: C_1  and  O_7 
REMARK    2  A    between atoms: C_2  and  O_8 
REMARK    3  A    between atoms: C_4  and  O_9 
REMARK    4  A    between atoms: C_5  and  C_11 
REMARK    5  A    between atoms: C_6  and  O_10 
REMARK    6  A    between atoms: C_13  and  O_10 
REMARK    7  A    between atoms: O_12  and  C_11 
REMARK    8  A    between atoms: C_14  and  O_19 
REMARK    9  A    between atoms: C_16  and  O_20 
REMARK   10  A    between atoms: C_17  and  C_22 
REMARK   11  A    between atoms: C_18  and  O_21 
REMARK   12  A    between atoms: C_22  and  O_23 
ROOT
HETATM    1  O   UNK N   1      35.585  14.325  10.136  0.00  0.00    -0.348 OA
ENDROOT
BRANCH   1   2
HETATM    2  C   UNK N   1      34.469  15.050   9.686  0.00  0.00     0.187 C 
HETATM    3  C   UNK N   1      34.883  16.527   9.589  0.00  0.00     0.183 C 
HETATM    4  C   UNK N   1      33.885  17.363   8.786  0.00  0.00     0.204 C 
HETATM    5  C   UNK N   1      33.608  16.627   7.478  0.00  0.00     0.288 C 
HETATM    6  O   UNK N   1      33.017  15.392   7.782  0.00  0.00    -0.349 OA
HETATM    7  C   UNK N   1      34.044  14.570   8.278  0.00  0.00     0.180 C 
BRANCH   3   8
HETATM    8  O   UNK N   1      35.058  17.070  10.863  0.00  0.00    -0.390 OA
HETATM    9  H   UNK N   1      35.920  17.300  11.241  0.00  0.00     0.210 HD
ENDBRANCH   3   8
BRANCH   4  10
HETATM   10  O   UNK N   1      34.437  18.617   8.522  0.00  0.00    -0.388 OA
HETATM   11  H   UNK N   1      34.159  19.439   8.956  0.00  0.00     0.210 HD
ENDBRANCH   4  10
BRANCH   5  12
HETATM   12  O   UNK N   1      32.741  17.369   6.676  0.00  0.00    -0.369 OA
HETATM   13  H   UNK N   1      33.012  17.811   5.856  0.00  0.00     0.212 HD
ENDBRANCH   5  12
BRANCH   7  14
HETATM   14  C   UNK N   1      33.535  13.139   8.316  0.00  0.00     0.198 C 
BRANCH  14  15
HETATM   15  O   UNK N   1      32.693  12.956   9.412  0.00  0.00    -0.398 OA
HETATM   16  H   UNK N   1      32.254  12.112   9.598  0.00  0.00     0.209 HD
ENDBRANCH  14  15
ENDBRANCH   7  14
ENDBRANCH   1   2
BRANCH   1  17
HETATM   17  C   UNK N   1      35.267  13.780  11.386  0.00  0.00     0.292 C 
HETATM   18  C   UNK N   1      36.406  14.057  12.380  0.00  0.00     0.204 C 
HETATM   19  C   UNK N   1      36.077  13.385  13.716  0.00  0.00     0.183 C 
HETATM   20  C   UNK N   1      35.678  11.924  13.507  0.00  0.00     0.180 C 
HETATM   21  C   UNK N   1      34.585  11.890  12.436  0.00  0.00     0.179 C 
HETATM   22  O   UNK N   1      35.122  12.388  11.237  0.00  0.00    -0.348 OA
BRANCH  18  23
HETATM   23  O   UNK N   1      36.560  15.430  12.569  0.00  0.00    -0.388 OA
HETATM   24  H   UNK N   1      36.020  15.988  13.150  0.00  0.00     0.210 HD
ENDBRANCH  18  23
BRANCH  19  25
HETATM   25  O   UNK N   1      37.175  13.464  14.577  0.00  0.00    -0.390 OA
HETATM   26  H   UNK N   1      37.460  12.695  15.095  0.00  0.00     0.210 HD
ENDBRANCH  19  25
BRANCH  20  27
HETATM   27  O   UNK N   1      35.204  11.391  14.709  0.00  0.00    -0.390 OA
HETATM   28  H   UNK N   1      35.100  11.786  15.588  0.00  0.00     0.210 HD
ENDBRANCH  20  27
BRANCH  21  29
HETATM   29  C   UNK N   1      34.088  10.471  12.211  0.00  0.00     0.198 C 
BRANCH  29  30
HETATM   30  O   UNK N   1      33.271  10.428  11.081  0.00  0.00    -0.398 OA
HETATM   31  H   UNK N   1      32.305  10.388  11.164  0.00  0.00     0.209 HD
ENDBRANCH  29  30
ENDBRANCH  21  29
ENDBRANCH   1  17
TORSDOF 12
ENDMDL
MODEL 8
REMARK VINA RESULT:      -5.7      2.380      3.644
REMARK  12 active torsions:
REMARK  status: ('A' for Active; 'I' for Inactive)
REMARK    1  A    between atoms: C_1  and  O_7 
REMARK    2  A    between atoms: C_2  and  O_8 
REMARK    3  A    between atoms: C_4  and  O_9 
REMARK    4  A    between atoms: C_5  and  C_11 
REMARK    5  A    between atoms: C_6  and  O_10 
REMARK    6  A    between atoms: C_13  and  O_10 
REMARK    7  A    between atoms: O_12  and  C_11 
REMARK    8  A    between atoms: C_14  and  O_19 
REMARK    9  A    between atoms: C_16  and  O_20 
REMARK   10  A    between atoms: C_17  and  C_22 
REMARK   11  A    between atoms: C_18  and  O_21 
REMARK   12  A    between atoms: C_22  and  O_23 
ROOT
HETATM    1  O   UNK N   1      30.372  15.996   6.109  0.00  0.00    -0.348 OA
ENDROOT
BRANCH   1   2
HETATM    2  C   UNK N   1      31.211  17.076   6.432  0.00  0.00     0.187 C 
HETATM    3  C   UNK N   1      31.636  16.909   7.899  0.00  0.00     0.183 C 
HETATM    4  C   UNK N   1      32.816  17.808   8.273  0.00  0.00     0.204 C 
HETATM    5  C   UNK N   1      33.894  17.627   7.207  0.00  0.00     0.288 C 
HETATM    6  O   UNK N   1      33.375  18.055   5.977  0.00  0.00    -0.349 OA
HETATM    7  C   UNK N   1      32.482  17.056   5.552  0.00  0.00     0.180 C 
BRANCH   3   8
HETATM    8  O   UNK N   1      30.556  17.147   8.751  0.00  0.00    -0.390 OA
HETATM    9  H   UNK N   1      30.643  17.476   9.659  0.00  0.00     0.210 HD
ENDBRANCH   3   8
BRANCH   4  10
HETATM   10  O   UNK N   1      33.311  17.431   9.522  0.00  0.00    -0.388 OA
HETATM   11  H   UNK N   1      32.914  16.745  10.082  0.00  0.00     0.210 HD
ENDBRANCH   4  10
BRANCH   5  12
HETATM   12  O   UNK N   1      35.022  18.386   7.521  0.00  0.00    -0.369 OA
HETATM   13  H   UNK N   1      35.627  18.174   8.250  0.00  0.00     0.212 HD
ENDBRANCH   5  12
BRANCH   7  14
HETATM   14  C   UNK N   1      32.143  17.306   4.092  0.00  0.00     0.198 C 
BRANCH  14  15
HETATM   15  O   UNK N   1      30.990  18.083   3.992  0.00  0.00    -0.398 OA
HETATM   16  H   UNK N   1      30.652  18.410   3.144  0.00  0.00     0.209 HD
ENDBRANCH  14  15
ENDBRANCH   7  14
ENDBRANCH   1   2
BRANCH   1  17
HETATM   17  C   UNK N   1      29.046  16.435   6.220  0.00  0.00     0.292 C 
HETATM   18  C   UNK N   1      28.194  15.807   5.106  0.00  0.00     0.204 C 
HETATM   19  C   UNK N   1      26.769  16.360   5.195  0.00  0.00     0.183 C 
HETATM   20  C   UNK N   1      26.782  17.887   5.282  0.00  0.00     0.180 C 
HETATM   21  C   UNK N   1      27.740  18.279   6.410  0.00  0.00     0.179 C 
HETATM   22  O   UNK N   1      29.030  17.834   6.071  0.00  0.00    -0.348 OA
BRANCH  18  23
HETATM   23  O   UNK N   1      28.169  14.419   5.239  0.00  0.00    -0.388 OA
HETATM   24  H   UNK N   1      27.957  13.784   4.538  0.00  0.00     0.210 HD
ENDBRANCH  18  23
BRANCH  19  25
HETATM   25  O   UNK N   1      26.025  15.950   4.086  0.00  0.00    -0.390 OA
HETATM   26  H   UNK N   1      26.386  16.018   3.189  0.00  0.00     0.210 HD
ENDBRANCH  19  25
BRANCH  20  27
HETATM   27  O   UNK N   1      25.492  18.351   5.551  0.00  0.00    -0.390 OA
HETATM   28  H   UNK N   1      24.629  17.911   5.504  0.00  0.00     0.210 HD
ENDBRANCH  20  27
BRANCH  21  29
HETATM   29  C   UNK N   1      27.765  19.786   6.603  0.00  0.00     0.198 C 
BRANCH  29  30
HETATM   30  O   UNK N   1      26.747  20.170   7.475  0.00  0.00    -0.398 OA
HETATM   31  H   UNK N   1      26.524  21.106   7.602  0.00  0.00     0.209 HD
ENDBRANCH  29  30
ENDBRANCH  21  29
ENDBRANCH   1  17
TORSDOF 12
ENDMDL
MODEL 9
REMARK VINA RESULT:      -5.7      8.052     12.341
REMARK  12 active torsions:
REMARK  status: ('A' for Active; 'I' for Inactive)
REMARK    1  A    between atoms: C_1  and  O_7 
REMARK    2  A    between atoms: C_2  and  O_8 
REMARK    3  A    between atoms: C_4  and  O_9 
REMARK    4  A    between atoms: C_5  and  C_11 
REMARK    5  A    between atoms: C_6  and  O_10 
REMARK    6  A    between atoms: C_13  and  O_10 
REMARK    7  A    between atoms: O_12  and  C_11 
REMARK    8  A    between atoms: C_14  and  O_19 
REMARK    9  A    between atoms: C_16  and  O_20 
REMARK   10  A    between atoms: C_17  and  C_22 
REMARK   11  A    between atoms: C_18  and  O_21 
REMARK   12  A    between atoms: C_22  and  O_23 
ROOT
HETATM    1  O   UNK N   1      21.267  17.030   5.643  0.00  0.00    -0.348 OA
ENDROOT
BRANCH   1   2
HETATM    2  C   UNK N   1      21.226  17.377   4.282  0.00  0.00     0.187 C 
HETATM    3  C   UNK N   1      19.750  17.552   3.893  0.00  0.00     0.183 C 
HETATM    4  C   UNK N   1      19.579  18.265   2.551  0.00  0.00     0.204 C 
HETATM    5  C   UNK N   1      20.449  19.520   2.577  0.00  0.00     0.288 C 
HETATM    6  O   UNK N   1      21.788  19.125   2.709  0.00  0.00    -0.349 OA
HETATM    7  C   UNK N   1      21.955  18.720   4.044  0.00  0.00     0.180 C 
BRANCH   3   8
HETATM    8  O   UNK N   1      19.100  16.317   3.873  0.00  0.00    -0.390 OA
HETATM    9  H   UNK N   1      18.161  16.194   4.081  0.00  0.00     0.210 HD
ENDBRANCH   3   8
BRANCH   4  10
HETATM   10  O   UNK N   1      18.239  18.617   2.379  0.00  0.00    -0.388 OA
HETATM   11  H   UNK N   1      17.933  19.344   1.815  0.00  0.00     0.210 HD
ENDBRANCH   4  10
BRANCH   5  12
HETATM   12  O   UNK N   1      20.295  20.243   1.394  0.00  0.00    -0.369 OA
HETATM   13  H   UNK N   1      20.313  21.212   1.351  0.00  0.00     0.212 HD
ENDBRANCH   5  12
BRANCH   7  14
HETATM   14  C   UNK N   1      23.443  18.595   4.324  0.00  0.00     0.198 C 
BRANCH  14  15
HETATM   15  O   UNK N   1      23.668  18.504   5.697  0.00  0.00    -0.398 OA
HETATM   16  H   UNK N   1      24.418  18.016   6.072  0.00  0.00     0.209 HD
ENDBRANCH  14  15
ENDBRANCH   7  14
ENDBRANCH   1   2
BRANCH   1  17
HETATM   17  C   UNK N   1      21.729  15.710   5.735  0.00  0.00     0.292 C 
HETATM   18  C   UNK N   1      20.859  14.922   6.727  0.00  0.00     0.204 C 
HETATM   19  C   UNK N   1      21.427  13.508   6.875  0.00  0.00     0.183 C 
HETATM   20  C   UNK N   1      22.929  13.551   7.152  0.00  0.00     0.180 C 
HETATM   21  C   UNK N   1      23.573  14.438   6.083  0.00  0.00     0.179 C 
HETATM   22  O   UNK N   1      23.052  15.737   6.213  0.00  0.00    -0.348 OA
BRANCH  18  23
HETATM   23  O   UNK N   1      19.543  14.856   6.270  0.00  0.00    -0.388 OA
HETATM   24  H   UNK N   1      18.829  14.332   6.666  0.00  0.00     0.210 HD
ENDBRANCH  18  23
BRANCH  19  25
HETATM   25  O   UNK N   1      20.768  12.831   7.905  0.00  0.00    -0.390 OA
HETATM   26  H   UNK N   1      19.859  12.515   7.794  0.00  0.00     0.210 HD
ENDBRANCH  19  25
BRANCH  20  27
HETATM   27  O   UNK N   1      23.453  12.256   7.094  0.00  0.00    -0.390 OA
HETATM   28  H   UNK N   1      23.022  11.394   6.990  0.00  0.00     0.210 HD
ENDBRANCH  20  27
BRANCH  21  29
HETATM   29  C   UNK N   1      25.083  14.485   6.252  0.00  0.00     0.198 C 
BRANCH  29  30
HETATM   30  O   UNK N   1      25.410  14.472   7.608  0.00  0.00    -0.398 OA
HETATM   31  H   UNK N   1      25.143  13.735   8.179  0.00  0.00     0.209 HD
ENDBRANCH  29  30
ENDBRANCH  21  29
ENDBRANCH   1  17
TORSDOF 12
ENDMDL
