MODEL 1
REMARK VINA RESULT:      -9.1      0.000      0.000
REMARK  14 active torsions:
REMARK  status: ('A' for Active; 'I' for Inactive)
REMARK    1  A    between atoms: C_27  and  C_23 
REMARK    2  A    between atoms: C_33  and  C_23 
REMARK    3  A    between atoms: C_28  and  C_24 
REMARK    4  A    between atoms: C_34  and  C_24 
REMARK    5  A    between atoms: C_29  and  C_25 
REMARK    6  A    between atoms: N_48  and  C_25 
REMARK    7  A    between atoms: C_30  and  C_26 
REMARK    8  A    between atoms: N_49  and  C_26 
REMARK    9  A    between atoms: C_37  and  C_31 
REMARK   10  A    between atoms: C_38  and  C_32 
REMARK   11  A    between atoms: C_35  and  O_50 
REMARK   12  A    between atoms: C_36  and  O_51 
REMARK       I    between atoms: N_46  and  C_37 
REMARK       I    between atoms: N_47  and  C_38 
REMARK   13  A    between atoms: N_46  and  C_39 
REMARK   14  A    between atoms: N_47  and  C_40 
ROOT
HETATM    1  C   UNK N   1      27.341  16.361   4.013  0.00  0.00     0.124 C 
HETATM    2  C   UNK N   1      25.711  14.019   4.239  0.00  0.00     0.124 C 
HETATM    3  C   UNK N   1      27.641  15.194   3.056  0.00  0.00     0.172 C 
HETATM    4  C   UNK N   1      27.148  13.860   3.649  0.00  0.00     0.172 C 
HETATM    5  C   UNK N   1      26.518  15.459   6.140  0.00  0.00     0.322 C 
HETATM    6  N   UNK N   1      27.535  15.969   5.404  0.00  0.00    -0.322 N 
HETATM    7  N   UNK N   1      25.692  14.453   5.658  0.00  0.00    -0.322 N 
HETATM    8  O   UNK N   1      26.469  15.768   7.326  0.00  0.00    -0.247 OA
ENDROOT
BRANCH   6   9
HETATM    9  C   UNK N   1      28.846  15.755   5.997  0.00  0.00     0.166 C 
BRANCH   9  10
HETATM   10  C   UNK N   1      29.312  16.737   6.990  0.00  0.00    -0.039 A 
HETATM   11  C   UNK N   1      28.573  17.832   7.462  0.00  0.00     0.009 A 
HETATM   12  C   UNK N   1      29.126  18.678   8.433  0.00  0.00     0.002 A 
HETATM   13  C   UNK N   1      30.437  18.456   8.874  0.00  0.00     0.017 A 
HETATM   14  C   UNK N   1      31.169  17.393   8.323  0.00  0.00     0.033 A 
HETATM   15  C   UNK N   1      30.591  16.556   7.403  0.00  0.00     0.026 A 
BRANCH  14  16
HETATM   16  C   UNK N   1      32.597  17.256   8.493  0.00  0.00     0.257 C 
HETATM   17  N   UNK N   1      33.121  16.118   8.989  0.00  0.00    -0.303 N 
HETATM   18  H   UNK N   1      32.583  15.293   8.978  0.00  0.00     0.171 HD
HETATM   19  O   UNK N   1      33.297  18.248   8.336  0.00  0.00    -0.267 OA
BRANCH  17  20
HETATM   20  C   UNK N   1      34.423  16.089   9.523  0.00  0.00     0.151 A 
HETATM   21  N   UNK N   1      34.800  16.768  10.635  0.00  0.00    -0.346 N 
HETATM   22  C   UNK N   1      35.975  16.293  11.162  0.00  0.00     0.097 A 
ATOM     23  HN  UNK N   1      34.272  17.543  11.034  1.00  0.00     0.167 HD
HETATM   24  C   UNK N   1      36.529  15.194  10.481  0.00  0.00     0.070 A 
HETATM   25  S   UNK N   1      35.495  14.896   9.220  0.00  0.00    -0.064 SA
ENDBRANCH  17  20
ENDBRANCH  14  16
ENDBRANCH   9  10
ENDBRANCH   6   9
BRANCH   1  26
HETATM   26  C   UNK N   1      28.034  17.717   3.750  0.00  0.00     0.066 C 
BRANCH  26  27
HETATM   27  C   UNK N   1      27.465  18.909   4.439  0.00  0.00    -0.056 A 
HETATM   28  C   UNK N   1      28.282  19.947   4.899  0.00  0.00     0.007 A 
HETATM   29  C   UNK N   1      27.714  21.030   5.577  0.00  0.00     0.001 A 
HETATM   30  C   UNK N   1      26.332  21.082   5.782  0.00  0.00     0.000 A 
HETATM   31  C   UNK N   1      25.514  20.059   5.299  0.00  0.00     0.001 A 
HETATM   32  C   UNK N   1      26.083  18.977   4.627  0.00  0.00     0.007 A 
ENDBRANCH  26  27
ENDBRANCH   1  26
BRANCH   3  33
HETATM   33  O   UNK N   1      26.987  15.429   1.843  0.00  0.00    -0.391 OA
HETATM   34  H   UNK N   1      26.438  14.751   1.418  0.00  0.00     0.210 HD
ENDBRANCH   3  33
BRANCH   7  35
HETATM   35  C   UNK N   1      24.802  13.725   6.578  0.00  0.00     0.166 C 
BRANCH  35  36
HETATM   36  C   UNK N   1      23.436  14.339   6.881  0.00  0.00    -0.039 A 
HETATM   37  C   UNK N   1      22.356  13.491   7.153  0.00  0.00     0.009 A 
HETATM   38  C   UNK N   1      21.048  14.001   7.180  0.00  0.00     0.002 A 
HETATM   39  C   UNK N   1      20.806  15.338   6.833  0.00  0.00     0.017 A 
HETATM   40  C   UNK N   1      21.884  16.192   6.569  0.00  0.00     0.033 A 
HETATM   41  C   UNK N   1      23.176  15.688   6.641  0.00  0.00     0.026 A 
BRANCH  40  42
HETATM   42  C   UNK N   1      21.693  17.526   5.960  0.00  0.00     0.257 C 
HETATM   43  N   UNK N   1      21.952  17.700   4.636  0.00  0.00    -0.303 N 
HETATM   44  H   UNK N   1      22.493  17.018   4.176  0.00  0.00     0.171 HD
HETATM   45  O   UNK N   1      21.215  18.437   6.623  0.00  0.00    -0.267 OA
BRANCH  43  46
HETATM   46  C   UNK N   1      21.487  18.805   3.881  0.00  0.00     0.151 A 
HETATM   47  N   UNK N   1      20.188  19.022   3.565  0.00  0.00    -0.346 N 
HETATM   48  C   UNK N   1      20.036  20.097   2.713  0.00  0.00     0.097 A 
ATOM     49  HN  UNK N   1      19.415  18.459   3.916  1.00  0.00     0.167 HD
HETATM   50  C   UNK N   1      21.232  20.739   2.336  0.00  0.00     0.070 A 
HETATM   51  S   UNK N   1      22.435  19.895   3.105  0.00  0.00    -0.064 SA
ENDBRANCH  43  46
ENDBRANCH  40  42
ENDBRANCH  35  36
ENDBRANCH   7  35
BRANCH   4  52
HETATM   52  O   UNK N   1      27.207  12.902   2.630  0.00  0.00    -0.391 OA
HETATM   53  H   UNK N   1      27.560  12.008   2.504  0.00  0.00     0.210 HD
ENDBRANCH   4  52
BRANCH   2  54
HETATM   54  C   UNK N   1      24.892  12.728   4.014  0.00  0.00     0.066 C 
BRANCH  54  55
HETATM   55  C   UNK N   1      23.434  12.952   3.689  0.00  0.00    -0.056 A 
HETATM   56  C   UNK N   1      22.534  11.903   3.884  0.00  0.00     0.007 A 
HETATM   57  C   UNK N   1      21.168  12.096   3.650  0.00  0.00     0.001 A 
HETATM   58  C   UNK N   1      20.694  13.344   3.232  0.00  0.00     0.000 A 
HETATM   59  C   UNK N   1      21.586  14.397   3.035  0.00  0.00     0.001 A 
HETATM   60  C   UNK N   1      22.945  14.201   3.261  0.00  0.00     0.007 A 
ENDBRANCH  54  55
ENDBRANCH   2  54
TORSDOF 14
ENDMDL
MODEL 2
REMARK VINA RESULT:      -8.0      2.574      9.766
REMARK  14 active torsions:
REMARK  status: ('A' for Active; 'I' for Inactive)
REMARK    1  A    between atoms: C_27  and  C_23 
REMARK    2  A    between atoms: C_33  and  C_23 
REMARK    3  A    between atoms: C_28  and  C_24 
REMARK    4  A    between atoms: C_34  and  C_24 
REMARK    5  A    between atoms: C_29  and  C_25 
REMARK    6  A    between atoms: N_48  and  C_25 
REMARK    7  A    between atoms: C_30  and  C_26 
REMARK    8  A    between atoms: N_49  and  C_26 
REMARK    9  A    between atoms: C_37  and  C_31 
REMARK   10  A    between atoms: C_38  and  C_32 
REMARK   11  A    between atoms: C_35  and  O_50 
REMARK   12  A    between atoms: C_36  and  O_51 
REMARK       I    between atoms: N_46  and  C_37 
REMARK       I    between atoms: N_47  and  C_38 
REMARK   13  A    between atoms: N_46  and  C_39 
REMARK   14  A    between atoms: N_47  and  C_40 
ROOT
HETATM    1  C   UNK N   1      26.737  13.354   4.030  0.00  0.00     0.124 C 
HETATM    2  C   UNK N   1      28.538  15.454   3.293  0.00  0.00     0.124 C 
HETATM    3  C   UNK N   1      27.702  13.083   2.861  0.00  0.00     0.172 C 
HETATM    4  C   UNK N   1      28.149  14.404   2.204  0.00  0.00     0.172 C 
HETATM    5  C   UNK N   1      26.153  15.735   4.049  0.00  0.00     0.322 C 
HETATM    6  N   UNK N   1      25.835  14.458   3.728  0.00  0.00    -0.322 N 
HETATM    7  N   UNK N   1      27.397  16.279   3.761  0.00  0.00    -0.322 N 
HETATM    8  O   UNK N   1      25.242  16.468   4.421  0.00  0.00    -0.247 OA
ENDROOT
BRANCH   6   9
HETATM    9  C   UNK N   1      24.735  14.353   2.780  0.00  0.00     0.166 C 
BRANCH   9  10
HETATM   10  C   UNK N   1      23.475  13.764   3.264  0.00  0.00    -0.039 A 
HETATM   11  C   UNK N   1      22.865  12.610   2.749  0.00  0.00     0.009 A 
HETATM   12  C   UNK N   1      21.676  12.138   3.322  0.00  0.00     0.002 A 
HETATM   13  C   UNK N   1      21.076  12.863   4.360  0.00  0.00     0.017 A 
HETATM   14  C   UNK N   1      21.680  14.052   4.796  0.00  0.00     0.033 A 
HETATM   15  C   UNK N   1      22.864  14.471   4.246  0.00  0.00     0.026 A 
BRANCH  14  16
HETATM   16  C   UNK N   1      21.004  15.006   5.645  0.00  0.00     0.257 C 
HETATM   17  N   UNK N   1      21.548  15.382   6.819  0.00  0.00    -0.303 N 
HETATM   18  H   UNK N   1      22.509  15.234   6.977  0.00  0.00     0.171 HD
HETATM   19  O   UNK N   1      19.860  15.331   5.355  0.00  0.00    -0.267 OA
BRANCH  17  20
HETATM   20  C   UNK N   1      20.766  15.983   7.824  0.00  0.00     0.151 A 
HETATM   21  N   UNK N   1      20.224  17.222   7.720  0.00  0.00    -0.346 N 
HETATM   22  C   UNK N   1      19.218  17.429   8.631  0.00  0.00     0.097 A 
ATOM     23  HN  UNK N   1      20.529  17.921   7.044  1.00  0.00     0.167 HD
HETATM   24  C   UNK N   1      18.927  16.325   9.453  0.00  0.00     0.070 A 
HETATM   25  S   UNK N   1      19.990  15.141   8.987  0.00  0.00    -0.064 SA
ENDBRANCH  17  20
ENDBRANCH  14  16
ENDBRANCH   9  10
ENDBRANCH   6   9
BRANCH   1  26
HETATM   26  C   UNK N   1      25.935  12.164   4.604  0.00  0.00     0.066 C 
BRANCH  26  27
HETATM   27  C   UNK N   1      25.223  12.392   5.893  0.00  0.00    -0.056 A 
HETATM   28  C   UNK N   1      25.625  13.393   6.784  0.00  0.00     0.007 A 
HETATM   29  C   UNK N   1      24.956  13.548   8.001  0.00  0.00     0.001 A 
HETATM   30  C   UNK N   1      23.879  12.716   8.322  0.00  0.00     0.000 A 
HETATM   31  C   UNK N   1      23.461  11.735   7.421  0.00  0.00     0.001 A 
HETATM   32  C   UNK N   1      24.133  11.577   6.208  0.00  0.00     0.007 A 
ENDBRANCH  26  27
ENDBRANCH   1  26
BRANCH   3  33
HETATM   33  O   UNK N   1      28.823  12.408   3.351  0.00  0.00    -0.391 OA
HETATM   34  H   UNK N   1      29.711  12.563   2.991  0.00  0.00     0.210 HD
ENDBRANCH   3  33
BRANCH   7  35
HETATM   35  C   UNK N   1      27.605  17.734   3.851  0.00  0.00     0.166 C 
BRANCH  35  36
HETATM   36  C   UNK N   1      27.597  18.370   5.240  0.00  0.00    -0.039 A 
HETATM   37  C   UNK N   1      27.055  19.651   5.397  0.00  0.00     0.009 A 
HETATM   38  C   UNK N   1      27.260  20.363   6.590  0.00  0.00     0.002 A 
HETATM   39  C   UNK N   1      28.094  19.839   7.588  0.00  0.00     0.017 A 
HETATM   40  C   UNK N   1      28.631  18.554   7.439  0.00  0.00     0.033 A 
HETATM   41  C   UNK N   1      28.336  17.829   6.291  0.00  0.00     0.026 A 
BRANCH  40  42
HETATM   42  C   UNK N   1      29.704  18.048   8.322  0.00  0.00     0.257 C 
HETATM   43  N   UNK N   1      30.502  17.034   7.890  0.00  0.00    -0.303 N 
HETATM   44  H   UNK N   1      30.195  16.496   7.125  0.00  0.00     0.171 HD
HETATM   45  O   UNK N   1      29.931  18.603   9.389  0.00  0.00    -0.267 OA
BRANCH  43  46
HETATM   46  C   UNK N   1      31.749  16.708   8.478  0.00  0.00     0.151 A 
HETATM   47  N   UNK N   1      32.741  17.600   8.710  0.00  0.00    -0.346 N 
HETATM   48  C   UNK N   1      33.891  16.989   9.167  0.00  0.00     0.097 A 
ATOM     49  HN  UNK N   1      32.649  18.605   8.564  1.00  0.00     0.167 HD
HETATM   50  C   UNK N   1      33.817  15.588   9.292  0.00  0.00     0.070 A 
HETATM   51  S   UNK N   1      32.283  15.192   8.801  0.00  0.00    -0.064 SA
ENDBRANCH  43  46
ENDBRANCH  40  42
ENDBRANCH  35  36
ENDBRANCH   7  35
BRANCH   4  52
HETATM   52  O   UNK N   1      29.211  14.104   1.343  0.00  0.00    -0.391 OA
HETATM   53  H   UNK N   1      29.419  13.449   0.660  0.00  0.00     0.210 HD
ENDBRANCH   4  52
BRANCH   2  54
HETATM   54  C   UNK N   1      29.722  16.319   2.806  0.00  0.00     0.066 C 
BRANCH  54  55
HETATM   55  C   UNK N   1      30.943  16.279   3.694  0.00  0.00    -0.056 A 
HETATM   56  C   UNK N   1      31.531  15.044   3.972  0.00  0.00     0.007 A 
HETATM   57  C   UNK N   1      32.697  14.979   4.742  0.00  0.00     0.001 A 
HETATM   58  C   UNK N   1      33.289  16.150   5.225  0.00  0.00     0.000 A 
HETATM   59  C   UNK N   1      32.709  17.388   4.953  0.00  0.00     0.001 A 
HETATM   60  C   UNK N   1      31.543  17.451   4.194  0.00  0.00     0.007 A 
ENDBRANCH  54  55
ENDBRANCH   2  54
TORSDOF 14
ENDMDL
MODEL 3
REMARK VINA RESULT:      -8.0      3.912      7.862
REMARK  14 active torsions:
REMARK  status: ('A' for Active; 'I' for Inactive)
REMARK    1  A    between atoms: C_27  and  C_23 
REMARK    2  A    between atoms: C_33  and  C_23 
REMARK    3  A    between atoms: C_28  and  C_24 
REMARK    4  A    between atoms: C_34  and  C_24 
REMARK    5  A    between atoms: C_29  and  C_25 
REMARK    6  A    between atoms: N_48  and  C_25 
REMARK    7  A    between atoms: C_30  and  C_26 
REMARK    8  A    between atoms: N_49  and  C_26 
REMARK    9  A    between atoms: C_37  and  C_31 
REMARK   10  A    between atoms: C_38  and  C_32 
REMARK   11  A    between atoms: C_35  and  O_50 
REMARK   12  A    between atoms: C_36  and  O_51 
REMARK       I    between atoms: N_46  and  C_37 
REMARK       I    between atoms: N_47  and  C_38 
REMARK   13  A    between atoms: N_46  and  C_39 
REMARK   14  A    between atoms: N_47  and  C_40 
ROOT
HETATM    1  C   UNK N   1      20.511  15.730   5.510  0.00  0.00     0.124 C 
HETATM    2  C   UNK N   1      20.815  15.550   2.670  0.00  0.00     0.124 C 
HETATM    3  C   UNK N   1      19.558  16.569   4.641  0.00  0.00     0.172 C 
HETATM    4  C   UNK N   1      20.182  16.850   3.260  0.00  0.00     0.172 C 
HETATM    5  C   UNK N   1      22.673  15.536   4.369  0.00  0.00     0.322 C 
HETATM    6  N   UNK N   1      21.900  16.127   5.312  0.00  0.00    -0.322 N 
HETATM    7  N   UNK N   1      22.229  15.340   3.069  0.00  0.00    -0.322 N 
HETATM    8  O   UNK N   1      23.856  15.359   4.639  0.00  0.00    -0.247 OA
ENDROOT
BRANCH   6   9
HETATM    9  C   UNK N   1      22.454  17.373   5.821  0.00  0.00     0.166 C 
BRANCH   9  10
HETATM   10  C   UNK N   1      22.951  18.348   4.837  0.00  0.00    -0.039 A 
HETATM   11  C   UNK N   1      22.152  19.124   3.983  0.00  0.00     0.009 A 
HETATM   12  C   UNK N   1      22.754  20.040   3.109  0.00  0.00     0.002 A 
HETATM   13  C   UNK N   1      24.152  20.121   3.052  0.00  0.00     0.017 A 
HETATM   14  C   UNK N   1      24.916  19.275   3.869  0.00  0.00     0.033 A 
HETATM   15  C   UNK N   1      24.302  18.416   4.745  0.00  0.00     0.026 A 
BRANCH  14  16
HETATM   16  C   UNK N   1      26.335  19.079   3.682  0.00  0.00     0.257 C 
HETATM   17  N   UNK N   1      26.864  17.840   3.706  0.00  0.00    -0.303 N 
HETATM   18  H   UNK N   1      26.276  17.060   3.573  0.00  0.00     0.171 HD
HETATM   19  O   UNK N   1      27.059  20.066   3.672  0.00  0.00    -0.267 OA
BRANCH  17  20
HETATM   20  C   UNK N   1      28.242  17.641   3.917  0.00  0.00     0.151 A 
HETATM   21  N   UNK N   1      28.911  18.082   5.011  0.00  0.00    -0.346 N 
HETATM   22  C   UNK N   1      30.121  17.455   5.170  0.00  0.00     0.097 A 
ATOM     23  HN  UNK N   1      28.556  18.800   5.642  1.00  0.00     0.167 HD
HETATM   24  C   UNK N   1      30.408  16.469   4.208  0.00  0.00     0.070 A 
HETATM   25  S   UNK N   1      29.105  16.465   3.184  0.00  0.00    -0.064 SA
ENDBRANCH  17  20
ENDBRANCH  14  16
ENDBRANCH   9  10
ENDBRANCH   6   9
BRANCH   1  26
HETATM   26  C   UNK N   1      20.210  15.616   7.022  0.00  0.00     0.066 C 
BRANCH  26  27
HETATM   27  C   UNK N   1      20.852  14.488   7.754  0.00  0.00    -0.056 A 
HETATM   28  C   UNK N   1      21.117  13.266   7.126  0.00  0.00     0.007 A 
HETATM   29  C   UNK N   1      21.683  12.218   7.858  0.00  0.00     0.001 A 
HETATM   30  C   UNK N   1      21.999  12.395   9.209  0.00  0.00     0.000 A 
HETATM   31  C   UNK N   1      21.761  13.624   9.827  0.00  0.00     0.001 A 
HETATM   32  C   UNK N   1      21.189  14.667   9.097  0.00  0.00     0.007 A 
ENDBRANCH  26  27
ENDBRANCH   1  26
BRANCH   3  33
HETATM   33  O   UNK N   1      18.364  15.863   4.473  0.00  0.00    -0.391 OA
HETATM   34  H   UNK N   1      17.502  16.260   4.675  0.00  0.00     0.210 HD
ENDBRANCH   3  33
BRANCH   7  35
HETATM   35  C   UNK N   1      23.184  14.974   2.010  0.00  0.00     0.166 C 
BRANCH  35  36
HETATM   36  C   UNK N   1      23.311  13.495   1.646  0.00  0.00    -0.039 A 
HETATM   37  C   UNK N   1      23.599  13.143   0.322  0.00  0.00     0.009 A 
HETATM   38  C   UNK N   1      23.469  11.810  -0.099  0.00  0.00     0.002 A 
HETATM   39  C   UNK N   1      22.952  10.844   0.775  0.00  0.00     0.017 A 
HETATM   40  C   UNK N   1      22.671  11.188   2.103  0.00  0.00     0.033 A 
HETATM   41  C   UNK N   1      22.898  12.493   2.523  0.00  0.00     0.026 A 
BRANCH  40  42
HETATM   42  C   UNK N   1      21.900  10.297   2.996  0.00  0.00     0.257 C 
HETATM   43  N   UNK N   1      20.878  10.812   3.734  0.00  0.00    -0.303 N 
HETATM   44  H   UNK N   1      20.840  11.788   3.854  0.00  0.00     0.171 HD
HETATM   45  O   UNK N   1      22.117   9.093   2.994  0.00  0.00    -0.267 OA
BRANCH  43  46
HETATM   46  C   UNK N   1      19.870  10.023   4.340  0.00  0.00     0.151 A 
HETATM   47  N   UNK N   1      20.105   9.040   5.241  0.00  0.00    -0.346 N 
HETATM   48  C   UNK N   1      18.956   8.348   5.565  0.00  0.00     0.097 A 
ATOM     49  HN  UNK N   1      21.024   8.836   5.633  1.00  0.00     0.167 HD
HETATM   50  C   UNK N   1      17.789   8.780   4.906  0.00  0.00     0.070 A 
HETATM   51  S   UNK N   1      18.283  10.025   3.927  0.00  0.00    -0.064 SA
ENDBRANCH  43  46
ENDBRANCH  40  42
ENDBRANCH  35  36
ENDBRANCH   7  35
BRANCH   4  52
HETATM   52  O   UNK N   1      19.173  17.375   2.445  0.00  0.00    -0.391 OA
HETATM   53  H   UNK N   1      18.232  17.218   2.274  0.00  0.00     0.210 HD
ENDBRANCH   4  52
BRANCH   2  54
HETATM   54  C   UNK N   1      20.631  15.513   1.136  0.00  0.00     0.066 C 
BRANCH  54  55
HETATM   55  C   UNK N   1      19.613  14.510   0.645  0.00  0.00    -0.056 A 
HETATM   56  C   UNK N   1      19.897  13.149   0.770  0.00  0.00     0.007 A 
HETATM   57  C   UNK N   1      18.951  12.195   0.380  0.00  0.00     0.001 A 
HETATM   58  C   UNK N   1      17.710  12.598  -0.123  0.00  0.00     0.000 A 
HETATM   59  C   UNK N   1      17.417  13.955  -0.252  0.00  0.00     0.001 A 
HETATM   60  C   UNK N   1      18.364  14.903   0.129  0.00  0.00     0.007 A 
ENDBRANCH  54  55
ENDBRANCH   2  54
TORSDOF 14
ENDMDL
MODEL 4
REMARK VINA RESULT:      -8.0      3.396     10.524
REMARK  14 active torsions:
REMARK  status: ('A' for Active; 'I' for Inactive)
REMARK    1  A    between atoms: C_27  and  C_23 
REMARK    2  A    between atoms: C_33  and  C_23 
REMARK    3  A    between atoms: C_28  and  C_24 
REMARK    4  A    between atoms: C_34  and  C_24 
REMARK    5  A    between atoms: C_29  and  C_25 
REMARK    6  A    between atoms: N_48  and  C_25 
REMARK    7  A    between atoms: C_30  and  C_26 
REMARK    8  A    between atoms: N_49  and  C_26 
REMARK    9  A    between atoms: C_37  and  C_31 
REMARK   10  A    between atoms: C_38  and  C_32 
REMARK   11  A    between atoms: C_35  and  O_50 
REMARK   12  A    between atoms: C_36  and  O_51 
REMARK       I    between atoms: N_46  and  C_37 
REMARK       I    between atoms: N_47  and  C_38 
REMARK   13  A    between atoms: N_46  and  C_39 
REMARK   14  A    between atoms: N_47  and  C_40 
ROOT
HETATM    1  C   UNK N   1      28.781  15.508   5.177  0.00  0.00     0.124 C 
HETATM    2  C   UNK N   1      30.583  13.953   3.588  0.00  0.00     0.124 C 
HETATM    3  C   UNK N   1      28.194  14.312   4.405  0.00  0.00     0.172 C 
HETATM    4  C   UNK N   1      29.074  13.963   3.188  0.00  0.00     0.172 C 
HETATM    5  C   UNK N   1      30.645  16.451   3.894  0.00  0.00     0.322 C 
HETATM    6  N   UNK N   1      29.345  16.500   4.270  0.00  0.00    -0.322 N 
HETATM    7  N   UNK N   1      31.243  15.276   3.461  0.00  0.00    -0.322 N 
HETATM    8  O   UNK N   1      31.233  17.519   3.752  0.00  0.00    -0.247 OA
ENDROOT
BRANCH   6   9
HETATM    9  C   UNK N   1      28.531  17.374   3.437  0.00  0.00     0.166 C 
BRANCH   9  10
HETATM   10  C   UNK N   1      27.872  18.515   4.092  0.00  0.00    -0.039 A 
HETATM   11  C   UNK N   1      28.478  19.395   5.001  0.00  0.00     0.009 A 
HETATM   12  C   UNK N   1      27.742  20.464   5.533  0.00  0.00     0.002 A 
HETATM   13  C   UNK N   1      26.389  20.601   5.198  0.00  0.00     0.017 A 
HETATM   14  C   UNK N   1      25.800  19.657   4.343  0.00  0.00     0.033 A 
HETATM   15  C   UNK N   1      26.552  18.644   3.805  0.00  0.00     0.026 A 
BRANCH  14  16
HETATM   16  C   UNK N   1      24.370  19.544   4.168  0.00  0.00     0.257 C 
HETATM   17  N   UNK N   1      23.677  18.580   4.805  0.00  0.00    -0.303 N 
HETATM   18  H   UNK N   1      24.076  18.135   5.589  0.00  0.00     0.171 HD
HETATM   19  O   UNK N   1      23.837  20.229   3.304  0.00  0.00    -0.267 OA
BRANCH  17  20
HETATM   20  C   UNK N   1      22.393  18.200   4.371  0.00  0.00     0.151 A 
HETATM   21  N   UNK N   1      21.361  19.064   4.213  0.00  0.00    -0.346 N 
HETATM   22  C   UNK N   1      20.357  18.541   3.438  0.00  0.00     0.097 A 
ATOM     23  HN  UNK N   1      21.333  19.997   4.624  1.00  0.00     0.167 HD
HETATM   24  C   UNK N   1      20.605  17.249   2.939  0.00  0.00     0.070 A 
HETATM   25  S   UNK N   1      22.094  16.830   3.534  0.00  0.00    -0.064 SA
ENDBRANCH  17  20
ENDBRANCH  14  16
ENDBRANCH   9  10
ENDBRANCH   6   9
BRANCH   1  26
HETATM   26  C   UNK N   1      27.888  16.206   6.228  0.00  0.00     0.066 C 
BRANCH  26  27
HETATM   27  C   UNK N   1      28.584  16.942   7.321  0.00  0.00    -0.056 A 
HETATM   28  C   UNK N   1      29.978  16.942   7.429  0.00  0.00     0.007 A 
HETATM   29  C   UNK N   1      30.592  17.611   8.492  0.00  0.00     0.001 A 
HETATM   30  C   UNK N   1      29.815  18.289   9.437  0.00  0.00     0.000 A 
HETATM   31  C   UNK N   1      28.425  18.312   9.313  0.00  0.00     0.001 A 
HETATM   32  C   UNK N   1      27.813  17.639   8.254  0.00  0.00     0.007 A 
ENDBRANCH  26  27
ENDBRANCH   1  26
BRANCH   3  33
HETATM   33  O   UNK N   1      28.133  13.210   5.262  0.00  0.00    -0.391 OA
HETATM   34  H   UNK N   1      28.934  12.787   5.609  0.00  0.00     0.210 HD
ENDBRANCH   3  33
BRANCH   7  35
HETATM   35  C   UNK N   1      32.552  15.319   2.787  0.00  0.00     0.166 C 
BRANCH  35  36
HETATM   36  C   UNK N   1      33.795  15.037   3.629  0.00  0.00    -0.039 A 
HETATM   37  C   UNK N   1      34.782  14.186   3.119  0.00  0.00     0.009 A 
HETATM   38  C   UNK N   1      35.802  13.704   3.956  0.00  0.00     0.002 A 
HETATM   39  C   UNK N   1      35.778  13.989   5.329  0.00  0.00     0.017 A 
HETATM   40  C   UNK N   1      34.798  14.848   5.842  0.00  0.00     0.033 A 
HETATM   41  C   UNK N   1      33.855  15.388   4.977  0.00  0.00     0.026 A 
BRANCH  40  42
HETATM   42  C   UNK N   1      34.565  14.989   7.296  0.00  0.00     0.257 C 
HETATM   43  N   UNK N   1      35.546  14.628   8.168  0.00  0.00    -0.303 N 
HETATM   44  H   UNK N   1      36.273  14.053   7.835  0.00  0.00     0.171 HD
HETATM   45  O   UNK N   1      33.539  15.517   7.702  0.00  0.00    -0.267 OA
BRANCH  43  46
HETATM   46  C   UNK N   1      35.580  15.031   9.525  0.00  0.00     0.151 A 
HETATM   47  N   UNK N   1      35.216  16.258   9.967  0.00  0.00    -0.346 N 
HETATM   48  C   UNK N   1      35.475  16.421  11.313  0.00  0.00     0.097 A 
ATOM     49  HN  UNK N   1      34.799  16.975   9.375  1.00  0.00     0.167 HD
HETATM   50  C   UNK N   1      36.063  15.312  11.951  0.00  0.00     0.070 A 
HETATM   51  S   UNK N   1      36.235  14.171  10.758  0.00  0.00    -0.064 SA
ENDBRANCH  43  46
ENDBRANCH  40  42
ENDBRANCH  35  36
ENDBRANCH   7  35
BRANCH   4  52
HETATM   52  O   UNK N   1      28.639  12.726   2.700  0.00  0.00    -0.391 OA
HETATM   53  H   UNK N   1      28.035  12.394   2.019  0.00  0.00     0.210 HD
ENDBRANCH   4  52
BRANCH   2  54
HETATM   54  C   UNK N   1      31.337  12.850   2.811  0.00  0.00     0.066 C 
BRANCH  54  55
HETATM   55  C   UNK N   1      32.191  11.944   3.667  0.00  0.00    -0.056 A 
HETATM   56  C   UNK N   1      33.008  11.002   3.040  0.00  0.00     0.007 A 
HETATM   57  C   UNK N   1      33.855  10.189   3.801  0.00  0.00     0.001 A 
HETATM   58  C   UNK N   1      33.900  10.325   5.192  0.00  0.00     0.000 A 
HETATM   59  C   UNK N   1      33.088  11.264   5.827  0.00  0.00     0.001 A 
HETATM   60  C   UNK N   1      32.239  12.066   5.069  0.00  0.00     0.007 A 
ENDBRANCH  54  55
ENDBRANCH   2  54
TORSDOF 14
ENDMDL
MODEL 5
REMARK VINA RESULT:      -8.0      3.901      7.799
REMARK  14 active torsions:
REMARK  status: ('A' for Active; 'I' for Inactive)
REMARK    1  A    between atoms: C_27  and  C_23 
REMARK    2  A    between atoms: C_33  and  C_23 
REMARK    3  A    between atoms: C_28  and  C_24 
REMARK    4  A    between atoms: C_34  and  C_24 
REMARK    5  A    between atoms: C_29  and  C_25 
REMARK    6  A    between atoms: N_48  and  C_25 
REMARK    7  A    between atoms: C_30  and  C_26 
REMARK    8  A    between atoms: N_49  and  C_26 
REMARK    9  A    between atoms: C_37  and  C_31 
REMARK   10  A    between atoms: C_38  and  C_32 
REMARK   11  A    between atoms: C_35  and  O_50 
REMARK   12  A    between atoms: C_36  and  O_51 
REMARK       I    between atoms: N_46  and  C_37 
REMARK       I    between atoms: N_47  and  C_38 
REMARK   13  A    between atoms: N_46  and  C_39 
REMARK   14  A    between atoms: N_47  and  C_40 
ROOT
HETATM    1  C   UNK N   1      20.606  15.552   5.275  0.00  0.00     0.124 C 
HETATM    2  C   UNK N   1      21.731  15.112   2.680  0.00  0.00     0.124 C 
HETATM    3  C   UNK N   1      19.748  15.936   4.057  0.00  0.00     0.172 C 
HETATM    4  C   UNK N   1      20.637  16.216   2.829  0.00  0.00     0.172 C 
HETATM    5  C   UNK N   1      22.972  15.892   4.727  0.00  0.00     0.322 C 
HETATM    6  N   UNK N   1      21.837  16.331   5.324  0.00  0.00    -0.322 N 
HETATM    7  N   UNK N   1      22.978  15.402   3.429  0.00  0.00    -0.322 N 
HETATM    8  O   UNK N   1      24.035  16.127   5.293  0.00  0.00    -0.247 OA
ENDROOT
BRANCH   6   9
HETATM    9  C   UNK N   1      21.876  17.742   5.680  0.00  0.00     0.166 C 
BRANCH   9  10
HETATM   10  C   UNK N   1      22.404  18.681   4.677  0.00  0.00    -0.039 A 
HETATM   11  C   UNK N   1      21.631  19.437   3.782  0.00  0.00     0.009 A 
HETATM   12  C   UNK N   1      22.261  20.320   2.893  0.00  0.00     0.002 A 
HETATM   13  C   UNK N   1      23.660  20.387   2.865  0.00  0.00     0.017 A 
HETATM   14  C   UNK N   1      24.398  19.560   3.726  0.00  0.00     0.033 A 
HETATM   15  C   UNK N   1      23.757  18.735   4.614  0.00  0.00     0.026 A 
BRANCH  14  16
HETATM   16  C   UNK N   1      25.819  19.347   3.577  0.00  0.00     0.257 C 
HETATM   17  N   UNK N   1      26.352  18.125   3.774  0.00  0.00    -0.303 N 
HETATM   18  H   UNK N   1      25.768  17.332   3.746  0.00  0.00     0.171 HD
HETATM   19  O   UNK N   1      26.540  20.327   3.437  0.00  0.00    -0.267 OA
BRANCH  17  20
HETATM   20  C   UNK N   1      27.729  17.963   4.020  0.00  0.00     0.151 A 
HETATM   21  N   UNK N   1      28.384  18.534   5.061  0.00  0.00    -0.346 N 
HETATM   22  C   UNK N   1      29.596  17.939   5.304  0.00  0.00     0.097 A 
ATOM     23  HN  UNK N   1      28.018  19.318   5.601  1.00  0.00     0.167 HD
HETATM   24  C   UNK N   1      29.900  16.850   4.466  0.00  0.00     0.070 A 
HETATM   25  S   UNK N   1      28.608  16.717   3.438  0.00  0.00    -0.064 SA
ENDBRANCH  17  20
ENDBRANCH  14  16
ENDBRANCH   9  10
ENDBRANCH   6   9
BRANCH   1  26
HETATM   26  C   UNK N   1      19.934  15.547   6.667  0.00  0.00     0.066 C 
BRANCH  26  27
HETATM   27  C   UNK N   1      20.444  14.557   7.657  0.00  0.00    -0.056 A 
HETATM   28  C   UNK N   1      20.313  14.765   9.034  0.00  0.00     0.007 A 
HETATM   29  C   UNK N   1      20.841  13.832   9.931  0.00  0.00     0.001 A 
HETATM   30  C   UNK N   1      21.484  12.686   9.454  0.00  0.00     0.000 A 
HETATM   31  C   UNK N   1      21.590  12.465   8.079  0.00  0.00     0.001 A 
HETATM   32  C   UNK N   1      21.069  13.400   7.185  0.00  0.00     0.007 A 
ENDBRANCH  26  27
ENDBRANCH   1  26
BRANCH   3  33
HETATM   33  O   UNK N   1      18.880  14.880   3.767  0.00  0.00    -0.391 OA
HETATM   34  H   UNK N   1      18.147  14.977   3.139  0.00  0.00     0.210 HD
ENDBRANCH   3  33
BRANCH   7  35
HETATM   35  C   UNK N   1      24.254  15.217   2.716  0.00  0.00     0.166 C 
BRANCH  35  36
HETATM   36  C   UNK N   1      24.964  13.872   2.867  0.00  0.00    -0.039 A 
HETATM   37  C   UNK N   1      26.016  13.558   1.998  0.00  0.00     0.009 A 
HETATM   38  C   UNK N   1      26.514  12.247   1.937  0.00  0.00     0.002 A 
HETATM   39  C   UNK N   1      25.894  11.224   2.667  0.00  0.00     0.017 A 
HETATM   40  C   UNK N   1      24.847  11.533   3.544  0.00  0.00     0.033 A 
HETATM   41  C   UNK N   1      24.433  12.855   3.659  0.00  0.00     0.026 A 
BRANCH  40  42
HETATM   42  C   UNK N   1      23.994  10.485   4.145  0.00  0.00     0.257 C 
HETATM   43  N   UNK N   1      22.867  10.845   4.818  0.00  0.00    -0.303 N 
HETATM   44  H   UNK N   1      22.779  11.782   5.106  0.00  0.00     0.171 HD
HETATM   45  O   UNK N   1      24.251   9.304   3.954  0.00  0.00    -0.267 OA
BRANCH  43  46
HETATM   46  C   UNK N   1      21.814   9.949   5.125  0.00  0.00     0.151 A 
HETATM   47  N   UNK N   1      21.992   8.656   5.488  0.00  0.00    -0.346 N 
HETATM   48  C   UNK N   1      20.794   7.980   5.599  0.00  0.00     0.097 A 
ATOM     49  HN  UNK N   1      22.903   8.234   5.659  1.00  0.00     0.167 HD
HETATM   50  C   UNK N   1      19.645   8.742   5.311  0.00  0.00     0.070 A 
HETATM   51  S   UNK N   1      20.216  10.249   4.917  0.00  0.00    -0.064 SA
ENDBRANCH  43  46
ENDBRANCH  40  42
ENDBRANCH  35  36
ENDBRANCH   7  35
BRANCH   4  52
HETATM   52  O   UNK N   1      19.796  16.293   1.713  0.00  0.00    -0.391 OA
HETATM   53  H   UNK N   1      19.125  16.896   1.359  0.00  0.00     0.210 HD
ENDBRANCH   4  52
BRANCH   2  54
HETATM   54  C   UNK N   1      22.001  14.821   1.187  0.00  0.00     0.066 C 
BRANCH  54  55
HETATM   55  C   UNK N   1      22.291  13.374   0.866  0.00  0.00    -0.056 A 
HETATM   56  C   UNK N   1      21.539  12.382   1.499  0.00  0.00     0.007 A 
HETATM   57  C   UNK N   1      21.741  11.035   1.179  0.00  0.00     0.001 A 
HETATM   58  C   UNK N   1      22.687  10.675   0.214  0.00  0.00     0.000 A 
HETATM   59  C   UNK N   1      23.442  11.658  -0.424  0.00  0.00     0.001 A 
HETATM   60  C   UNK N   1      23.246  12.997  -0.098  0.00  0.00     0.007 A 
ENDBRANCH  54  55
ENDBRANCH   2  54
TORSDOF 14
ENDMDL
MODEL 6
REMARK VINA RESULT:      -8.0      5.575     11.229
REMARK  14 active torsions:
REMARK  status: ('A' for Active; 'I' for Inactive)
REMARK    1  A    between atoms: C_27  and  C_23 
REMARK    2  A    between atoms: C_33  and  C_23 
REMARK    3  A    between atoms: C_28  and  C_24 
REMARK    4  A    between atoms: C_34  and  C_24 
REMARK    5  A    between atoms: C_29  and  C_25 
REMARK    6  A    between atoms: N_48  and  C_25 
REMARK    7  A    between atoms: C_30  and  C_26 
REMARK    8  A    between atoms: N_49  and  C_26 
REMARK    9  A    between atoms: C_37  and  C_31 
REMARK   10  A    between atoms: C_38  and  C_32 
REMARK   11  A    between atoms: C_35  and  O_50 
REMARK   12  A    between atoms: C_36  and  O_51 
REMARK       I    between atoms: N_46  and  C_37 
REMARK       I    between atoms: N_47  and  C_38 
REMARK   13  A    between atoms: N_46  and  C_39 
REMARK   14  A    between atoms: N_47  and  C_40 
ROOT
HETATM    1  C   UNK N   1      34.697  13.187  10.613  0.00  0.00     0.124 C 
HETATM    2  C   UNK N   1      34.790  15.283   8.666  0.00  0.00     0.124 C 
HETATM    3  C   UNK N   1      34.585  14.634  11.124  0.00  0.00     0.172 C 
HETATM    4  C   UNK N   1      35.228  15.617  10.127  0.00  0.00     0.172 C 
HETATM    5  C   UNK N   1      36.128  13.151   8.621  0.00  0.00     0.322 C 
HETATM    6  N   UNK N   1      35.977  12.954   9.954  0.00  0.00    -0.322 N 
HETATM    7  N   UNK N   1      35.669  14.298   7.989  0.00  0.00    -0.322 N 
HETATM    8  O   UNK N   1      36.864  12.377   8.017  0.00  0.00    -0.247 OA
ENDROOT
BRANCH   6   9
HETATM    9  C   UNK N   1      37.237  12.851  10.673  0.00  0.00     0.166 C 
BRANCH   9  10
HETATM   10  C   UNK N   1      37.524  11.582  11.362  0.00  0.00    -0.039 A 
HETATM   11  C   UNK N   1      37.989  10.408  10.749  0.00  0.00     0.009 A 
HETATM   12  C   UNK N   1      38.250   9.272  11.528  0.00  0.00     0.002 A 
HETATM   13  C   UNK N   1      37.981   9.304  12.903  0.00  0.00     0.017 A 
HETATM   14  C   UNK N   1      37.447  10.473  13.465  0.00  0.00     0.033 A 
HETATM   15  C   UNK N   1      37.238  11.584  12.688  0.00  0.00     0.026 A 
BRANCH  14  16
HETATM   16  C   UNK N   1      36.875  10.514  14.791  0.00  0.00     0.257 C 
HETATM   17  N   UNK N   1      35.692  11.122  15.008  0.00  0.00    -0.303 N 
HETATM   18  H   UNK N   1      35.089  11.293  14.248  0.00  0.00     0.171 HD
HETATM   19  O   UNK N   1      37.564  10.135  15.730  0.00  0.00    -0.267 OA
BRANCH  17  20
HETATM   20  C   UNK N   1      35.304  11.516  16.303  0.00  0.00     0.151 A 
HETATM   21  N   UNK N   1      35.344  10.701  17.386  0.00  0.00    -0.346 N 
HETATM   22  C   UNK N   1      35.286  11.399  18.566  0.00  0.00     0.097 A 
ATOM     23  HN  UNK N   1      35.409   9.685  17.330  1.00  0.00     0.167 HD
HETATM   24  C   UNK N   1      35.234  12.798  18.425  0.00  0.00     0.070 A 
HETATM   25  S   UNK N   1      35.242  13.072  16.790  0.00  0.00    -0.064 SA
ENDBRANCH  17  20
ENDBRANCH  14  16
ENDBRANCH   9  10
ENDBRANCH   6   9
BRANCH   1  26
HETATM   26  C   UNK N   1      34.403  12.038  11.604  0.00  0.00     0.066 C 
BRANCH  26  27
HETATM   27  C   UNK N   1      33.979  10.735  11.019  0.00  0.00    -0.056 A 
HETATM   28  C   UNK N   1      34.349   9.517  11.600  0.00  0.00     0.007 A 
HETATM   29  C   UNK N   1      33.966   8.316  10.997  0.00  0.00     0.001 A 
HETATM   30  C   UNK N   1      33.202   8.330   9.826  0.00  0.00     0.000 A 
HETATM   31  C   UNK N   1      32.810   9.546   9.262  0.00  0.00     0.001 A 
HETATM   32  C   UNK N   1      33.198  10.745   9.861  0.00  0.00     0.007 A 
ENDBRANCH  26  27
ENDBRANCH   1  26
BRANCH   3  33
HETATM   33  O   UNK N   1      33.232  14.952  11.278  0.00  0.00    -0.391 OA
HETATM   34  H   UNK N   1      32.651  15.098  10.515  0.00  0.00     0.210 HD
ENDBRANCH   3  33
BRANCH   7  35
HETATM   35  C   UNK N   1      36.107  14.610   6.618  0.00  0.00     0.166 C 
BRANCH  35  36
HETATM   36  C   UNK N   1      35.387  13.913   5.465  0.00  0.00    -0.039 A 
HETATM   37  C   UNK N   1      36.086  13.667   4.278  0.00  0.00     0.009 A 
HETATM   38  C   UNK N   1      35.397  13.268   3.121  0.00  0.00     0.002 A 
HETATM   39  C   UNK N   1      33.996  13.216   3.121  0.00  0.00     0.017 A 
HETATM   40  C   UNK N   1      33.292  13.453   4.308  0.00  0.00     0.033 A 
HETATM   41  C   UNK N   1      34.002  13.753   5.464  0.00  0.00     0.026 A 
BRANCH  40  42
HETATM   42  C   UNK N   1      31.828  13.660   4.321  0.00  0.00     0.257 C 
HETATM   43  N   UNK N   1      31.228  14.265   3.260  0.00  0.00    -0.303 N 
HETATM   44  H   UNK N   1      31.795  14.774   2.636  0.00  0.00     0.171 HD
HETATM   45  O   UNK N   1      31.154  13.201   5.235  0.00  0.00    -0.267 OA
BRANCH  43  46
HETATM   46  C   UNK N   1      29.837  14.206   3.003  0.00  0.00     0.151 A 
HETATM   47  N   UNK N   1      29.142  13.058   2.815  0.00  0.00    -0.346 N 
HETATM   48  C   UNK N   1      27.833  13.299   2.451  0.00  0.00     0.097 A 
ATOM     49  HN  UNK N   1      29.541  12.127   2.930  1.00  0.00     0.167 HD
HETATM   50  C   UNK N   1      27.481  14.658   2.338  0.00  0.00     0.070 A 
HETATM   51  S   UNK N   1      28.868  15.493   2.700  0.00  0.00    -0.064 SA
ENDBRANCH  43  46
ENDBRANCH  40  42
ENDBRANCH  35  36
ENDBRANCH   7  35
BRANCH   4  52
HETATM   52  O   UNK N   1      34.858  16.910  10.517  0.00  0.00    -0.391 OA
HETATM   53  H   UNK N   1      34.578  17.364  11.325  0.00  0.00     0.210 HD
ENDBRANCH   4  52
BRANCH   2  54
HETATM   54  C   UNK N   1      34.628  16.581   7.843  0.00  0.00     0.066 C 
BRANCH  54  55
HETATM   55  C   UNK N   1      33.294  16.730   7.151  0.00  0.00    -0.056 A 
HETATM   56  C   UNK N   1      33.265  17.231   5.848  0.00  0.00     0.007 A 
HETATM   57  C   UNK N   1      32.052  17.325   5.158  0.00  0.00     0.001 A 
HETATM   58  C   UNK N   1      30.863  16.904   5.762  0.00  0.00     0.000 A 
HETATM   59  C   UNK N   1      30.882  16.402   7.062  0.00  0.00     0.001 A 
HETATM   60  C   UNK N   1      32.089  16.317   7.751  0.00  0.00     0.007 A 
ENDBRANCH  54  55
ENDBRANCH   2  54
TORSDOF 14
ENDMDL
MODEL 7
REMARK VINA RESULT:      -8.0      2.917      5.464
REMARK  14 active torsions:
REMARK  status: ('A' for Active; 'I' for Inactive)
REMARK    1  A    between atoms: C_27  and  C_23 
REMARK    2  A    between atoms: C_33  and  C_23 
REMARK    3  A    between atoms: C_28  and  C_24 
REMARK    4  A    between atoms: C_34  and  C_24 
REMARK    5  A    between atoms: C_29  and  C_25 
REMARK    6  A    between atoms: N_48  and  C_25 
REMARK    7  A    between atoms: C_30  and  C_26 
REMARK    8  A    between atoms: N_49  and  C_26 
REMARK    9  A    between atoms: C_37  and  C_31 
REMARK   10  A    between atoms: C_38  and  C_32 
REMARK   11  A    between atoms: C_35  and  O_50 
REMARK   12  A    between atoms: C_36  and  O_51 
REMARK       I    between atoms: N_46  and  C_37 
REMARK       I    between atoms: N_47  and  C_38 
REMARK   13  A    between atoms: N_46  and  C_39 
REMARK   14  A    between atoms: N_47  and  C_40 
ROOT
HETATM    1  C   UNK N   1      27.613  16.657   5.170  0.00  0.00     0.124 C 
HETATM    2  C   UNK N   1      24.958  17.036   4.169  0.00  0.00     0.124 C 
HETATM    3  C   UNK N   1      27.144  18.104   4.936  0.00  0.00     0.172 C 
HETATM    4  C   UNK N   1      26.016  18.150   3.887  0.00  0.00     0.172 C 
HETATM    5  C   UNK N   1      26.544  15.193   3.519  0.00  0.00     0.322 C 
HETATM    6  N   UNK N   1      27.628  15.896   3.927  0.00  0.00    -0.322 N 
HETATM    7  N   UNK N   1      25.269  15.739   3.520  0.00  0.00    -0.322 N 
HETATM    8  O   UNK N   1      26.746  14.122   2.955  0.00  0.00    -0.247 OA
ENDROOT
BRANCH   6   9
HETATM    9  C   UNK N   1      28.618  16.099   2.880  0.00  0.00     0.166 C 
BRANCH   9  10
HETATM   10  C   UNK N   1      29.874  15.338   2.975  0.00  0.00    -0.039 A 
HETATM   11  C   UNK N   1      30.049  14.002   2.583  0.00  0.00     0.009 A 
HETATM   12  C   UNK N   1      31.311  13.402   2.701  0.00  0.00     0.002 A 
HETATM   13  C   UNK N   1      32.367  14.125   3.271  0.00  0.00     0.017 A 
HETATM   14  C   UNK N   1      32.131  15.434   3.719  0.00  0.00     0.033 A 
HETATM   15  C   UNK N   1      30.898  16.012   3.555  0.00  0.00     0.026 A 
BRANCH  14  16
HETATM   16  C   UNK N   1      33.057  16.149   4.566  0.00  0.00     0.257 C 
HETATM   17  N   UNK N   1      33.449  15.627   5.745  0.00  0.00    -0.303 N 
HETATM   18  H   UNK N   1      33.336  14.662   5.908  0.00  0.00     0.171 HD
HETATM   19  O   UNK N   1      33.340  17.303   4.270  0.00  0.00    -0.267 OA
BRANCH  17  20
HETATM   20  C   UNK N   1      34.018  16.437   6.746  0.00  0.00     0.151 A 
HETATM   21  N   UNK N   1      33.820  17.775   6.840  0.00  0.00    -0.346 N 
HETATM   22  C   UNK N   1      34.150  18.265   8.078  0.00  0.00     0.097 A 
ATOM     23  HN  UNK N   1      33.467  18.352   6.077  1.00  0.00     0.167 HD
HETATM   24  C   UNK N   1      34.587  17.298   9.002  0.00  0.00     0.070 A 
HETATM   25  S   UNK N   1      34.549  15.860   8.178  0.00  0.00    -0.064 SA
ENDBRANCH  17  20
ENDBRANCH  14  16
ENDBRANCH   9  10
ENDBRANCH   6   9
BRANCH   1  26
HETATM   26  C   UNK N   1      28.937  16.434   5.937  0.00  0.00     0.066 C 
BRANCH  26  27
HETATM   27  C   UNK N   1      29.062  17.091   7.269  0.00  0.00    -0.056 A 
HETATM   28  C   UNK N   1      28.014  17.072   8.195  0.00  0.00     0.007 A 
HETATM   29  C   UNK N   1      28.156  17.734   9.418  0.00  0.00     0.001 A 
HETATM   30  C   UNK N   1      29.348  18.401   9.721  0.00  0.00     0.000 A 
HETATM   31  C   UNK N   1      30.403  18.397   8.807  0.00  0.00     0.001 A 
HETATM   32  C   UNK N   1      30.258  17.740   7.584  0.00  0.00     0.007 A 
ENDBRANCH  26  27
ENDBRANCH   1  26
BRANCH   3  33
HETATM   33  O   UNK N   1      26.672  18.625   6.144  0.00  0.00    -0.391 OA
HETATM   34  H   UNK N   1      26.164  19.451   6.182  0.00  0.00     0.210 HD
ENDBRANCH   3  33
BRANCH   7  35
HETATM   35  C   UNK N   1      24.176  15.063   2.801  0.00  0.00     0.166 C 
BRANCH  35  36
HETATM   36  C   UNK N   1      23.348  14.034   3.570  0.00  0.00    -0.039 A 
HETATM   37  C   UNK N   1      21.982  13.913   3.287  0.00  0.00     0.009 A 
HETATM   38  C   UNK N   1      21.147  13.173   4.139  0.00  0.00     0.002 A 
HETATM   39  C   UNK N   1      21.655  12.639   5.332  0.00  0.00     0.017 A 
HETATM   40  C   UNK N   1      23.021  12.750   5.616  0.00  0.00     0.033 A 
HETATM   41  C   UNK N   1      23.847  13.406   4.710  0.00  0.00     0.026 A 
BRANCH  40  42
HETATM   42  C   UNK N   1      23.571  12.437   6.953  0.00  0.00     0.257 C 
HETATM   43  N   UNK N   1      23.246  13.228   8.011  0.00  0.00    -0.303 N 
HETATM   44  H   UNK N   1      22.871  14.120   7.825  0.00  0.00     0.171 HD
HETATM   45  O   UNK N   1      24.231  11.420   7.119  0.00  0.00    -0.267 OA
BRANCH  43  46
HETATM   46  C   UNK N   1      23.416  12.843   9.363  0.00  0.00     0.151 A 
HETATM   47  N   UNK N   1      24.616  12.613   9.948  0.00  0.00    -0.346 N 
HETATM   48  C   UNK N   1      24.482  12.124  11.231  0.00  0.00     0.097 A 
ATOM     49  HN  UNK N   1      25.512  12.782   9.492  1.00  0.00     0.167 HD
HETATM   50  C   UNK N   1      23.156  11.952  11.673  0.00  0.00     0.070 A 
HETATM   51  S   UNK N   1      22.211  12.427  10.394  0.00  0.00    -0.064 SA
ENDBRANCH  43  46
ENDBRANCH  40  42
ENDBRANCH  35  36
ENDBRANCH   7  35
BRANCH   4  52
HETATM   52  O   UNK N   1      25.465  19.436   3.921  0.00  0.00    -0.391 OA
HETATM   53  H   UNK N   1      24.592  19.847   3.825  0.00  0.00     0.210 HD
ENDBRANCH   4  52
BRANCH   2  54
HETATM   54  C   UNK N   1      23.541  17.540   3.816  0.00  0.00     0.066 C 
BRANCH  54  55
HETATM   55  C   UNK N   1      22.459  17.114   4.780  0.00  0.00    -0.056 A 
HETATM   56  C   UNK N   1      21.129  17.148   4.356  0.00  0.00     0.007 A 
HETATM   57  C   UNK N   1      20.109  16.704   5.204  0.00  0.00     0.001 A 
HETATM   58  C   UNK N   1      20.416  16.210   6.476  0.00  0.00     0.000 A 
HETATM   59  C   UNK N   1      21.740  16.172   6.909  0.00  0.00     0.001 A 
HETATM   60  C   UNK N   1      22.753  16.622   6.067  0.00  0.00     0.007 A 
ENDBRANCH  54  55
ENDBRANCH   2  54
TORSDOF 14
ENDMDL
MODEL 8
REMARK VINA RESULT:      -7.8     12.128     14.944
REMARK  14 active torsions:
REMARK  status: ('A' for Active; 'I' for Inactive)
REMARK    1  A    between atoms: C_27  and  C_23 
REMARK    2  A    between atoms: C_33  and  C_23 
REMARK    3  A    between atoms: C_28  and  C_24 
REMARK    4  A    between atoms: C_34  and  C_24 
REMARK    5  A    between atoms: C_29  and  C_25 
REMARK    6  A    between atoms: N_48  and  C_25 
REMARK    7  A    between atoms: C_30  and  C_26 
REMARK    8  A    between atoms: N_49  and  C_26 
REMARK    9  A    between atoms: C_37  and  C_31 
REMARK   10  A    between atoms: C_38  and  C_32 
REMARK   11  A    between atoms: C_35  and  O_50 
REMARK   12  A    between atoms: C_36  and  O_51 
REMARK       I    between atoms: N_46  and  C_37 
REMARK       I    between atoms: N_47  and  C_38 
REMARK   13  A    between atoms: N_46  and  C_39 
REMARK   14  A    between atoms: N_47  and  C_40 
ROOT
HETATM    1  C   UNK N   1      31.294  21.616  -4.905  0.00  0.00     0.124 C 
HETATM    2  C   UNK N   1      30.486  24.271  -4.203  0.00  0.00     0.124 C 
HETATM    3  C   UNK N   1      30.890  21.871  -3.442  0.00  0.00     0.172 C 
HETATM    4  C   UNK N   1      31.065  23.358  -3.077  0.00  0.00     0.172 C 
HETATM    5  C   UNK N   1      32.315  23.651  -5.817  0.00  0.00     0.322 C 
HETATM    6  N   UNK N   1      32.455  22.414  -5.281  0.00  0.00    -0.322 N 
HETATM    7  N   UNK N   1      31.465  24.600  -5.268  0.00  0.00    -0.322 N 
HETATM    8  O   UNK N   1      33.114  23.982  -6.687  0.00  0.00    -0.247 OA
ENDROOT
BRANCH   6   9
HETATM    9  C   UNK N   1      33.802  22.134  -4.808  0.00  0.00     0.166 C 
BRANCH   9  10
HETATM   10  C   UNK N   1      34.506  20.986  -5.403  0.00  0.00    -0.039 A 
HETATM   11  C   UNK N   1      35.040  20.940  -6.700  0.00  0.00     0.009 A 
HETATM   12  C   UNK N   1      35.714  19.789  -7.135  0.00  0.00     0.002 A 
HETATM   13  C   UNK N   1      35.788  18.675  -6.289  0.00  0.00     0.017 A 
HETATM   14  C   UNK N   1      35.177  18.735  -5.028  0.00  0.00     0.033 A 
HETATM   15  C   UNK N   1      34.558  19.886  -4.611  0.00  0.00     0.026 A 
BRANCH  14  16
HETATM   16  C   UNK N   1      34.951  17.565  -4.211  0.00  0.00     0.257 C 
HETATM   17  N   UNK N   1      35.871  16.583  -4.154  0.00  0.00    -0.303 N 
HETATM   18  H   UNK N   1      36.797  16.770  -4.433  0.00  0.00     0.171 HD
HETATM   19  O   UNK N   1      33.843  17.412  -3.713  0.00  0.00    -0.267 OA
BRANCH  17  20
HETATM   20  C   UNK N   1      35.532  15.293  -3.701  0.00  0.00     0.151 A 
HETATM   21  N   UNK N   1      34.835  15.050  -2.564  0.00  0.00    -0.346 N 
HETATM   22  C   UNK N   1      34.310  13.782  -2.536  0.00  0.00     0.097 A 
ATOM     23  HN  UNK N   1      34.715  15.731  -1.815  1.00  0.00     0.167 HD
HETATM   24  C   UNK N   1      34.562  13.011  -3.685  0.00  0.00     0.070 A 
HETATM   25  S   UNK N   1      35.466  13.985  -4.675  0.00  0.00    -0.064 SA
ENDBRANCH  17  20
ENDBRANCH  14  16
ENDBRANCH   9  10
ENDBRANCH   6   9
BRANCH   1  26
HETATM   26  C   UNK N   1      31.493  20.154  -5.362  0.00  0.00     0.066 C 
BRANCH  26  27
HETATM   27  C   UNK N   1      31.043  19.812  -6.741  0.00  0.00    -0.056 A 
HETATM   28  C   UNK N   1      29.687  19.804  -7.087  0.00  0.00     0.007 A 
HETATM   29  C   UNK N   1      29.302  19.439  -8.380  0.00  0.00     0.001 A 
HETATM   30  C   UNK N   1      30.270  19.098  -9.330  0.00  0.00     0.000 A 
HETATM   31  C   UNK N   1      31.624  19.133  -8.993  0.00  0.00     0.001 A 
HETATM   32  C   UNK N   1      32.007  19.491  -7.700  0.00  0.00     0.007 A 
ENDBRANCH  26  27
ENDBRANCH   1  26
BRANCH   3  33
HETATM   33  O   UNK N   1      29.549  21.510  -3.276  0.00  0.00    -0.391 OA
HETATM   34  H   UNK N   1      28.917  22.088  -2.822  0.00  0.00     0.210 HD
ENDBRANCH   3  33
BRANCH   7  35
HETATM   35  C   UNK N   1      31.560  26.008  -5.690  0.00  0.00     0.166 C 
BRANCH  35  36
HETATM   36  C   UNK N   1      30.463  26.552  -6.605  0.00  0.00    -0.039 A 
HETATM   37  C   UNK N   1      30.212  27.928  -6.619  0.00  0.00     0.009 A 
HETATM   38  C   UNK N   1      29.057  28.429  -7.242  0.00  0.00     0.002 A 
HETATM   39  C   UNK N   1      28.099  27.548  -7.762  0.00  0.00     0.017 A 
HETATM   40  C   UNK N   1      28.350  26.170  -7.758  0.00  0.00     0.033 A 
HETATM   41  C   UNK N   1      29.543  25.704  -7.221  0.00  0.00     0.026 A 
BRANCH  40  42
HETATM   42  C   UNK N   1      27.291  25.181  -8.055  0.00  0.00     0.257 C 
HETATM   43  N   UNK N   1      27.550  23.855  -7.893  0.00  0.00    -0.303 N 
HETATM   44  H   UNK N   1      28.491  23.571  -7.833  0.00  0.00     0.171 HD
HETATM   45  O   UNK N   1      26.165  25.561  -8.348  0.00  0.00    -0.267 OA
BRANCH  43  46
HETATM   46  C   UNK N   1      26.545  22.861  -7.808  0.00  0.00     0.151 A 
HETATM   47  N   UNK N   1      25.572  22.837  -6.865  0.00  0.00    -0.346 N 
HETATM   48  C   UNK N   1      24.811  21.688  -6.937  0.00  0.00     0.097 A 
ATOM     49  HN  UNK N   1      25.421  23.580  -6.185  1.00  0.00     0.167 HD
HETATM   50  C   UNK N   1      25.188  20.779  -7.944  0.00  0.00     0.070 A 
HETATM   51  S   UNK N   1      26.489  21.483  -8.695  0.00  0.00    -0.064 SA
ENDBRANCH  43  46
ENDBRANCH  40  42
ENDBRANCH  35  36
ENDBRANCH   7  35
BRANCH   4  52
HETATM   52  O   UNK N   1      30.437  23.563  -1.843  0.00  0.00    -0.391 OA
HETATM   53  H   UNK N   1      30.580  24.090  -1.042  0.00  0.00     0.210 HD
ENDBRANCH   4  52
BRANCH   2  54
HETATM   54  C   UNK N   1      29.844  25.537  -3.591  0.00  0.00     0.066 C 
BRANCH  54  55
HETATM   55  C   UNK N   1      28.395  25.754  -3.961  0.00  0.00    -0.056 A 
HETATM   56  C   UNK N   1      27.580  24.640  -4.163  0.00  0.00     0.007 A 
HETATM   57  C   UNK N   1      26.220  24.806  -4.447  0.00  0.00     0.001 A 
HETATM   58  C   UNK N   1      25.667  26.088  -4.518  0.00  0.00     0.000 A 
HETATM   59  C   UNK N   1      26.473  27.208  -4.318  0.00  0.00     0.001 A 
HETATM   60  C   UNK N   1      27.828  27.040  -4.043  0.00  0.00     0.007 A 
ENDBRANCH  54  55
ENDBRANCH   2  54
TORSDOF 14
ENDMDL
MODEL 9
REMARK VINA RESULT:      -7.8      2.637      4.659
REMARK  14 active torsions:
REMARK  status: ('A' for Active; 'I' for Inactive)
REMARK    1  A    between atoms: C_27  and  C_23 
REMARK    2  A    between atoms: C_33  and  C_23 
REMARK    3  A    between atoms: C_28  and  C_24 
REMARK    4  A    between atoms: C_34  and  C_24 
REMARK    5  A    between atoms: C_29  and  C_25 
REMARK    6  A    between atoms: N_48  and  C_25 
REMARK    7  A    between atoms: C_30  and  C_26 
REMARK    8  A    between atoms: N_49  and  C_26 
REMARK    9  A    between atoms: C_37  and  C_31 
REMARK   10  A    between atoms: C_38  and  C_32 
REMARK   11  A    between atoms: C_35  and  O_50 
REMARK   12  A    between atoms: C_36  and  O_51 
REMARK       I    between atoms: N_46  and  C_37 
REMARK       I    between atoms: N_47  and  C_38 
REMARK   13  A    between atoms: N_46  and  C_39 
REMARK   14  A    between atoms: N_47  and  C_40 
ROOT
HETATM    1  C   UNK N   1      26.922  15.888   3.540  0.00  0.00     0.124 C 
HETATM    2  C   UNK N   1      24.662  16.181   5.271  0.00  0.00     0.124 C 
HETATM    3  C   UNK N   1      27.009  15.241   4.933  0.00  0.00     0.172 C 
HETATM    4  C   UNK N   1      26.061  15.947   5.923  0.00  0.00     0.172 C 
HETATM    5  C   UNK N   1      25.555  17.919   3.684  0.00  0.00     0.322 C 
HETATM    6  N   UNK N   1      26.777  17.335   3.634  0.00  0.00    -0.322 N 
HETATM    7  N   UNK N   1      24.555  17.462   4.530  0.00  0.00    -0.322 N 
HETATM    8  O   UNK N   1      25.419  18.993   3.107  0.00  0.00    -0.247 OA
ENDROOT
BRANCH   6   9
HETATM    9  C   UNK N   1      27.862  18.221   4.033  0.00  0.00     0.166 C 
BRANCH   9  10
HETATM   10  C   UNK N   1      28.048  18.462   5.473  0.00  0.00    -0.039 A 
HETATM   11  C   UNK N   1      27.357  19.415   6.236  0.00  0.00     0.009 A 
HETATM   12  C   UNK N   1      27.611  19.523   7.611  0.00  0.00     0.002 A 
HETATM   13  C   UNK N   1      28.601  18.721   8.192  0.00  0.00     0.017 A 
HETATM   14  C   UNK N   1      29.321  17.832   7.380  0.00  0.00     0.033 A 
HETATM   15  C   UNK N   1      29.026  17.717   6.046  0.00  0.00     0.026 A 
BRANCH  14  16
HETATM   16  C   UNK N   1      30.535  17.181   7.817  0.00  0.00     0.257 C 
HETATM   17  N   UNK N   1      31.499  17.882   8.446  0.00  0.00    -0.303 N 
HETATM   18  H   UNK N   1      31.278  18.751   8.853  0.00  0.00     0.171 HD
HETATM   19  O   UNK N   1      30.736  16.029   7.455  0.00  0.00    -0.267 OA
BRANCH  17  20
HETATM   20  C   UNK N   1      32.816  17.392   8.531  0.00  0.00     0.151 A 
HETATM   21  N   UNK N   1      33.204  16.409   9.382  0.00  0.00    -0.346 N 
HETATM   22  C   UNK N   1      34.406  15.854   9.023  0.00  0.00     0.097 A 
ATOM     23  HN  UNK N   1      32.664  16.117  10.196  1.00  0.00     0.167 HD
HETATM   24  C   UNK N   1      34.973  16.377   7.846  0.00  0.00     0.070 A 
HETATM   25  S   UNK N   1      33.914  17.543   7.333  0.00  0.00    -0.064 SA
ENDBRANCH  17  20
ENDBRANCH  14  16
ENDBRANCH   9  10
ENDBRANCH   6   9
BRANCH   1  26
HETATM   26  C   UNK N   1      28.015  15.538   2.504  0.00  0.00     0.066 C 
BRANCH  26  27
HETATM   27  C   UNK N   1      29.419  15.482   2.999  0.00  0.00    -0.056 A 
HETATM   28  C   UNK N   1      29.884  14.404   3.760  0.00  0.00     0.007 A 
HETATM   29  C   UNK N   1      31.197  14.409   4.241  0.00  0.00     0.001 A 
HETATM   30  C   UNK N   1      32.047  15.480   3.950  0.00  0.00     0.000 A 
HETATM   31  C   UNK N   1      31.591  16.543   3.167  0.00  0.00     0.001 A 
HETATM   32  C   UNK N   1      30.279  16.540   2.693  0.00  0.00     0.007 A 
ENDBRANCH  26  27
ENDBRANCH   1  26
BRANCH   3  33
HETATM   33  O   UNK N   1      26.646  13.895   4.828  0.00  0.00    -0.391 OA
HETATM   34  H   UNK N   1      25.749  13.625   4.576  0.00  0.00     0.210 HD
ENDBRANCH   3  33
BRANCH   7  35
HETATM   35  C   UNK N   1      23.360  18.288   4.774  0.00  0.00     0.166 C 
BRANCH  35  36
HETATM   36  C   UNK N   1      22.218  18.202   3.764  0.00  0.00    -0.039 A 
HETATM   37  C   UNK N   1      21.198  19.160   3.809  0.00  0.00     0.009 A 
HETATM   38  C   UNK N   1      20.015  18.968   3.077  0.00  0.00     0.002 A 
HETATM   39  C   UNK N   1      19.806  17.769   2.380  0.00  0.00     0.017 A 
HETATM   40  C   UNK N   1      20.826  16.811   2.325  0.00  0.00     0.033 A 
HETATM   41  C   UNK N   1      22.025  17.065   2.979  0.00  0.00     0.026 A 
BRANCH  40  42
HETATM   42  C   UNK N   1      20.586  15.439   1.828  0.00  0.00     0.257 C 
HETATM   43  N   UNK N   1      21.574  14.789   1.156  0.00  0.00    -0.303 N 
HETATM   44  H   UNK N   1      22.318  15.323   0.795  0.00  0.00     0.171 HD
HETATM   45  O   UNK N   1      19.543  14.863   2.107  0.00  0.00    -0.267 OA
BRANCH  43  46
HETATM   46  C   UNK N   1      21.592  13.388   0.945  0.00  0.00     0.151 A 
HETATM   47  N   UNK N   1      20.495  12.641   0.676  0.00  0.00    -0.346 N 
HETATM   48  C   UNK N   1      20.782  11.292   0.648  0.00  0.00     0.097 A 
ATOM     49  HN  UNK N   1      19.568  13.031   0.513  1.00  0.00     0.167 HD
HETATM   50  C   UNK N   1      22.125  10.957   0.908  0.00  0.00     0.070 A 
HETATM   51  S   UNK N   1      22.886  12.408   1.172  0.00  0.00    -0.064 SA
ENDBRANCH  43  46
ENDBRANCH  40  42
ENDBRANCH  35  36
ENDBRANCH   7  35
BRANCH   4  52
HETATM   52  O   UNK N   1      25.992  15.153   7.074  0.00  0.00    -0.391 OA
HETATM   53  H   UNK N   1      25.742  14.246   7.307  0.00  0.00     0.210 HD
ENDBRANCH   4  52
BRANCH   2  54
HETATM   54  C   UNK N   1      23.544  16.024   6.327  0.00  0.00     0.066 C 
BRANCH  54  55
HETATM   55  C   UNK N   1      22.407  15.119   5.915  0.00  0.00    -0.056 A 
HETATM   56  C   UNK N   1      21.103  15.481   6.257  0.00  0.00     0.007 A 
HETATM   57  C   UNK N   1      20.023  14.697   5.839  0.00  0.00     0.001 A 
HETATM   58  C   UNK N   1      20.241  13.554   5.064  0.00  0.00     0.000 A 
HETATM   59  C   UNK N   1      21.539  13.183   4.717  0.00  0.00     0.001 A 
HETATM   60  C   UNK N   1      22.614  13.961   5.141  0.00  0.00     0.007 A 
ENDBRANCH  54  55
ENDBRANCH   2  54
TORSDOF 14
ENDMDL
