MODEL 1
REMARK VINA RESULT:      -9.1      0.000      0.000
REMARK  17 active torsions:
REMARK  status: ('A' for Active; 'I' for Inactive)
REMARK    1  A    between atoms: C_23  and  C_19 
REMARK    2  A    between atoms: O_51  and  C_19 
REMARK    3  A    between atoms: C_24  and  C_20 
REMARK    4  A    between atoms: O_52  and  C_20 
REMARK    5  A    between atoms: C_31  and  N_41 
REMARK    6  A    between atoms: C_32  and  N_43 
REMARK    7  A    between atoms: C_34  and  C_33 
REMARK    8  A    between atoms: C_35  and  C_33 
REMARK    9  A    between atoms: C_33  and  O_47 
REMARK   10  A    between atoms: C_36  and  C_34 
REMARK   11  A    between atoms: C_34  and  O_48 
REMARK   12  A    between atoms: C_37  and  C_35 
REMARK   13  A    between atoms: C_35  and  O_51 
REMARK   14  A    between atoms: C_38  and  C_36 
REMARK   15  A    between atoms: C_36  and  O_52 
REMARK   16  A    between atoms: C_37  and  O_49 
REMARK   17  A    between atoms: C_38  and  O_50 
ROOT
HETATM    1  C   UNK N   1      20.689  12.422  11.253  0.00  0.00     0.001 A 
HETATM    2  C   UNK N   1      20.498  13.332  10.199  0.00  0.00     0.001 A 
HETATM    3  C   UNK N   1      21.977  11.951  11.554  0.00  0.00     0.008 A 
HETATM    4  C   UNK N   1      21.597  13.778   9.449  0.00  0.00     0.010 A 
HETATM    5  C   UNK N   1      24.458  11.978  10.923  0.00  0.00     0.073 C 
HETATM    6  C   UNK N   1      23.054  12.418  10.798  0.00  0.00    -0.047 A 
HETATM    7  C   UNK N   1      22.871  13.310   9.782  0.00  0.00    -0.027 A 
HETATM    8  C   UNK N   1      25.196  12.911   9.941  0.00  0.00     0.149 C 
HETATM    9  C   UNK N   1      24.123  13.620   9.066  0.00  0.00     0.146 C 
HETATM   10  O   UNK N   1      25.878  13.868  10.697  0.00  0.00    -0.393 OA
HETATM   11  H   UNK N   1      26.352  14.585  11.147  0.00  0.00     0.210 HD
ENDROOT
BRANCH   9  12
HETATM   12  N   UNK N   1      24.035  13.005   7.754  0.00  0.00    -0.361 N 
HETATM   13  C   UNK N   1      24.030  13.568   6.587  0.00  0.00     0.144 C 
ATOM     14  HN  UNK N   1      23.966  11.988   7.750  1.00  0.00     0.162 HD
BRANCH  13  15
HETATM   15  C   UNK N   1      24.149  15.075   6.341  0.00  0.00     0.227 C 
BRANCH  15  16
HETATM   16  C   UNK N   1      25.634  15.526   6.239  0.00  0.00     0.186 C 
BRANCH  16  17
HETATM   17  C   UNK N   1      25.934  16.542   5.091  0.00  0.00     0.186 C 
BRANCH  17  18
HETATM   18  C   UNK N   1      27.455  16.870   4.898  0.00  0.00     0.227 C 
BRANCH  18  19
HETATM   19  C   UNK N   1      27.761  18.263   5.438  0.00  0.00     0.144 C 
HETATM   20  N   UNK N   1      28.164  18.477   6.648  0.00  0.00    -0.361 N 
ATOM     21  HN  UNK N   1      28.255  19.452   6.933  1.00  0.00     0.162 HD
BRANCH  20  22
HETATM   22  C   UNK N   1      28.500  17.475   7.642  0.00  0.00     0.146 C 
HETATM   23  C   UNK N   1      29.967  17.312   7.593  0.00  0.00    -0.027 A 
HETATM   24  C   UNK N   1      30.700  16.661   6.600  0.00  0.00     0.010 A 
HETATM   25  C   UNK N   1      30.587  18.017   8.589  0.00  0.00    -0.047 A 
HETATM   26  C   UNK N   1      32.101  16.699   6.665  0.00  0.00     0.001 A 
HETATM   27  C   UNK N   1      32.739  17.411   7.697  0.00  0.00     0.001 A 
HETATM   28  C   UNK N   1      31.978  18.090   8.663  0.00  0.00     0.008 A 
HETATM   29  C   UNK N   1      29.621  18.729   9.458  0.00  0.00     0.073 C 
HETATM   30  C   UNK N   1      28.307  18.023   9.078  0.00  0.00     0.149 C 
HETATM   31  O   UNK N   1      28.163  16.939   9.951  0.00  0.00    -0.393 OA
HETATM   32  H   UNK N   1      28.149  16.295  10.675  0.00  0.00     0.210 HD
ENDBRANCH  20  22
BRANCH  19  33
HETATM   33  O   UNK N   1      27.636  19.322   4.614  0.00  0.00    -0.348 OA
HETATM   34  H   UNK N   1      27.345  19.947   3.978  0.00  0.00     0.219 HD
ENDBRANCH  19  33
ENDBRANCH  18  19
BRANCH  18  35
HETATM   35  O   UNK N   1      27.868  16.936   3.549  0.00  0.00    -0.370 OA
BRANCH  35  36
HETATM   36  C   UNK N   1      28.273  15.702   3.037  0.00  0.00     0.210 C 
BRANCH  36  37
HETATM   37  C   UNK N   1      29.762  15.646   3.142  0.00  0.00     0.004 A 
HETATM   38  C   UNK N   1      30.509  16.792   2.838  0.00  0.00     0.012 A 
HETATM   39  C   UNK N   1      31.904  16.758   2.886  0.00  0.00     0.001 A 
HETATM   40  C   UNK N   1      32.562  15.578   3.237  0.00  0.00     0.003 A 
HETATM   41  C   UNK N   1      31.824  14.431   3.544  0.00  0.00     0.043 A 
HETATM   42  C   UNK N   1      30.427  14.460   3.498  0.00  0.00     0.124 A 
HETATM   43  F   UNK N   1      29.736  13.332   3.788  0.00  0.00    -0.205 F 
ENDBRANCH  36  37
ENDBRANCH  35  36
ENDBRANCH  18  35
ENDBRANCH  17  18
BRANCH  17  44
HETATM   44  O   UNK N   1      25.246  17.718   5.406  0.00  0.00    -0.390 OA
HETATM   45  H   UNK N   1      24.738  17.874   6.219  0.00  0.00     0.210 HD
ENDBRANCH  17  44
ENDBRANCH  16  17
BRANCH  16  46
HETATM   46  O   UNK N   1      26.428  14.387   6.145  0.00  0.00    -0.390 OA
HETATM   47  H   UNK N   1      27.398  14.371   6.120  0.00  0.00     0.210 HD
ENDBRANCH  16  46
ENDBRANCH  15  16
BRANCH  15  48
HETATM   48  O   UNK N   1      23.444  15.377   5.149  0.00  0.00    -0.370 OA
BRANCH  48  49
HETATM   49  C   UNK N   1      22.088  15.616   5.447  0.00  0.00     0.210 C 
BRANCH  49  50
HETATM   50  C   UNK N   1      21.571  16.757   4.632  0.00  0.00     0.004 A 
HETATM   51  C   UNK N   1      20.948  16.484   3.410  0.00  0.00     0.012 A 
HETATM   52  C   UNK N   1      20.460  17.529   2.620  0.00  0.00     0.001 A 
HETATM   53  C   UNK N   1      20.592  18.852   3.049  0.00  0.00     0.003 A 
HETATM   54  C   UNK N   1      21.202  19.131   4.274  0.00  0.00     0.043 A 
HETATM   55  C   UNK N   1      21.691  18.090   5.069  0.00  0.00     0.124 A 
HETATM   56  F   UNK N   1      22.258  18.381   6.264  0.00  0.00    -0.205 F 
ENDBRANCH  49  50
ENDBRANCH  48  49
ENDBRANCH  15  48
ENDBRANCH  13  15
BRANCH  13  57
HETATM   57  O   UNK N   1      23.882  12.766   5.514  0.00  0.00    -0.348 OA
HETATM   58  H   UNK N   1      24.156  12.293   4.753  0.00  0.00     0.219 HD
ENDBRANCH  13  57
ENDBRANCH   9  12
TORSDOF 17
ENDMDL
MODEL 2
REMARK VINA RESULT:      -8.8      1.508      2.368
REMARK  17 active torsions:
REMARK  status: ('A' for Active; 'I' for Inactive)
REMARK    1  A    between atoms: C_23  and  C_19 
REMARK    2  A    between atoms: O_51  and  C_19 
REMARK    3  A    between atoms: C_24  and  C_20 
REMARK    4  A    between atoms: O_52  and  C_20 
REMARK    5  A    between atoms: C_31  and  N_41 
REMARK    6  A    between atoms: C_32  and  N_43 
REMARK    7  A    between atoms: C_34  and  C_33 
REMARK    8  A    between atoms: C_35  and  C_33 
REMARK    9  A    between atoms: C_33  and  O_47 
REMARK   10  A    between atoms: C_36  and  C_34 
REMARK   11  A    between atoms: C_34  and  O_48 
REMARK   12  A    between atoms: C_37  and  C_35 
REMARK   13  A    between atoms: C_35  and  O_51 
REMARK   14  A    between atoms: C_38  and  C_36 
REMARK   15  A    between atoms: C_36  and  O_52 
REMARK   16  A    between atoms: C_37  and  O_49 
REMARK   17  A    between atoms: C_38  and  O_50 
ROOT
HETATM    1  C   UNK N   1      20.755  12.370  11.262  0.00  0.00     0.001 A 
HETATM    2  C   UNK N   1      20.612  13.134  10.090  0.00  0.00     0.001 A 
HETATM    3  C   UNK N   1      22.032  11.969  11.689  0.00  0.00     0.008 A 
HETATM    4  C   UNK N   1      21.744  13.502   9.348  0.00  0.00     0.010 A 
HETATM    5  C   UNK N   1      24.543  11.966  11.194  0.00  0.00     0.073 C 
HETATM    6  C   UNK N   1      23.142  12.357  10.938  0.00  0.00    -0.047 A 
HETATM    7  C   UNK N   1      23.004  13.108   9.807  0.00  0.00    -0.027 A 
HETATM    8  C   UNK N   1      25.322  12.780  10.140  0.00  0.00     0.149 C 
HETATM    9  C   UNK N   1      24.290  13.349   9.126  0.00  0.00     0.146 C 
HETATM   10  O   UNK N   1      25.947  13.840  10.802  0.00  0.00    -0.393 OA
HETATM   11  H   UNK N   1      26.386  14.619  11.180  0.00  0.00     0.210 HD
ENDROOT
BRANCH   9  12
HETATM   12  N   UNK N   1      24.283  12.569   7.901  0.00  0.00    -0.361 N 
HETATM   13  C   UNK N   1      24.176  12.974   6.675  0.00  0.00     0.144 C 
ATOM     14  HN  UNK N   1      24.374  11.560   8.023  1.00  0.00     0.162 HD
BRANCH  13  15
HETATM   15  C   UNK N   1      24.056  14.439   6.244  0.00  0.00     0.227 C 
BRANCH  15  16
HETATM   16  C   UNK N   1      25.429  15.167   6.288  0.00  0.00     0.186 C 
BRANCH  16  17
HETATM   17  C   UNK N   1      25.619  16.276   5.205  0.00  0.00     0.186 C 
BRANCH  17  18
HETATM   18  C   UNK N   1      27.111  16.538   4.800  0.00  0.00     0.227 C 
BRANCH  18  19
HETATM   19  C   UNK N   1      27.523  17.949   5.207  0.00  0.00     0.144 C 
HETATM   20  N   UNK N   1      27.981  18.238   6.381  0.00  0.00    -0.361 N 
ATOM     21  HN  UNK N   1      28.143  19.225   6.577  1.00  0.00     0.162 HD
BRANCH  20  22
HETATM   22  C   UNK N   1      28.290  17.303   7.447  0.00  0.00     0.146 C 
HETATM   23  C   UNK N   1      29.761  17.172   7.475  0.00  0.00    -0.027 A 
HETATM   24  C   UNK N   1      30.552  16.480   6.558  0.00  0.00     0.010 A 
HETATM   25  C   UNK N   1      30.319  17.947   8.455  0.00  0.00    -0.047 A 
HETATM   26  C   UNK N   1      31.948  16.553   6.685  0.00  0.00     0.001 A 
HETATM   27  C   UNK N   1      32.522  17.339   7.701  0.00  0.00     0.001 A 
HETATM   28  C   UNK N   1      31.703  18.057   8.588  0.00  0.00     0.008 A 
HETATM   29  C   UNK N   1      29.299  18.687   9.234  0.00  0.00     0.073 C 
HETATM   30  C   UNK N   1      28.018  17.930   8.837  0.00  0.00     0.149 C 
HETATM   31  O   UNK N   1      27.856  16.896   9.766  0.00  0.00    -0.393 OA
HETATM   32  H   UNK N   1      27.820  16.296  10.526  0.00  0.00     0.210 HD
ENDBRANCH  20  22
BRANCH  19  33
HETATM   33  O   UNK N   1      27.434  18.940   4.298  0.00  0.00    -0.348 OA
HETATM   34  H   UNK N   1      27.381  19.446   3.510  0.00  0.00     0.219 HD
ENDBRANCH  19  33
ENDBRANCH  18  19
BRANCH  18  35
HETATM   35  O   UNK N   1      27.348  16.508   3.407  0.00  0.00    -0.370 OA
BRANCH  35  36
HETATM   36  C   UNK N   1      27.774  15.261   2.949  0.00  0.00     0.210 C 
BRANCH  36  37
HETATM   37  C   UNK N   1      26.566  14.536   2.450  0.00  0.00     0.004 A 
HETATM   38  C   UNK N   1      25.654  15.217   1.633  0.00  0.00     0.012 A 
HETATM   39  C   UNK N   1      24.495  14.579   1.186  0.00  0.00     0.001 A 
HETATM   40  C   UNK N   1      24.239  13.257   1.554  0.00  0.00     0.003 A 
HETATM   41  C   UNK N   1      25.146  12.570   2.367  0.00  0.00     0.043 A 
HETATM   42  C   UNK N   1      26.308  13.204   2.816  0.00  0.00     0.124 A 
HETATM   43  F   UNK N   1      27.164  12.521   3.612  0.00  0.00    -0.205 F 
ENDBRANCH  36  37
ENDBRANCH  35  36
ENDBRANCH  18  35
ENDBRANCH  17  18
BRANCH  17  44
HETATM   44  O   UNK N   1      25.073  17.450   5.734  0.00  0.00    -0.390 OA
HETATM   45  H   UNK N   1      24.195  17.532   6.139  0.00  0.00     0.210 HD
ENDBRANCH  17  44
ENDBRANCH  16  17
BRANCH  16  46
HETATM   46  O   UNK N   1      26.433  14.204   6.226  0.00  0.00    -0.390 OA
HETATM   47  H   UNK N   1      27.268  14.223   6.719  0.00  0.00     0.210 HD
ENDBRANCH  16  46
ENDBRANCH  15  16
BRANCH  15  48
HETATM   48  O   UNK N   1      23.510  14.463   4.936  0.00  0.00    -0.370 OA
BRANCH  48  49
HETATM   49  C   UNK N   1      22.125  14.716   5.004  0.00  0.00     0.210 C 
BRANCH  49  50
HETATM   50  C   UNK N   1      21.860  16.182   4.882  0.00  0.00     0.004 A 
HETATM   51  C   UNK N   1      21.890  16.768   3.613  0.00  0.00     0.012 A 
HETATM   52  C   UNK N   1      21.653  18.138   3.465  0.00  0.00     0.001 A 
HETATM   53  C   UNK N   1      21.383  18.927   4.586  0.00  0.00     0.003 A 
HETATM   54  C   UNK N   1      21.338  18.345   5.855  0.00  0.00     0.043 A 
HETATM   55  C   UNK N   1      21.574  16.975   6.009  0.00  0.00     0.124 A 
HETATM   56  F   UNK N   1      21.503  16.427   7.245  0.00  0.00    -0.205 F 
ENDBRANCH  49  50
ENDBRANCH  48  49
ENDBRANCH  15  48
ENDBRANCH  13  15
BRANCH  13  57
HETATM   57  O   UNK N   1      24.143  12.031   5.712  0.00  0.00    -0.348 OA
HETATM   58  H   UNK N   1      23.891  11.650   4.894  0.00  0.00     0.219 HD
ENDBRANCH  13  57
ENDBRANCH   9  12
TORSDOF 17
ENDMDL
MODEL 3
REMARK VINA RESULT:      -8.6      6.329     10.272
REMARK  17 active torsions:
REMARK  status: ('A' for Active; 'I' for Inactive)
REMARK    1  A    between atoms: C_23  and  C_19 
REMARK    2  A    between atoms: O_51  and  C_19 
REMARK    3  A    between atoms: C_24  and  C_20 
REMARK    4  A    between atoms: O_52  and  C_20 
REMARK    5  A    between atoms: C_31  and  N_41 
REMARK    6  A    between atoms: C_32  and  N_43 
REMARK    7  A    between atoms: C_34  and  C_33 
REMARK    8  A    between atoms: C_35  and  C_33 
REMARK    9  A    between atoms: C_33  and  O_47 
REMARK   10  A    between atoms: C_36  and  C_34 
REMARK   11  A    between atoms: C_34  and  O_48 
REMARK   12  A    between atoms: C_37  and  C_35 
REMARK   13  A    between atoms: C_35  and  O_51 
REMARK   14  A    between atoms: C_38  and  C_36 
REMARK   15  A    between atoms: C_36  and  O_52 
REMARK   16  A    between atoms: C_37  and  O_49 
REMARK   17  A    between atoms: C_38  and  O_50 
ROOT
HETATM    1  C   UNK N   1      28.224  17.580   5.288  0.00  0.00     0.001 A 
HETATM    2  C   UNK N   1      29.608  17.456   5.074  0.00  0.00     0.001 A 
HETATM    3  C   UNK N   1      27.711  17.585   6.595  0.00  0.00     0.008 A 
HETATM    4  C   UNK N   1      30.480  17.345   6.166  0.00  0.00     0.010 A 
HETATM    5  C   UNK N   1      28.237  17.395   9.093  0.00  0.00     0.073 C 
HETATM    6  C   UNK N   1      28.601  17.481   7.664  0.00  0.00    -0.047 A 
HETATM    7  C   UNK N   1      29.946  17.373   7.457  0.00  0.00    -0.027 A 
HETATM    8  C   UNK N   1      29.609  17.427   9.797  0.00  0.00     0.149 C 
HETATM    9  C   UNK N   1      30.702  17.205   8.713  0.00  0.00     0.146 C 
HETATM   10  O   UNK N   1      29.769  18.697  10.356  0.00  0.00    -0.393 OA
HETATM   11  H   UNK N   1      29.970  19.563  10.745  0.00  0.00     0.210 HD
ENDROOT
BRANCH   9  12
HETATM   12  N   UNK N   1      31.192  15.838   8.743  0.00  0.00    -0.361 N 
HETATM   13  C   UNK N   1      32.414  15.409   8.772  0.00  0.00     0.144 C 
ATOM     14  HN  UNK N   1      30.474  15.115   8.740  1.00  0.00     0.162 HD
BRANCH  13  15
HETATM   15  C   UNK N   1      33.656  16.305   8.809  0.00  0.00     0.227 C 
BRANCH  15  16
HETATM   16  C   UNK N   1      34.479  16.095  10.112  0.00  0.00     0.186 C 
BRANCH  16  17
HETATM   17  C   UNK N   1      35.967  15.679   9.888  0.00  0.00     0.186 C 
BRANCH  17  18
HETATM   18  C   UNK N   1      36.224  14.133   9.950  0.00  0.00     0.227 C 
BRANCH  18  19
HETATM   19  C   UNK N   1      37.491  13.846  10.748  0.00  0.00     0.144 C 
HETATM   20  N   UNK N   1      37.479  13.282  11.911  0.00  0.00    -0.361 N 
ATOM     21  HN  UNK N   1      38.374  13.217  12.397  1.00  0.00     0.162 HD
BRANCH  20  22
HETATM   22  C   UNK N   1      36.326  12.732  12.598  0.00  0.00     0.146 C 
HETATM   23  C   UNK N   1      36.753  11.435  13.159  0.00  0.00    -0.027 A 
HETATM   24  C   UNK N   1      36.971  10.252  12.451  0.00  0.00     0.010 A 
HETATM   25  C   UNK N   1      37.068  11.537  14.487  0.00  0.00    -0.047 A 
HETATM   26  C   UNK N   1      37.480   9.141  13.139  0.00  0.00     0.001 A 
HETATM   27  C   UNK N   1      37.790   9.241  14.508  0.00  0.00     0.001 A 
HETATM   28  C   UNK N   1      37.597  10.454  15.189  0.00  0.00     0.008 A 
HETATM   29  C   UNK N   1      36.872  12.912  15.006  0.00  0.00     0.073 C 
HETATM   30  C   UNK N   1      36.010  13.528  13.889  0.00  0.00     0.149 C 
HETATM   31  O   UNK N   1      34.674  13.298  14.236  0.00  0.00    -0.393 OA
HETATM   32  H   UNK N   1      33.808  13.154  14.648  0.00  0.00     0.210 HD
ENDBRANCH  20  22
BRANCH  19  33
HETATM   33  O   UNK N   1      38.685  14.167  10.210  0.00  0.00    -0.348 OA
HETATM   34  H   UNK N   1      39.390  14.378   9.630  0.00  0.00     0.219 HD
ENDBRANCH  19  33
ENDBRANCH  18  19
BRANCH  18  35
HETATM   35  O   UNK N   1      36.475  13.535   8.695  0.00  0.00    -0.370 OA
BRANCH  35  36
HETATM   36  C   UNK N   1      36.609  12.148   8.764  0.00  0.00     0.210 C 
BRANCH  36  37
HETATM   37  C   UNK N   1      35.370  11.553   8.178  0.00  0.00     0.004 A 
HETATM   38  C   UNK N   1      35.196  11.576   6.788  0.00  0.00     0.012 A 
HETATM   39  C   UNK N   1      34.030  11.066   6.215  0.00  0.00     0.001 A 
HETATM   40  C   UNK N   1      33.029  10.530   7.028  0.00  0.00     0.003 A 
HETATM   41  C   UNK N   1      33.197  10.500   8.415  0.00  0.00     0.043 A 
HETATM   42  C   UNK N   1      34.362  11.010   8.994  0.00  0.00     0.124 A 
HETATM   43  F   UNK N   1      34.495  10.980  10.341  0.00  0.00    -0.205 F 
ENDBRANCH  36  37
ENDBRANCH  35  36
ENDBRANCH  18  35
ENDBRANCH  17  18
BRANCH  17  44
HETATM   44  O   UNK N   1      36.715  16.310  10.886  0.00  0.00    -0.390 OA
HETATM   45  H   UNK N   1      37.577  16.738  10.761  0.00  0.00     0.210 HD
ENDBRANCH  17  44
ENDBRANCH  16  17
BRANCH  16  46
HETATM   46  O   UNK N   1      33.798  15.182  10.912  0.00  0.00    -0.390 OA
HETATM   47  H   UNK N   1      33.813  15.155  11.882  0.00  0.00     0.210 HD
ENDBRANCH  16  46
ENDBRANCH  15  16
BRANCH  15  48
HETATM   48  O   UNK N   1      34.436  16.012   7.663  0.00  0.00    -0.370 OA
BRANCH  48  49
HETATM   49  C   UNK N   1      34.143  16.936   6.640  0.00  0.00     0.210 C 
BRANCH  49  50
HETATM   50  C   UNK N   1      33.863  16.219   5.359  0.00  0.00     0.004 A 
HETATM   51  C   UNK N   1      34.087  14.840   5.295  0.00  0.00     0.012 A 
HETATM   52  C   UNK N   1      33.842  14.140   4.111  0.00  0.00     0.001 A 
HETATM   53  C   UNK N   1      33.369  14.817   2.983  0.00  0.00     0.003 A 
HETATM   54  C   UNK N   1      33.132  16.192   3.043  0.00  0.00     0.043 A 
HETATM   55  C   UNK N   1      33.375  16.897   4.226  0.00  0.00     0.124 A 
HETATM   56  F   UNK N   1      33.116  18.225   4.269  0.00  0.00    -0.205 F 
ENDBRANCH  49  50
ENDBRANCH  48  49
ENDBRANCH  15  48
ENDBRANCH  13  15
BRANCH  13  57
HETATM   57  O   UNK N   1      32.602  14.075   8.740  0.00  0.00    -0.348 OA
HETATM   58  H   UNK N   1      32.874  13.240   9.067  0.00  0.00     0.219 HD
ENDBRANCH  13  57
ENDBRANCH   9  12
TORSDOF 17
ENDMDL
MODEL 4
REMARK VINA RESULT:      -8.3      1.166      8.628
REMARK  17 active torsions:
REMARK  status: ('A' for Active; 'I' for Inactive)
REMARK    1  A    between atoms: C_23  and  C_19 
REMARK    2  A    between atoms: O_51  and  C_19 
REMARK    3  A    between atoms: C_24  and  C_20 
REMARK    4  A    between atoms: O_52  and  C_20 
REMARK    5  A    between atoms: C_31  and  N_41 
REMARK    6  A    between atoms: C_32  and  N_43 
REMARK    7  A    between atoms: C_34  and  C_33 
REMARK    8  A    between atoms: C_35  and  C_33 
REMARK    9  A    between atoms: C_33  and  O_47 
REMARK   10  A    between atoms: C_36  and  C_34 
REMARK   11  A    between atoms: C_34  and  O_48 
REMARK   12  A    between atoms: C_37  and  C_35 
REMARK   13  A    between atoms: C_35  and  O_51 
REMARK   14  A    between atoms: C_38  and  C_36 
REMARK   15  A    between atoms: C_36  and  O_52 
REMARK   16  A    between atoms: C_37  and  O_49 
REMARK   17  A    between atoms: C_38  and  O_50 
ROOT
HETATM    1  C   UNK N   1      32.825  17.660   7.608  0.00  0.00     0.001 A 
HETATM    2  C   UNK N   1      32.189  17.034   6.522  0.00  0.00     0.001 A 
HETATM    3  C   UNK N   1      32.064  18.169   8.673  0.00  0.00     0.008 A 
HETATM    4  C   UNK N   1      30.792  16.909   6.503  0.00  0.00     0.010 A 
HETATM    5  C   UNK N   1      29.718  18.559   9.622  0.00  0.00     0.073 C 
HETATM    6  C   UNK N   1      30.676  18.023   8.633  0.00  0.00    -0.047 A 
HETATM    7  C   UNK N   1      30.059  17.405   7.585  0.00  0.00    -0.027 A 
HETATM    8  C   UNK N   1      28.371  17.987   9.134  0.00  0.00     0.149 C 
HETATM    9  C   UNK N   1      28.589  17.418   7.704  0.00  0.00     0.146 C 
HETATM   10  O   UNK N   1      28.017  16.945   9.994  0.00  0.00    -0.393 OA
HETATM   11  H   UNK N   1      27.717  16.189  10.525  0.00  0.00     0.210 HD
ENDROOT
BRANCH   9  12
HETATM   12  N   UNK N   1      28.082  18.334   6.698  0.00  0.00    -0.361 N 
HETATM   13  C   UNK N   1      27.359  18.082   5.653  0.00  0.00     0.144 C 
ATOM     14  HN  UNK N   1      28.331  19.314   6.832  1.00  0.00     0.162 HD
BRANCH  13  15
HETATM   15  C   UNK N   1      26.842  16.694   5.260  0.00  0.00     0.227 C 
BRANCH  15  16
HETATM   16  C   UNK N   1      25.339  16.518   5.617  0.00  0.00     0.186 C 
BRANCH  16  17
HETATM   17  C   UNK N   1      24.661  15.255   4.995  0.00  0.00     0.186 C 
BRANCH  17  18
HETATM   18  C   UNK N   1      23.329  14.822   5.701  0.00  0.00     0.227 C 
BRANCH  18  19
HETATM   19  C   UNK N   1      23.368  13.331   6.020  0.00  0.00     0.144 C 
HETATM   20  N   UNK N   1      23.678  12.869   7.187  0.00  0.00    -0.361 N 
ATOM     21  HN  UNK N   1      23.760  11.855   7.269  1.00  0.00     0.162 HD
BRANCH  20  22
HETATM   22  C   UNK N   1      23.921  13.641   8.391  0.00  0.00     0.146 C 
HETATM   23  C   UNK N   1      22.720  13.486   9.236  0.00  0.00    -0.027 A 
HETATM   24  C   UNK N   1      21.475  14.082   9.032  0.00  0.00     0.010 A 
HETATM   25  C   UNK N   1      22.906  12.544  10.211  0.00  0.00    -0.047 A 
HETATM   26  C   UNK N   1      20.415  13.734   9.882  0.00  0.00     0.001 A 
HETATM   27  C   UNK N   1      20.610  12.776  10.894  0.00  0.00     0.001 A 
HETATM   28  C   UNK N   1      21.863  12.161  11.055  0.00  0.00     0.008 A 
HETATM   29  C   UNK N   1      24.265  11.954  10.170  0.00  0.00     0.073 C 
HETATM   30  C   UNK N   1      25.000  12.971   9.278  0.00  0.00     0.149 C 
HETATM   31  O   UNK N   1      25.539  13.941  10.130  0.00  0.00    -0.393 OA
HETATM   32  H   UNK N   1      25.929  14.476  10.838  0.00  0.00     0.210 HD
ENDBRANCH  20  22
BRANCH  19  33
HETATM   33  O   UNK N   1      23.039  12.450   5.054  0.00  0.00    -0.348 OA
HETATM   34  H   UNK N   1      22.953  11.978   4.249  0.00  0.00     0.219 HD
ENDBRANCH  19  33
ENDBRANCH  18  19
BRANCH  18  35
HETATM   35  O   UNK N   1      22.175  14.962   4.898  0.00  0.00    -0.370 OA
BRANCH  35  36
HETATM   36  C   UNK N   1      21.171  15.719   5.505  0.00  0.00     0.210 C 
BRANCH  36  37
HETATM   37  C   UNK N   1      20.934  16.915   4.641  0.00  0.00     0.004 A 
HETATM   38  C   UNK N   1      20.373  16.735   3.370  0.00  0.00     0.012 A 
HETATM   39  C   UNK N   1      20.179  17.828   2.523  0.00  0.00     0.001 A 
HETATM   40  C   UNK N   1      20.544  19.109   2.942  0.00  0.00     0.003 A 
HETATM   41  C   UNK N   1      21.100  19.297   4.210  0.00  0.00     0.043 A 
HETATM   42  C   UNK N   1      21.298  18.206   5.061  0.00  0.00     0.124 A 
HETATM   43  F   UNK N   1      21.850  18.413   6.280  0.00  0.00    -0.205 F 
ENDBRANCH  36  37
ENDBRANCH  35  36
ENDBRANCH  18  35
ENDBRANCH  17  18
BRANCH  17  44
HETATM   44  O   UNK N   1      25.590  14.214   5.088  0.00  0.00    -0.390 OA
HETATM   45  H   UNK N   1      26.067  13.954   5.892  0.00  0.00     0.210 HD
ENDBRANCH  17  44
ENDBRANCH  16  17
BRANCH  16  46
HETATM   46  O   UNK N   1      24.671  17.689   5.272  0.00  0.00    -0.390 OA
HETATM   47  H   UNK N   1      24.677  18.516   5.778  0.00  0.00     0.210 HD
ENDBRANCH  16  46
ENDBRANCH  15  16
BRANCH  15  48
HETATM   48  O   UNK N   1      27.057  16.529   3.869  0.00  0.00    -0.370 OA
BRANCH  48  49
HETATM   49  C   UNK N   1      28.418  16.256   3.628  0.00  0.00     0.210 C 
BRANCH  49  50
HETATM   50  C   UNK N   1      28.604  14.814   3.280  0.00  0.00     0.004 A 
HETATM   51  C   UNK N   1      28.363  14.402   1.965  0.00  0.00     0.012 A 
HETATM   52  C   UNK N   1      28.521  13.060   1.608  0.00  0.00     0.001 A 
HETATM   53  C   UNK N   1      28.921  12.124   2.565  0.00  0.00     0.003 A 
HETATM   54  C   UNK N   1      29.175  12.530   3.877  0.00  0.00     0.043 A 
HETATM   55  C   UNK N   1      29.020  13.872   4.239  0.00  0.00     0.124 A 
HETATM   56  F   UNK N   1      29.294  14.249   5.511  0.00  0.00    -0.205 F 
ENDBRANCH  49  50
ENDBRANCH  48  49
ENDBRANCH  15  48
ENDBRANCH  13  15
BRANCH  13  57
HETATM   57  O   UNK N   1      27.064  19.115   4.840  0.00  0.00    -0.348 OA
HETATM   58  H   UNK N   1      26.825  19.995   4.624  0.00  0.00     0.219 HD
ENDBRANCH  13  57
ENDBRANCH   9  12
TORSDOF 17
ENDMDL
MODEL 5
REMARK VINA RESULT:      -8.0      6.967     12.355
REMARK  17 active torsions:
REMARK  status: ('A' for Active; 'I' for Inactive)
REMARK    1  A    between atoms: C_23  and  C_19 
REMARK    2  A    between atoms: O_51  and  C_19 
REMARK    3  A    between atoms: C_24  and  C_20 
REMARK    4  A    between atoms: O_52  and  C_20 
REMARK    5  A    between atoms: C_31  and  N_41 
REMARK    6  A    between atoms: C_32  and  N_43 
REMARK    7  A    between atoms: C_34  and  C_33 
REMARK    8  A    between atoms: C_35  and  C_33 
REMARK    9  A    between atoms: C_33  and  O_47 
REMARK   10  A    between atoms: C_36  and  C_34 
REMARK   11  A    between atoms: C_34  and  O_48 
REMARK   12  A    between atoms: C_37  and  C_35 
REMARK   13  A    between atoms: C_35  and  O_51 
REMARK   14  A    between atoms: C_38  and  C_36 
REMARK   15  A    between atoms: C_36  and  O_52 
REMARK   16  A    between atoms: C_37  and  O_49 
REMARK   17  A    between atoms: C_38  and  O_50 
ROOT
HETATM    1  C   UNK N   1      40.005   9.961   7.880  0.00  0.00     0.001 A 
HETATM    2  C   UNK N   1      39.678   9.527   9.177  0.00  0.00     0.001 A 
HETATM    3  C   UNK N   1      39.613  11.237   7.444  0.00  0.00     0.008 A 
HETATM    4  C   UNK N   1      38.967  10.371  10.041  0.00  0.00     0.010 A 
HETATM    5  C   UNK N   1      38.360  13.394   8.018  0.00  0.00     0.073 C 
HETATM    6  C   UNK N   1      38.913  12.060   8.327  0.00  0.00    -0.047 A 
HETATM    7  C   UNK N   1      38.606  11.644   9.590  0.00  0.00    -0.027 A 
HETATM    8  C   UNK N   1      37.820  13.864   9.384  0.00  0.00     0.149 C 
HETATM    9  C   UNK N   1      37.806  12.634  10.336  0.00  0.00     0.146 C 
HETATM   10  O   UNK N   1      38.707  14.821   9.884  0.00  0.00    -0.393 OA
HETATM   11  H   UNK N   1      39.289  15.467  10.315  0.00  0.00     0.210 HD
ENDROOT
BRANCH   9  12
HETATM   12  N   UNK N   1      36.464  12.094  10.466  0.00  0.00    -0.361 N 
HETATM   13  C   UNK N   1      35.394  12.666  10.922  0.00  0.00     0.144 C 
ATOM     14  HN  UNK N   1      36.346  11.130  10.155  1.00  0.00     0.162 HD
BRANCH  13  15
HETATM   15  C   UNK N   1      35.319  14.114  11.419  0.00  0.00     0.227 C 
BRANCH  15  16
HETATM   16  C   UNK N   1      34.360  14.973  10.548  0.00  0.00     0.186 C 
BRANCH  16  17
HETATM   17  C   UNK N   1      34.892  16.398  10.196  0.00  0.00     0.186 C 
BRANCH  17  18
HETATM   18  C   UNK N   1      35.051  16.669   8.659  0.00  0.00     0.227 C 
BRANCH  18  19
HETATM   19  C   UNK N   1      34.289  17.932   8.271  0.00  0.00     0.144 C 
HETATM   20  N   UNK N   1      33.038  17.929   7.947  0.00  0.00    -0.361 N 
ATOM     21  HN  UNK N   1      32.649  18.813   7.619  1.00  0.00     0.162 HD
BRANCH  20  22
HETATM   22  C   UNK N   1      32.129  16.799   8.001  0.00  0.00     0.146 C 
HETATM   23  C   UNK N   1      30.786  17.354   8.261  0.00  0.00    -0.027 A 
HETATM   24  C   UNK N   1      30.317  17.867   9.472  0.00  0.00     0.010 A 
HETATM   25  C   UNK N   1      30.050  17.456   7.113  0.00  0.00    -0.047 A 
HETATM   26  C   UNK N   1      29.043  18.453   9.505  0.00  0.00     0.001 A 
HETATM   27  C   UNK N   1      28.279  18.544   8.327  0.00  0.00     0.001 A 
HETATM   28  C   UNK N   1      28.790  18.055   7.113  0.00  0.00     0.008 A 
HETATM   29  C   UNK N   1      30.788  16.960   5.927  0.00  0.00     0.073 C 
HETATM   30  C   UNK N   1      31.928  16.174   6.598  0.00  0.00     0.149 C 
HETATM   31  O   UNK N   1      31.474  14.860   6.759  0.00  0.00    -0.393 OA
HETATM   32  H   UNK N   1      31.067  13.982   6.717  0.00  0.00     0.210 HD
ENDBRANCH  20  22
BRANCH  19  33
HETATM   33  O   UNK N   1      34.937  19.114   8.292  0.00  0.00    -0.348 OA
HETATM   34  H   UNK N   1      35.177  20.018   8.224  0.00  0.00     0.219 HD
ENDBRANCH  19  33
ENDBRANCH  18  19
BRANCH  18  35
HETATM   35  O   UNK N   1      34.489  15.671   7.833  0.00  0.00    -0.370 OA
BRANCH  35  36
HETATM   36  C   UNK N   1      35.274  15.373   6.718  0.00  0.00     0.210 C 
BRANCH  36  37
HETATM   37  C   UNK N   1      35.216  13.893   6.518  0.00  0.00     0.004 A 
HETATM   38  C   UNK N   1      34.599  13.099   7.494  0.00  0.00     0.012 A 
HETATM   39  C   UNK N   1      34.567  11.710   7.355  0.00  0.00     0.001 A 
HETATM   40  C   UNK N   1      35.150  11.106   6.240  0.00  0.00     0.003 A 
HETATM   41  C   UNK N   1      35.764  11.892   5.261  0.00  0.00     0.043 A 
HETATM   42  C   UNK N   1      35.800  13.283   5.395  0.00  0.00     0.124 A 
HETATM   43  F   UNK N   1      36.411  14.021   4.438  0.00  0.00    -0.205 F 
ENDBRANCH  36  37
ENDBRANCH  35  36
ENDBRANCH  18  35
ENDBRANCH  17  18
BRANCH  17  44
HETATM   44  O   UNK N   1      36.138  16.525  10.816  0.00  0.00    -0.390 OA
HETATM   45  H   UNK N   1      36.642  15.803  11.224  0.00  0.00     0.210 HD
ENDBRANCH  17  44
ENDBRANCH  16  17
BRANCH  16  46
HETATM   46  O   UNK N   1      33.123  15.022  11.184  0.00  0.00    -0.390 OA
HETATM   47  H   UNK N   1      32.946  14.761  12.102  0.00  0.00     0.210 HD
ENDBRANCH  16  46
ENDBRANCH  15  16
BRANCH  15  48
HETATM   48  O   UNK N   1      34.892  14.086  12.770  0.00  0.00    -0.370 OA
BRANCH  48  49
HETATM   49  C   UNK N   1      36.003  14.231  13.623  0.00  0.00     0.210 C 
BRANCH  49  50
HETATM   50  C   UNK N   1      36.009  13.150  14.656  0.00  0.00     0.004 A 
HETATM   51  C   UNK N   1      35.145  13.259  15.749  0.00  0.00     0.012 A 
HETATM   52  C   UNK N   1      35.130  12.270  16.736  0.00  0.00     0.001 A 
HETATM   53  C   UNK N   1      35.979  11.165  16.632  0.00  0.00     0.003 A 
HETATM   54  C   UNK N   1      36.836  11.043  15.536  0.00  0.00     0.043 A 
HETATM   55  C   UNK N   1      36.854  12.030  14.546  0.00  0.00     0.124 A 
HETATM   56  F   UNK N   1      37.676  11.881  13.480  0.00  0.00    -0.205 F 
ENDBRANCH  49  50
ENDBRANCH  48  49
ENDBRANCH  15  48
ENDBRANCH  13  15
BRANCH  13  57
HETATM   57  O   UNK N   1      34.273  11.921  10.987  0.00  0.00    -0.348 OA
HETATM   58  H   UNK N   1      33.576  11.391  10.654  0.00  0.00     0.219 HD
ENDBRANCH  13  57
ENDBRANCH   9  12
TORSDOF 17
ENDMDL
MODEL 6
REMARK VINA RESULT:      -8.0      8.667     12.378
REMARK  17 active torsions:
REMARK  status: ('A' for Active; 'I' for Inactive)
REMARK    1  A    between atoms: C_23  and  C_19 
REMARK    2  A    between atoms: O_51  and  C_19 
REMARK    3  A    between atoms: C_24  and  C_20 
REMARK    4  A    between atoms: O_52  and  C_20 
REMARK    5  A    between atoms: C_31  and  N_41 
REMARK    6  A    between atoms: C_32  and  N_43 
REMARK    7  A    between atoms: C_34  and  C_33 
REMARK    8  A    between atoms: C_35  and  C_33 
REMARK    9  A    between atoms: C_33  and  O_47 
REMARK   10  A    between atoms: C_36  and  C_34 
REMARK   11  A    between atoms: C_34  and  O_48 
REMARK   12  A    between atoms: C_37  and  C_35 
REMARK   13  A    between atoms: C_35  and  O_51 
REMARK   14  A    between atoms: C_38  and  C_36 
REMARK   15  A    between atoms: C_36  and  O_52 
REMARK   16  A    between atoms: C_37  and  O_49 
REMARK   17  A    between atoms: C_38  and  O_50 
ROOT
HETATM    1  C   UNK N   1      35.890  10.712  20.143  0.00  0.00     0.001 A 
HETATM    2  C   UNK N   1      36.200   9.707  19.209  0.00  0.00     0.001 A 
HETATM    3  C   UNK N   1      35.469  11.977  19.702  0.00  0.00     0.008 A 
HETATM    4  C   UNK N   1      36.082   9.965  17.835  0.00  0.00     0.010 A 
HETATM    5  C   UNK N   1      34.997  13.487  17.689  0.00  0.00     0.073 C 
HETATM    6  C   UNK N   1      35.352  12.204  18.330  0.00  0.00    -0.047 A 
HETATM    7  C   UNK N   1      35.641  11.226  17.424  0.00  0.00    -0.027 A 
HETATM    8  C   UNK N   1      34.900  13.106  16.198  0.00  0.00     0.149 C 
HETATM    9  C   UNK N   1      35.520  11.690  16.029  0.00  0.00     0.146 C 
HETATM   10  O   UNK N   1      33.544  13.056  15.862  0.00  0.00    -0.393 OA
HETATM   11  H   UNK N   1      32.627  12.968  15.557  0.00  0.00     0.210 HD
ENDROOT
BRANCH   9  12
HETATM   12  N   UNK N   1      36.864  11.775  15.484  0.00  0.00    -0.361 N 
HETATM   13  C   UNK N   1      37.246  11.753  14.246  0.00  0.00     0.144 C 
ATOM     14  HN  UNK N   1      37.611  11.863  16.172  1.00  0.00     0.162 HD
BRANCH  13  15
HETATM   15  C   UNK N   1      36.305  11.655  13.041  0.00  0.00     0.227 C 
BRANCH  15  16
HETATM   16  C   UNK N   1      36.185  13.012  12.292  0.00  0.00     0.186 C 
BRANCH  16  17
HETATM   17  C   UNK N   1      34.828  13.235  11.552  0.00  0.00     0.186 C 
BRANCH  17  18
HETATM   18  C   UNK N   1      34.928  13.185   9.987  0.00  0.00     0.227 C 
BRANCH  18  19
HETATM   19  C   UNK N   1      33.579  13.532   9.366  0.00  0.00     0.144 C 
HETATM   20  N   UNK N   1      33.353  14.643   8.746  0.00  0.00    -0.361 N 
ATOM     21  HN  UNK N   1      32.393  14.812   8.446  1.00  0.00     0.162 HD
BRANCH  20  22
HETATM   22  C   UNK N   1      34.323  15.676   8.432  0.00  0.00     0.146 C 
HETATM   23  C   UNK N   1      34.134  16.007   7.006  0.00  0.00    -0.027 A 
HETATM   24  C   UNK N   1      34.518  15.229   5.912  0.00  0.00     0.010 A 
HETATM   25  C   UNK N   1      33.384  17.140   6.845  0.00  0.00    -0.047 A 
HETATM   26  C   UNK N   1      34.159  15.657   4.625  0.00  0.00     0.001 A 
HETATM   27  C   UNK N   1      33.400  16.830   4.458  0.00  0.00     0.001 A 
HETATM   28  C   UNK N   1      32.993  17.574   5.578  0.00  0.00     0.008 A 
HETATM   29  C   UNK N   1      32.986  17.738   8.141  0.00  0.00     0.073 C 
HETATM   30  C   UNK N   1      33.948  17.020   9.105  0.00  0.00     0.149 C 
HETATM   31  O   UNK N   1      35.100  17.810   9.190  0.00  0.00    -0.393 OA
HETATM   32  H   UNK N   1      35.783  18.496   9.226  0.00  0.00     0.210 HD
ENDBRANCH  20  22
BRANCH  19  33
HETATM   33  O   UNK N   1      32.580  12.630   9.438  0.00  0.00    -0.348 OA
HETATM   34  H   UNK N   1      31.785  12.146   9.323  0.00  0.00     0.219 HD
ENDBRANCH  19  33
ENDBRANCH  18  19
BRANCH  18  35
HETATM   35  O   UNK N   1      35.220  11.906   9.465  0.00  0.00    -0.370 OA
BRANCH  35  36
HETATM   36  C   UNK N   1      35.738  11.945   8.169  0.00  0.00     0.210 C 
BRANCH  36  37
HETATM   37  C   UNK N   1      37.228  11.971   8.289  0.00  0.00     0.004 A 
HETATM   38  C   UNK N   1      37.885  10.866   8.845  0.00  0.00     0.012 A 
HETATM   39  C   UNK N   1      39.271  10.879   9.009  0.00  0.00     0.001 A 
HETATM   40  C   UNK N   1      40.010  11.997   8.616  0.00  0.00     0.003 A 
HETATM   41  C   UNK N   1      39.362  13.101   8.057  0.00  0.00     0.043 A 
HETATM   42  C   UNK N   1      37.974  13.094   7.892  0.00  0.00     0.124 A 
HETATM   43  F   UNK N   1      37.369  14.182   7.358  0.00  0.00    -0.205 F 
ENDBRANCH  36  37
ENDBRANCH  35  36
ENDBRANCH  18  35
ENDBRANCH  17  18
BRANCH  17  44
HETATM   44  O   UNK N   1      34.359  14.493  11.943  0.00  0.00    -0.390 OA
HETATM   45  H   UNK N   1      34.261  14.799  12.858  0.00  0.00     0.210 HD
ENDBRANCH  17  44
ENDBRANCH  16  17
BRANCH  16  46
HETATM   46  O   UNK N   1      37.272  13.131  11.432  0.00  0.00    -0.390 OA
HETATM   47  H   UNK N   1      37.938  13.837  11.451  0.00  0.00     0.210 HD
ENDBRANCH  16  46
ENDBRANCH  15  16
BRANCH  15  48
HETATM   48  O   UNK N   1      36.804  10.643  12.183  0.00  0.00    -0.370 OA
BRANCH  48  49
HETATM   49  C   UNK N   1      36.143   9.427  12.447  0.00  0.00     0.210 C 
BRANCH  49  50
HETATM   50  C   UNK N   1      35.111   9.160  11.400  0.00  0.00     0.004 A 
HETATM   51  C   UNK N   1      35.485   8.461  10.248  0.00  0.00     0.012 A 
HETATM   52  C   UNK N   1      34.546   8.200   9.247  0.00  0.00     0.001 A 
HETATM   53  C   UNK N   1      33.226   8.637   9.393  0.00  0.00     0.003 A 
HETATM   54  C   UNK N   1      32.843   9.325  10.547  0.00  0.00     0.043 A 
HETATM   55  C   UNK N   1      33.779   9.587  11.552  0.00  0.00     0.124 A 
HETATM   56  F   UNK N   1      33.380  10.236  12.673  0.00  0.00    -0.205 F 
ENDBRANCH  49  50
ENDBRANCH  48  49
ENDBRANCH  15  48
ENDBRANCH  13  15
BRANCH  13  57
HETATM   57  O   UNK N   1      38.571  11.794  14.007  0.00  0.00    -0.348 OA
HETATM   58  H   UNK N   1      39.367  11.596  13.553  0.00  0.00     0.219 HD
ENDBRANCH  13  57
ENDBRANCH   9  12
TORSDOF 17
ENDMDL
MODEL 7
REMARK VINA RESULT:      -7.9      2.134      4.921
REMARK  17 active torsions:
REMARK  status: ('A' for Active; 'I' for Inactive)
REMARK    1  A    between atoms: C_23  and  C_19 
REMARK    2  A    between atoms: O_51  and  C_19 
REMARK    3  A    between atoms: C_24  and  C_20 
REMARK    4  A    between atoms: O_52  and  C_20 
REMARK    5  A    between atoms: C_31  and  N_41 
REMARK    6  A    between atoms: C_32  and  N_43 
REMARK    7  A    between atoms: C_34  and  C_33 
REMARK    8  A    between atoms: C_35  and  C_33 
REMARK    9  A    between atoms: C_33  and  O_47 
REMARK   10  A    between atoms: C_36  and  C_34 
REMARK   11  A    between atoms: C_34  and  O_48 
REMARK   12  A    between atoms: C_37  and  C_35 
REMARK   13  A    between atoms: C_35  and  O_51 
REMARK   14  A    between atoms: C_38  and  C_36 
REMARK   15  A    between atoms: C_36  and  O_52 
REMARK   16  A    between atoms: C_37  and  O_49 
REMARK   17  A    between atoms: C_38  and  O_50 
ROOT
HETATM    1  C   UNK N   1      20.050  13.059  10.823  0.00  0.00     0.001 A 
HETATM    2  C   UNK N   1      20.280  13.992   9.796  0.00  0.00     0.001 A 
HETATM    3  C   UNK N   1      21.104  12.263  11.302  0.00  0.00     0.008 A 
HETATM    4  C   UNK N   1      21.566  14.135   9.253  0.00  0.00     0.010 A 
HETATM    5  C   UNK N   1      23.575  11.636  11.076  0.00  0.00     0.073 C 
HETATM    6  C   UNK N   1      22.374  12.432  10.750  0.00  0.00    -0.047 A 
HETATM    7  C   UNK N   1      22.601  13.345   9.762  0.00  0.00    -0.027 A 
HETATM    8  C   UNK N   1      24.682  12.345  10.269  0.00  0.00     0.149 C 
HETATM    9  C   UNK N   1      23.992  13.316   9.270  0.00  0.00     0.146 C 
HETATM   10  O   UNK N   1      25.454  13.084  11.169  0.00  0.00    -0.393 OA
HETATM   11  H   UNK N   1      26.017  13.649  11.723  0.00  0.00     0.210 HD
ENDROOT
BRANCH   9  12
HETATM   12  N   UNK N   1      23.965  12.751   7.933  0.00  0.00    -0.361 N 
HETATM   13  C   UNK N   1      23.935  13.361   6.790  0.00  0.00     0.144 C 
ATOM     14  HN  UNK N   1      23.970  11.733   7.886  1.00  0.00     0.162 HD
BRANCH  13  15
HETATM   15  C   UNK N   1      23.949  14.882   6.607  0.00  0.00     0.227 C 
BRANCH  15  16
HETATM   16  C   UNK N   1      25.398  15.443   6.556  0.00  0.00     0.186 C 
BRANCH  16  17
HETATM   17  C   UNK N   1      25.720  16.315   5.301  0.00  0.00     0.186 C 
BRANCH  17  18
HETATM   18  C   UNK N   1      27.246  16.613   5.094  0.00  0.00     0.227 C 
BRANCH  18  19
HETATM   19  C   UNK N   1      27.659  16.252   3.671  0.00  0.00     0.144 C 
HETATM   20  N   UNK N   1      27.305  15.152   3.092  0.00  0.00    -0.361 N 
ATOM     21  HN  UNK N   1      27.708  14.970   2.172  1.00  0.00     0.162 HD
BRANCH  20  22
HETATM   22  C   UNK N   1      26.394  14.150   3.612  0.00  0.00     0.146 C 
HETATM   23  C   UNK N   1      25.382  13.919   2.563  0.00  0.00    -0.027 A 
HETATM   24  C   UNK N   1      24.336  14.774   2.211  0.00  0.00     0.010 A 
HETATM   25  C   UNK N   1      25.659  12.795   1.832  0.00  0.00    -0.047 A 
HETATM   26  C   UNK N   1      23.533  14.436   1.111  0.00  0.00     0.001 A 
HETATM   27  C   UNK N   1      23.809  13.273   0.368  0.00  0.00     0.001 A 
HETATM   28  C   UNK N   1      24.891  12.449   0.720  0.00  0.00     0.008 A 
HETATM   29  C   UNK N   1      26.882  12.105   2.306  0.00  0.00     0.073 C 
HETATM   30  C   UNK N   1      27.073  12.760   3.686  0.00  0.00     0.149 C 
HETATM   31  O   UNK N   1      26.373  11.973   4.608  0.00  0.00    -0.393 OA
HETATM   32  H   UNK N   1      25.934  11.290   5.136  0.00  0.00     0.210 HD
ENDBRANCH  20  22
BRANCH  19  33
HETATM   33  O   UNK N   1      28.403  17.129   2.968  0.00  0.00    -0.348 OA
HETATM   34  H   UNK N   1      28.923  17.858   2.689  0.00  0.00     0.219 HD
ENDBRANCH  19  33
ENDBRANCH  18  19
BRANCH  18  35
HETATM   35  O   UNK N   1      28.104  15.833   5.900  0.00  0.00    -0.370 OA
BRANCH  35  36
HETATM   36  C   UNK N   1      29.391  16.362   6.006  0.00  0.00     0.210 C 
BRANCH  36  37
HETATM   37  C   UNK N   1      29.466  17.089   7.309  0.00  0.00     0.004 A 
HETATM   38  C   UNK N   1      28.296  17.257   8.062  0.00  0.00     0.012 A 
HETATM   39  C   UNK N   1      28.327  17.968   9.263  0.00  0.00     0.001 A 
HETATM   40  C   UNK N   1      29.527  18.517   9.719  0.00  0.00     0.003 A 
HETATM   41  C   UNK N   1      30.698  18.351   8.975  0.00  0.00     0.043 A 
HETATM   42  C   UNK N   1      30.673  17.640   7.772  0.00  0.00     0.124 A 
HETATM   43  F   UNK N   1      31.820  17.504   7.064  0.00  0.00    -0.205 F 
ENDBRANCH  36  37
ENDBRANCH  35  36
ENDBRANCH  18  35
ENDBRANCH  17  18
BRANCH  17  44
HETATM   44  O   UNK N   1      25.034  17.522   5.465  0.00  0.00    -0.390 OA
HETATM   45  H   UNK N   1      25.435  18.370   5.713  0.00  0.00     0.210 HD
ENDBRANCH  17  44
ENDBRANCH  16  17
BRANCH  16  46
HETATM   46  O   UNK N   1      26.281  14.376   6.688  0.00  0.00    -0.390 OA
HETATM   47  H   UNK N   1      26.922  14.083   6.020  0.00  0.00     0.210 HD
ENDBRANCH  16  46
ENDBRANCH  15  16
BRANCH  15  48
HETATM   48  O   UNK N   1      23.245  15.181   5.413  0.00  0.00    -0.370 OA
BRANCH  48  49
HETATM   49  C   UNK N   1      21.926  15.567   5.723  0.00  0.00     0.210 C 
BRANCH  49  50
HETATM   50  C   UNK N   1      21.475  16.655   4.803  0.00  0.00     0.004 A 
HETATM   51  C   UNK N   1      20.908  16.306   3.573  0.00  0.00     0.012 A 
HETATM   52  C   UNK N   1      20.483  17.298   2.686  0.00  0.00     0.001 A 
HETATM   53  C   UNK N   1      20.620  18.647   3.027  0.00  0.00     0.003 A 
HETATM   54  C   UNK N   1      21.174  19.003   4.258  0.00  0.00     0.043 A 
HETATM   55  C   UNK N   1      21.601  18.013   5.150  0.00  0.00     0.124 A 
HETATM   56  F   UNK N   1      22.113  18.381   6.348  0.00  0.00    -0.205 F 
ENDBRANCH  49  50
ENDBRANCH  48  49
ENDBRANCH  15  48
ENDBRANCH  13  15
BRANCH  13  57
HETATM   57  O   UNK N   1      23.860  12.596   5.682  0.00  0.00    -0.348 OA
HETATM   58  H   UNK N   1      23.924  12.403   4.768  0.00  0.00     0.219 HD
ENDBRANCH  13  57
ENDBRANCH   9  12
TORSDOF 17
ENDMDL
MODEL 8
REMARK VINA RESULT:      -7.9      2.368      3.555
REMARK  17 active torsions:
REMARK  status: ('A' for Active; 'I' for Inactive)
REMARK    1  A    between atoms: C_23  and  C_19 
REMARK    2  A    between atoms: O_51  and  C_19 
REMARK    3  A    between atoms: C_24  and  C_20 
REMARK    4  A    between atoms: O_52  and  C_20 
REMARK    5  A    between atoms: C_31  and  N_41 
REMARK    6  A    between atoms: C_32  and  N_43 
REMARK    7  A    between atoms: C_34  and  C_33 
REMARK    8  A    between atoms: C_35  and  C_33 
REMARK    9  A    between atoms: C_33  and  O_47 
REMARK   10  A    between atoms: C_36  and  C_34 
REMARK   11  A    between atoms: C_34  and  O_48 
REMARK   12  A    between atoms: C_37  and  C_35 
REMARK   13  A    between atoms: C_35  and  O_51 
REMARK   14  A    between atoms: C_38  and  C_36 
REMARK   15  A    between atoms: C_36  and  O_52 
REMARK   16  A    between atoms: C_37  and  O_49 
REMARK   17  A    between atoms: C_38  and  O_50 
ROOT
HETATM    1  C   UNK N   1      24.636  13.022   9.725  0.00  0.00     0.001 A 
HETATM    2  C   UNK N   1      25.218  13.713   8.647  0.00  0.00     0.001 A 
HETATM    3  C   UNK N   1      23.248  12.817   9.764  0.00  0.00     0.008 A 
HETATM    4  C   UNK N   1      24.412  14.192   7.604  0.00  0.00     0.010 A 
HETATM    5  C   UNK N   1      20.997  13.237   8.619  0.00  0.00     0.073 C 
HETATM    6  C   UNK N   1      22.470  13.296   8.709  0.00  0.00    -0.047 A 
HETATM    7  C   UNK N   1      23.035  13.956   7.656  0.00  0.00    -0.027 A 
HETATM    8  C   UNK N   1      20.720  13.792   7.206  0.00  0.00     0.149 C 
HETATM    9  C   UNK N   1      22.035  14.440   6.686  0.00  0.00     0.146 C 
HETATM   10  O   UNK N   1      20.385  12.712   6.386  0.00  0.00    -0.393 OA
HETATM   11  H   UNK N   1      20.175  12.014   5.744  0.00  0.00     0.210 HD
ENDROOT
BRANCH   9  12
HETATM   12  N   UNK N   1      21.982  15.886   6.805  0.00  0.00    -0.361 N 
HETATM   13  C   UNK N   1      22.492  16.788   6.027  0.00  0.00     0.144 C 
ATOM     14  HN  UNK N   1      21.473  16.242   7.613  1.00  0.00     0.162 HD
BRANCH  13  15
HETATM   15  C   UNK N   1      23.274  16.497   4.742  0.00  0.00     0.227 C 
BRANCH  15  16
HETATM   16  C   UNK N   1      24.796  16.333   5.019  0.00  0.00     0.186 C 
BRANCH  16  17
HETATM   17  C   UNK N   1      25.678  17.540   4.567  0.00  0.00     0.186 C 
BRANCH  17  18
HETATM   18  C   UNK N   1      27.222  17.266   4.612  0.00  0.00     0.227 C 
BRANCH  18  19
HETATM   19  C   UNK N   1      27.961  18.522   5.062  0.00  0.00     0.144 C 
HETATM   20  N   UNK N   1      28.446  18.666   6.251  0.00  0.00    -0.361 N 
ATOM     21  HN  UNK N   1      28.844  19.578   6.475  1.00  0.00     0.162 HD
BRANCH  20  22
HETATM   22  C   UNK N   1      28.485  17.665   7.301  0.00  0.00     0.146 C 
HETATM   23  C   UNK N   1      29.889  17.220   7.404  0.00  0.00    -0.027 A 
HETATM   24  C   UNK N   1      30.568  16.393   6.507  0.00  0.00     0.010 A 
HETATM   25  C   UNK N   1      30.541  17.836   8.437  0.00  0.00    -0.047 A 
HETATM   26  C   UNK N   1      31.937  16.162   6.711  0.00  0.00     0.001 A 
HETATM   27  C   UNK N   1      32.604  16.784   7.782  0.00  0.00     0.001 A 
HETATM   28  C   UNK N   1      31.906  17.642   8.648  0.00  0.00     0.008 A 
HETATM   29  C   UNK N   1      29.657  18.762   9.185  0.00  0.00     0.073 C 
HETATM   30  C   UNK N   1      28.271  18.306   8.695  0.00  0.00     0.149 C 
HETATM   31  O   UNK N   1      27.836  17.312   9.578  0.00  0.00    -0.393 OA
HETATM   32  H   UNK N   1      27.628  16.717  10.315  0.00  0.00     0.210 HD
ENDBRANCH  20  22
BRANCH  19  33
HETATM   33  O   UNK N   1      28.146  19.520   4.175  0.00  0.00    -0.348 OA
HETATM   34  H   UNK N   1      28.156  20.065   3.412  0.00  0.00     0.219 HD
ENDBRANCH  19  33
ENDBRANCH  18  19
BRANCH  18  35
HETATM   35  O   UNK N   1      27.796  16.971   3.356  0.00  0.00    -0.370 OA
BRANCH  35  36
HETATM   36  C   UNK N   1      28.892  16.111   3.440  0.00  0.00     0.210 C 
BRANCH  36  37
HETATM   37  C   UNK N   1      28.360  14.714   3.428  0.00  0.00     0.004 A 
HETATM   38  C   UNK N   1      28.533  13.911   4.563  0.00  0.00     0.012 A 
HETATM   39  C   UNK N   1      28.085  12.589   4.566  0.00  0.00     0.001 A 
HETATM   40  C   UNK N   1      27.462  12.060   3.434  0.00  0.00     0.003 A 
HETATM   41  C   UNK N   1      27.283  12.856   2.299  0.00  0.00     0.043 A 
HETATM   42  C   UNK N   1      27.730  14.180   2.291  0.00  0.00     0.124 A 
HETATM   43  F   UNK N   1      27.556  14.926   1.174  0.00  0.00    -0.205 F 
ENDBRANCH  36  37
ENDBRANCH  35  36
ENDBRANCH  18  35
ENDBRANCH  17  18
BRANCH  17  44
HETATM   44  O   UNK N   1      25.374  18.602   5.424  0.00  0.00    -0.390 OA
HETATM   45  H   UNK N   1      25.582  18.641   6.371  0.00  0.00     0.210 HD
ENDBRANCH  17  44
ENDBRANCH  16  17
BRANCH  16  46
HETATM   46  O   UNK N   1      25.215  15.138   4.442  0.00  0.00    -0.390 OA
HETATM   47  H   UNK N   1      26.137  14.861   4.317  0.00  0.00     0.210 HD
ENDBRANCH  16  46
ENDBRANCH  15  16
BRANCH  15  48
HETATM   48  O   UNK N   1      22.733  15.321   4.163  0.00  0.00    -0.370 OA
BRANCH  48  49
HETATM   49  C   UNK N   1      22.118  15.636   2.936  0.00  0.00     0.210 C 
BRANCH  49  50
HETATM   50  C   UNK N   1      22.417  14.580   1.921  0.00  0.00     0.004 A 
HETATM   51  C   UNK N   1      21.403  13.689   1.558  0.00  0.00     0.012 A 
HETATM   52  C   UNK N   1      21.651  12.685   0.617  0.00  0.00     0.001 A 
HETATM   53  C   UNK N   1      22.915  12.571   0.032  0.00  0.00     0.003 A 
HETATM   54  C   UNK N   1      23.929  13.466   0.381  0.00  0.00     0.043 A 
HETATM   55  C   UNK N   1      23.685  14.472   1.321  0.00  0.00     0.124 A 
HETATM   56  F   UNK N   1      24.676  15.344   1.627  0.00  0.00    -0.205 F 
ENDBRANCH  49  50
ENDBRANCH  48  49
ENDBRANCH  15  48
ENDBRANCH  13  15
BRANCH  13  57
HETATM   57  O   UNK N   1      22.344  18.077   6.393  0.00  0.00    -0.348 OA
HETATM   58  H   UNK N   1      22.408  18.819   6.961  0.00  0.00     0.219 HD
ENDBRANCH  13  57
ENDBRANCH   9  12
TORSDOF 17
ENDMDL
MODEL 9
REMARK VINA RESULT:      -7.8      8.738     12.403
REMARK  17 active torsions:
REMARK  status: ('A' for Active; 'I' for Inactive)
REMARK    1  A    between atoms: C_23  and  C_19 
REMARK    2  A    between atoms: O_51  and  C_19 
REMARK    3  A    between atoms: C_24  and  C_20 
REMARK    4  A    between atoms: O_52  and  C_20 
REMARK    5  A    between atoms: C_31  and  N_41 
REMARK    6  A    between atoms: C_32  and  N_43 
REMARK    7  A    between atoms: C_34  and  C_33 
REMARK    8  A    between atoms: C_35  and  C_33 
REMARK    9  A    between atoms: C_33  and  O_47 
REMARK   10  A    between atoms: C_36  and  C_34 
REMARK   11  A    between atoms: C_34  and  O_48 
REMARK   12  A    between atoms: C_37  and  C_35 
REMARK   13  A    between atoms: C_35  and  O_51 
REMARK   14  A    between atoms: C_38  and  C_36 
REMARK   15  A    between atoms: C_36  and  O_52 
REMARK   16  A    between atoms: C_37  and  O_49 
REMARK   17  A    between atoms: C_38  and  O_50 
ROOT
HETATM    1  C   UNK N   1      35.680  11.027  20.147  0.00  0.00     0.001 A 
HETATM    2  C   UNK N   1      36.091   9.938  19.359  0.00  0.00     0.001 A 
HETATM    3  C   UNK N   1      35.310  12.238  19.538  0.00  0.00     0.008 A 
HETATM    4  C   UNK N   1      36.124  10.054  17.961  0.00  0.00     0.010 A 
HETATM    5  C   UNK N   1      35.063  13.533  17.344  0.00  0.00     0.073 C 
HETATM    6  C   UNK N   1      35.344  12.324  18.145  0.00  0.00    -0.047 A 
HETATM    7  C   UNK N   1      35.731  11.263  17.379  0.00  0.00    -0.027 A 
HETATM    8  C   UNK N   1      35.129  13.003  15.896  0.00  0.00     0.149 C 
HETATM    9  C   UNK N   1      35.764  11.584  15.940  0.00  0.00     0.146 C 
HETATM   10  O   UNK N   1      33.819  12.905  15.421  0.00  0.00    -0.393 OA
HETATM   11  H   UNK N   1      32.941  12.777  15.029  0.00  0.00     0.210 HD
ENDROOT
BRANCH   9  12
HETATM   12  N   UNK N   1      37.159  11.628  15.539  0.00  0.00    -0.361 N 
HETATM   13  C   UNK N   1      37.669  11.573  14.349  0.00  0.00     0.144 C 
ATOM     14  HN  UNK N   1      37.832  11.713  16.300  1.00  0.00     0.162 HD
BRANCH  13  15
HETATM   15  C   UNK N   1      36.858  11.472  13.053  0.00  0.00     0.227 C 
BRANCH  15  16
HETATM   16  C   UNK N   1      36.563  12.873  12.448  0.00  0.00     0.186 C 
BRANCH  16  17
HETATM   17  C   UNK N   1      35.263  12.955  11.586  0.00  0.00     0.186 C 
BRANCH  17  18
HETATM   18  C   UNK N   1      35.352  13.943  10.371  0.00  0.00     0.227 C 
BRANCH  18  19
HETATM   19  C   UNK N   1      34.012  13.998   9.645  0.00  0.00     0.144 C 
HETATM   20  N   UNK N   1      33.693  14.946   8.826  0.00  0.00    -0.361 N 
ATOM     21  HN  UNK N   1      32.740  14.934   8.461  1.00  0.00     0.162 HD
BRANCH  20  22
HETATM   22  C   UNK N   1      34.550  16.025   8.369  0.00  0.00     0.146 C 
HETATM   23  C   UNK N   1      34.265  16.206   6.932  0.00  0.00    -0.027 A 
HETATM   24  C   UNK N   1      34.667  15.367   5.892  0.00  0.00     0.010 A 
HETATM   25  C   UNK N   1      33.408  17.250   6.714  0.00  0.00    -0.047 A 
HETATM   26  C   UNK N   1      34.211  15.641   4.593  0.00  0.00     0.001 A 
HETATM   27  C   UNK N   1      33.341  16.723   4.366  0.00  0.00     0.001 A 
HETATM   28  C   UNK N   1      32.921  17.530   5.437  0.00  0.00     0.008 A 
HETATM   29  C   UNK N   1      33.018  17.929   7.972  0.00  0.00     0.073 C 
HETATM   30  C   UNK N   1      34.086  17.388   8.941  0.00  0.00     0.149 C 
HETATM   31  O   UNK N   1      35.163  18.279   8.894  0.00  0.00    -0.393 OA
HETATM   32  H   UNK N   1      35.782  19.022   8.831  0.00  0.00     0.210 HD
ENDBRANCH  20  22
BRANCH  19  33
HETATM   33  O   UNK N   1      33.126  13.001   9.838  0.00  0.00    -0.348 OA
HETATM   34  H   UNK N   1      32.700  12.200  10.076  0.00  0.00     0.219 HD
ENDBRANCH  19  33
ENDBRANCH  18  19
BRANCH  18  35
HETATM   35  O   UNK N   1      36.263  13.548   9.367  0.00  0.00    -0.370 OA
BRANCH  35  36
HETATM   36  C   UNK N   1      36.111  12.215   8.981  0.00  0.00     0.210 C 
BRANCH  36  37
HETATM   37  C   UNK N   1      36.070  12.189   7.487  0.00  0.00     0.004 A 
HETATM   38  C   UNK N   1      34.926  11.693   6.847  0.00  0.00     0.012 A 
HETATM   39  C   UNK N   1      34.875  11.617   5.454  0.00  0.00     0.001 A 
HETATM   40  C   UNK N   1      35.967  12.035   4.691  0.00  0.00     0.003 A 
HETATM   41  C   UNK N   1      37.110  12.534   5.322  0.00  0.00     0.043 A 
HETATM   42  C   UNK N   1      37.167  12.612   6.717  0.00  0.00     0.124 A 
HETATM   43  F   UNK N   1      38.290  13.088   7.304  0.00  0.00    -0.205 F 
ENDBRANCH  36  37
ENDBRANCH  35  36
ENDBRANCH  18  35
ENDBRANCH  17  18
BRANCH  17  44
HETATM   44  O   UNK N   1      34.239  13.370  12.443  0.00  0.00    -0.390 OA
HETATM   45  H   UNK N   1      33.332  13.025  12.448  0.00  0.00     0.210 HD
ENDBRANCH  17  44
ENDBRANCH  16  17
BRANCH  16  46
HETATM   46  O   UNK N   1      37.685  13.283  11.734  0.00  0.00    -0.390 OA
HETATM   47  H   UNK N   1      37.789  13.251  10.770  0.00  0.00     0.210 HD
ENDBRANCH  16  46
ENDBRANCH  15  16
BRANCH  15  48
HETATM   48  O   UNK N   1      37.593  10.670  12.144  0.00  0.00    -0.370 OA
BRANCH  48  49
HETATM   49  C   UNK N   1      37.133   9.340  12.204  0.00  0.00     0.210 C 
BRANCH  49  50
HETATM   50  C   UNK N   1      35.974   9.151  11.280  0.00  0.00     0.004 A 
HETATM   51  C   UNK N   1      36.223   8.801   9.949  0.00  0.00     0.012 A 
HETATM   52  C   UNK N   1      35.161   8.623   9.057  0.00  0.00     0.001 A 
HETATM   53  C   UNK N   1      33.845   8.793   9.494  0.00  0.00     0.003 A 
HETATM   54  C   UNK N   1      33.588   9.130  10.824  0.00  0.00     0.043 A 
HETATM   55  C   UNK N   1      34.647   9.308  11.721  0.00  0.00     0.124 A 
HETATM   56  F   UNK N   1      34.374   9.611  13.012  0.00  0.00    -0.205 F 
ENDBRANCH  49  50
ENDBRANCH  48  49
ENDBRANCH  15  48
ENDBRANCH  13  15
BRANCH  13  57
HETATM   57  O   UNK N   1      39.013  11.579  14.251  0.00  0.00    -0.348 OA
HETATM   58  H   UNK N   1      39.881  11.904  14.389  0.00  0.00     0.219 HD
ENDBRANCH  13  57
ENDBRANCH   9  12
TORSDOF 17
ENDMDL
