REMARK  6 active torsions:
REMARK  status: ('A' for Active; 'I' for Inactive)
REMARK    1  A    between atoms: C_2  and  N_1 
REMARK    2  A    between atoms: C_2  and  C_3 
REMARK    3  A    between atoms: C_2  and  C_10 
REMARK    4  A    between atoms: C_3  and  N_4 
REMARK       I    between atoms: C_6  and  N_7 
REMARK       I    between atoms: C_6  and  N_8 
REMARK    5  A    between atoms: N_8  and  O_9 
REMARK    6  A    between atoms: C_10  and  O_11 
ROOT
HETATM    1  N   UNK N   1       0.800  -0.639  -0.107  0.00  0.00    -0.222 N 
ATOM      2  HN  UNK N   1       1.407  -1.356   0.289  1.00  0.00     0.177 HD
HETATM    3  C   UNK N   1      -0.470  -0.858  -0.123  0.00  0.00     0.691 C 
HETATM    4  N   UNK N   1      -1.370   0.104  -0.646  0.00  0.00    -0.233 N 
HETATM    5  N   UNK N   1      -0.968  -2.093   0.355  0.00  0.00    -0.099 N 
HETATM    6  H   UNK N   1      -1.104   0.980  -1.009  0.00  0.00     0.174 HD
HETATM    7  H   UNK N   1      -2.329  -0.119  -0.646  0.00  0.00     0.174 HD
HETATM    8  H   UNK N   1      -0.347  -2.753   0.739  0.00  0.00     0.213 HD
ENDROOT
BRANCH   1   9
HETATM    9  C   UNK N   1       1.414   0.569  -0.618  0.00  0.00     0.173 C 
BRANCH   9  10
HETATM   10  C   UNK N   1       1.337   1.717   0.384  0.00  0.00     0.191 C 
BRANCH  10  11
HETATM   11  N   UNK N   1       0.053   2.390   0.264  0.00  0.00    -0.416 N 
HETATM   12  H   UNK N   1       0.013   3.406   0.180  0.00  0.00     0.150 HD
HETATM   13  H   UNK N   1      -0.809   1.845   0.264  0.00  0.00     0.150 HD
ENDBRANCH  10  11
BRANCH  10  14
HETATM   14  C   UNK N   1       2.458   2.686   0.139  0.00  0.00     0.164 C 
HETATM   15  O   UNK N   1       3.615   2.315   0.248  0.00  0.00    -0.648 OA
BRANCH  14  16
HETATM   16  O   UNK N   1       2.199   3.969  -0.186  0.00  0.00    -0.775 OA
HETATM   17  H   UNK N   1       2.882   4.570  -0.412  0.00  0.00     0.167 HD
ENDBRANCH  14  16
ENDBRANCH  10  14
ENDBRANCH   9  10
ENDBRANCH   1   9
BRANCH   5  18
HETATM   18  O   UNK N   1      -2.275  -2.373   0.290  0.00  0.00    -0.276 OA
HETATM   19  H   UNK N   1      -2.925  -1.653   0.244  0.00  0.00     0.245 HD
ENDBRANCH   5  18
TORSDOF 6
