MODEL 1
REMARK VINA RESULT:      -3.8      0.000      0.000
REMARK  1 active torsions:
REMARK  status: ('A' for Active; 'I' for Inactive)
REMARK    1  A    between atoms: N_1  and  C_2 
ROOT
HETATM    1  C   UNK N   1      35.122  12.818  19.220  0.00  0.00     0.183 A 
HETATM    2  C   UNK N   1      35.122  13.729  18.014  0.00  0.00     0.033 A 
HETATM    3  C   UNK N   1      35.472  13.084  16.680  0.00  0.00     0.002 A 
HETATM    4  C   UNK N   1      35.800  11.590  16.614  0.00  0.00     0.000 A 
HETATM    5  C   UNK N   1      35.783  10.720  17.874  0.00  0.00     0.002 A 
HETATM    6  C   UNK N   1      35.435  11.338  19.225  0.00  0.00     0.033 A 
ENDROOT
BRANCH   1   7
HETATM    7  N   UNK N   1      34.789  13.425  20.495  0.00  0.00    -0.075 N 
HETATM    8  H   UNK N   1      35.163  14.343  20.736  0.00  0.00     0.274 HD
HETATM    9  H   UNK N   1      34.180  12.934  21.151  0.00  0.00     0.274 HD
HETATM   10  H   UNK N   1      34.554  13.851  21.391  0.00  0.00     0.274 HD
ENDBRANCH   1   7
TORSDOF 1
ENDMDL
MODEL 2
REMARK VINA RESULT:      -3.8      0.053      2.029
REMARK  1 active torsions:
REMARK  status: ('A' for Active; 'I' for Inactive)
REMARK    1  A    between atoms: N_1  and  C_2 
ROOT
HETATM    1  C   UNK N   1      35.124  12.809  19.189  0.00  0.00     0.183 A 
HETATM    2  C   UNK N   1      35.438  11.331  19.164  0.00  0.00     0.033 A 
HETATM    3  C   UNK N   1      35.792  10.740  17.806  0.00  0.00     0.002 A 
HETATM    4  C   UNK N   1      35.815  11.634  16.563  0.00  0.00     0.000 A 
HETATM    5  C   UNK N   1      35.486  13.126  16.656  0.00  0.00     0.002 A 
HETATM    6  C   UNK N   1      35.128  13.748  18.002  0.00  0.00     0.033 A 
ENDROOT
BRANCH   1   7
HETATM    7  N   UNK N   1      34.786  13.381  20.479  0.00  0.00    -0.075 N 
HETATM    8  H   UNK N   1      33.950  13.959  20.578  0.00  0.00     0.274 HD
HETATM    9  H   UNK N   1      35.383  13.206  21.288  0.00  0.00     0.274 HD
HETATM   10  H   UNK N   1      34.548  13.783  21.386  0.00  0.00     0.274 HD
ENDBRANCH   1   7
TORSDOF 1
ENDMDL
MODEL 3
REMARK VINA RESULT:      -3.7     14.310     14.895
REMARK  1 active torsions:
REMARK  status: ('A' for Active; 'I' for Inactive)
REMARK    1  A    between atoms: N_1  and  C_2 
ROOT
HETATM    1  C   UNK N   1      21.988  12.234  11.077  0.00  0.00     0.183 A 
HETATM    2  C   UNK N   1      23.300  11.817  11.700  0.00  0.00     0.033 A 
HETATM    3  C   UNK N   1      24.561  12.187  10.930  0.00  0.00     0.002 A 
HETATM    4  C   UNK N   1      24.453  12.940   9.601  0.00  0.00     0.000 A 
HETATM    5  C   UNK N   1      23.091  13.334   9.023  0.00  0.00     0.002 A 
HETATM    6  C   UNK N   1      21.811  12.978   9.771  0.00  0.00     0.033 A 
ENDROOT
BRANCH   1   7
HETATM    7  N   UNK N   1      20.782  11.886  11.805  0.00  0.00    -0.075 N 
HETATM    8  H   UNK N   1      20.651  12.213  12.762  0.00  0.00     0.274 HD
HETATM    9  H   UNK N   1      20.064  11.313  11.359  0.00  0.00     0.274 HD
HETATM   10  H   UNK N   1      19.934  11.641  12.316  0.00  0.00     0.274 HD
ENDBRANCH   1   7
TORSDOF 1
ENDMDL
MODEL 4
REMARK VINA RESULT:      -3.7      3.119      4.347
REMARK  1 active torsions:
REMARK  status: ('A' for Active; 'I' for Inactive)
REMARK    1  A    between atoms: N_1  and  C_2 
ROOT
HETATM    1  C   UNK N   1      36.605  13.882  15.444  0.00  0.00     0.183 A 
HETATM    2  C   UNK N   1      35.550  12.998  16.069  0.00  0.00     0.033 A 
HETATM    3  C   UNK N   1      35.046  13.419  17.444  0.00  0.00     0.002 A 
HETATM    4  C   UNK N   1      35.607  14.675  18.114  0.00  0.00     0.000 A 
HETATM    5  C   UNK N   1      36.677  15.529  17.427  0.00  0.00     0.002 A 
HETATM    6  C   UNK N   1      37.202  15.134  16.050  0.00  0.00     0.033 A 
ENDROOT
BRANCH   1   7
HETATM    7  N   UNK N   1      37.092  13.489  14.135  0.00  0.00    -0.075 N 
HETATM    8  H   UNK N   1      37.716  14.106  13.616  0.00  0.00     0.274 HD
HETATM    9  H   UNK N   1      36.809  12.594  13.732  0.00  0.00     0.274 HD
HETATM   10  H   UNK N   1      37.434  13.212  13.214  0.00  0.00     0.274 HD
ENDBRANCH   1   7
TORSDOF 1
ENDMDL
MODEL 5
REMARK VINA RESULT:      -3.7     14.533     15.146
REMARK  1 active torsions:
REMARK  status: ('A' for Active; 'I' for Inactive)
REMARK    1  A    between atoms: N_1  and  C_2 
ROOT
HETATM    1  C   UNK N   1      23.628  12.533  10.812  0.00  0.00     0.183 A 
HETATM    2  C   UNK N   1      22.694  11.908  11.822  0.00  0.00     0.033 A 
HETATM    3  C   UNK N   1      21.205  12.134  11.595  0.00  0.00     0.002 A 
HETATM    4  C   UNK N   1      20.729  12.956  10.395  0.00  0.00     0.000 A 
HETATM    5  C   UNK N   1      21.728  13.563   9.405  0.00  0.00     0.002 A 
HETATM    6  C   UNK N   1      23.225  13.355   9.606  0.00  0.00     0.033 A 
ENDROOT
BRANCH   1   7
HETATM    7  N   UNK N   1      25.048  12.323  11.021  0.00  0.00    -0.075 N 
HETATM    8  H   UNK N   1      25.525  12.789  11.793  0.00  0.00     0.274 HD
HETATM    9  H   UNK N   1      25.571  11.710  10.395  0.00  0.00     0.274 HD
HETATM   10  H   UNK N   1      26.047  12.176  11.167  0.00  0.00     0.274 HD
ENDBRANCH   1   7
TORSDOF 1
ENDMDL
MODEL 6
REMARK VINA RESULT:      -3.7     14.309     14.791
REMARK  1 active torsions:
REMARK  status: ('A' for Active; 'I' for Inactive)
REMARK    1  A    between atoms: N_1  and  C_2 
ROOT
HETATM    1  C   UNK N   1      22.012  12.236  11.062  0.00  0.00     0.183 A 
HETATM    2  C   UNK N   1      21.815  12.979   9.761  0.00  0.00     0.033 A 
HETATM    3  C   UNK N   1      23.079  13.345   8.994  0.00  0.00     0.002 A 
HETATM    4  C   UNK N   1      24.451  12.960   9.551  0.00  0.00     0.000 A 
HETATM    5  C   UNK N   1      24.584  12.206  10.878  0.00  0.00     0.002 A 
HETATM    6  C   UNK N   1      23.336  11.826  11.668  0.00  0.00     0.033 A 
ENDROOT
BRANCH   1   7
HETATM    7  N   UNK N   1      20.813  11.883  11.799  0.00  0.00    -0.075 N 
HETATM    8  H   UNK N   1      20.114  12.597  12.008  0.00  0.00     0.274 HD
HETATM    9  H   UNK N   1      20.668  10.921  12.107  0.00  0.00     0.274 HD
HETATM   10  H   UNK N   1      19.970  11.635  12.317  0.00  0.00     0.274 HD
ENDBRANCH   1   7
TORSDOF 1
ENDMDL
MODEL 7
REMARK VINA RESULT:      -3.7     14.570     15.073
REMARK  1 active torsions:
REMARK  status: ('A' for Active; 'I' for Inactive)
REMARK    1  A    between atoms: N_1  and  C_2 
ROOT
HETATM    1  C   UNK N   1      23.597  12.538  10.788  0.00  0.00     0.183 A 
HETATM    2  C   UNK N   1      23.212  13.384   9.596  0.00  0.00     0.033 A 
HETATM    3  C   UNK N   1      21.722  13.615   9.385  0.00  0.00     0.002 A 
HETATM    4  C   UNK N   1      20.707  13.003  10.354  0.00  0.00     0.000 A 
HETATM    5  C   UNK N   1      21.162  12.154  11.545  0.00  0.00     0.002 A 
HETATM    6  C   UNK N   1      22.648  11.905  11.782  0.00  0.00     0.033 A 
ENDROOT
BRANCH   1   7
HETATM    7  N   UNK N   1      25.015  12.313  10.996  0.00  0.00    -0.075 N 
HETATM    8  H   UNK N   1      25.522  11.662  10.396  0.00  0.00     0.274 HD
HETATM    9  H   UNK N   1      25.506  12.806  11.743  0.00  0.00     0.274 HD
HETATM   10  H   UNK N   1      26.012  12.155  11.142  0.00  0.00     0.274 HD
ENDBRANCH   1   7
TORSDOF 1
ENDMDL
MODEL 8
REMARK VINA RESULT:      -3.7      3.160      4.085
REMARK  1 active torsions:
REMARK  status: ('A' for Active; 'I' for Inactive)
REMARK    1  A    between atoms: N_1  and  C_2 
ROOT
HETATM    1  C   UNK N   1      36.601  13.892  15.366  0.00  0.00     0.183 A 
HETATM    2  C   UNK N   1      37.228  15.134  15.956  0.00  0.00     0.033 A 
HETATM    3  C   UNK N   1      36.745  15.540  17.342  0.00  0.00     0.002 A 
HETATM    4  C   UNK N   1      35.682  14.704  18.058  0.00  0.00     0.000 A 
HETATM    5  C   UNK N   1      35.085  13.454  17.405  0.00  0.00     0.002 A 
HETATM    6  C   UNK N   1      35.548  13.022  16.018  0.00  0.00     0.033 A 
ENDROOT
BRANCH   1   7
HETATM    7  N   UNK N   1      37.055  13.498  14.045  0.00  0.00    -0.075 N 
HETATM    8  H   UNK N   1      36.996  12.521  13.756  0.00  0.00     0.274 HD
HETATM    9  H   UNK N   1      37.434  14.197  13.405  0.00  0.00     0.274 HD
HETATM   10  H   UNK N   1      37.374  13.220  13.117  0.00  0.00     0.274 HD
ENDBRANCH   1   7
TORSDOF 1
ENDMDL
MODEL 9
REMARK VINA RESULT:      -3.5     14.916     16.074
REMARK  1 active torsions:
REMARK  status: ('A' for Active; 'I' for Inactive)
REMARK    1  A    between atoms: N_1  and  C_2 
ROOT
HETATM    1  C   UNK N   1      27.761  19.277   7.262  0.00  0.00     0.183 A 
HETATM    2  C   UNK N   1      28.430  18.302   6.322  0.00  0.00     0.033 A 
HETATM    3  C   UNK N   1      28.432  18.680   4.846  0.00  0.00     0.002 A 
HETATM    4  C   UNK N   1      27.779  19.987   4.390  0.00  0.00     0.000 A 
HETATM    5  C   UNK N   1      27.116  20.934   5.394  0.00  0.00     0.002 A 
HETATM    6  C   UNK N   1      27.099  20.582   6.878  0.00  0.00     0.033 A 
ENDROOT
BRANCH   1   7
HETATM    7  N   UNK N   1      27.755  18.925   8.670  0.00  0.00    -0.075 N 
HETATM    8  H   UNK N   1      28.324  18.146   9.004  0.00  0.00     0.274 HD
HETATM    9  H   UNK N   1      27.182  19.455   9.327  0.00  0.00     0.274 HD
HETATM   10  H   UNK N   1      27.751  18.677   9.659  0.00  0.00     0.274 HD
ENDBRANCH   1   7
TORSDOF 1
ENDMDL
