REMARK  9 active torsions:
REMARK  status: ('A' for Active; 'I' for Inactive)
REMARK    1  A    between atoms: C_2  and  C_1 
REMARK    2  A    between atoms: S_12  and  C_1 
REMARK    3  A    between atoms: S_13  and  C_2 
REMARK    4  A    between atoms: C_4  and  C_3 
REMARK    5  A    between atoms: S_12  and  C_3 
REMARK    6  A    between atoms: C_5  and  C_4 
REMARK    7  A    between atoms: C_4  and  N_6 
REMARK    8  A    between atoms: O_9  and  C_5 
REMARK    9  A    between atoms: S_13  and  N_7 
ROOT
HETATM    1  C   UNK N   1       1.488   0.263  -0.615  0.00  0.00     0.109 C 
ENDROOT
BRANCH   1   2
HETATM    2  C   UNK N   1       0.262   0.326   0.291  0.00  0.00     0.182 C 
BRANCH   2   3
HETATM    3  C   UNK N   1      -0.702   1.387  -0.181  0.00  0.00     0.163 C 
HETATM    4  O   UNK N   1      -1.843   1.089  -0.504  0.00  0.00    -0.648 OA
BRANCH   3   5
HETATM    5  O   UNK N   1      -0.314   2.675  -0.238  0.00  0.00    -0.775 OA
HETATM    6  H   UNK N   1       0.597   2.890  -0.279  0.00  0.00     0.167 HD
ENDBRANCH   3   5
ENDBRANCH   2   3
BRANCH   2   7
HETATM    7  N   UNK N   1      -0.379  -0.979   0.285  0.00  0.00    -0.417 N 
HETATM    8  H   UNK N   1      -1.396  -1.047   0.281  0.00  0.00     0.150 HD
HETATM    9  H   UNK N   1       0.189  -1.826   0.285  0.00  0.00     0.150 HD
ENDBRANCH   2   7
ENDBRANCH   1   2
BRANCH   1  10
HETATM   10  S   UNK N   1       2.733   1.505  -0.146  0.00  0.00    -0.166 SA
BRANCH  10  11
HETATM   11  C   UNK N   1       3.933   0.218   0.317  0.00  0.00     0.090 C 
BRANCH  11  12
HETATM   12  C   UNK N   1       5.243   0.437  -0.428  0.00  0.00     0.173 C 
BRANCH  12  13
HETATM   13  S   UNK N   1       6.378   1.439   0.588  0.00  0.00     0.225 S 
HETATM   14  O   UNK N   1       5.776   2.294  -0.537  0.00  0.00    -0.206 OA
HETATM   15  O   UNK N   1       7.188   0.408  -0.213  0.00  0.00    -0.206 OA
BRANCH  13  16
HETATM   16  N   UNK N   1       7.746   2.411   0.046  0.00  0.00    -0.328 N 
HETATM   17  H   UNK N   1       8.628   2.006  -0.267  0.00  0.00     0.168 HD
HETATM   18  H   UNK N   1       7.650   3.426   0.046  0.00  0.00     0.168 HD
ENDBRANCH  13  16
ENDBRANCH  12  13
ENDBRANCH  11  12
ENDBRANCH  10  11
ENDBRANCH   1  10
TORSDOF 9
