MODEL 1
REMARK VINA RESULT:      -4.3      0.000      0.000
REMARK  1 active torsions:
REMARK  status: ('A' for Active; 'I' for Inactive)
REMARK    1  A    between atoms: C_2  and  C_4 
ROOT
HETATM    1  C   UNK N   1      34.590  17.132   9.190  0.00  0.00     0.082 A 
HETATM    2  N   UNK N   1      35.108  17.177  10.351  0.00  0.00    -0.388 N 
ATOM      3  HN  UNK N   1      35.601  17.992  10.716  1.00  0.00     0.159 HD
HETATM    4  C   UNK N   1      34.930  15.966  11.094  0.00  0.00     0.120 A 
HETATM    5  C   UNK N   1      34.146  15.046  10.152  0.00  0.00     0.026 A 
HETATM    6  C   UNK N   1      33.923  15.850   8.868  0.00  0.00     0.065 A 
ENDROOT
BRANCH   1   7
HETATM    7  C   UNK N   1      34.656  18.271   8.258  0.00  0.00     0.222 C 
HETATM    8  O   UNK N   1      35.366  19.367   8.581  0.00  0.00    -0.643 OA
HETATM    9  O   UNK N   1      34.068  18.223   7.189  0.00  0.00    -0.643 OA
ENDBRANCH   1   7
TORSDOF 1
ENDMDL
MODEL 2
REMARK VINA RESULT:      -4.2      2.308      3.100
REMARK  1 active torsions:
REMARK  status: ('A' for Active; 'I' for Inactive)
REMARK    1  A    between atoms: C_2  and  C_4 
ROOT
HETATM    1  C   UNK N   1      33.524  17.779   8.104  0.00  0.00     0.082 A 
HETATM    2  N   UNK N   1      32.450  17.551   8.745  0.00  0.00    -0.388 N 
ATOM      3  HN  UNK N   1      32.367  17.653   9.757  1.00  0.00     0.159 HD
HETATM    4  C   UNK N   1      31.368  17.137   7.904  0.00  0.00     0.120 A 
HETATM    5  C   UNK N   1      31.959  17.131   6.489  0.00  0.00     0.026 A 
HETATM    6  C   UNK N   1      33.418  17.568   6.641  0.00  0.00     0.065 A 
ENDROOT
BRANCH   1   7
HETATM    7  C   UNK N   1      34.760  18.216   8.775  0.00  0.00     0.222 C 
HETATM    8  O   UNK N   1      35.284  17.479   9.771  0.00  0.00    -0.643 OA
HETATM    9  O   UNK N   1      35.313  19.248   8.429  0.00  0.00    -0.643 OA
ENDBRANCH   1   7
TORSDOF 1
ENDMDL
MODEL 3
REMARK VINA RESULT:      -4.0     15.655     16.132
REMARK  1 active torsions:
REMARK  status: ('A' for Active; 'I' for Inactive)
REMARK    1  A    between atoms: C_2  and  C_4 
ROOT
HETATM    1  C   UNK N   1      20.598  19.095   1.682  0.00  0.00     0.082 A 
HETATM    2  N   UNK N   1      20.246  18.223   0.827  0.00  0.00    -0.388 N 
ATOM      3  HN  UNK N   1      20.223  18.398  -0.178  1.00  0.00     0.159 HD
HETATM    4  C   UNK N   1      19.886  16.969   1.416  0.00  0.00     0.120 A 
HETATM    5  C   UNK N   1      20.075  17.182   2.923  0.00  0.00     0.026 A 
HETATM    6  C   UNK N   1      20.557  18.625   3.086  0.00  0.00     0.065 A 
ENDROOT
BRANCH   1   7
HETATM    7  C   UNK N   1      21.009  20.455   1.292  0.00  0.00     0.222 C 
HETATM    8  O   UNK N   1      21.071  20.794  -0.009  0.00  0.00    -0.643 OA
HETATM    9  O   UNK N   1      21.294  21.279   2.146  0.00  0.00    -0.643 OA
ENDBRANCH   1   7
TORSDOF 1
ENDMDL
MODEL 4
REMARK VINA RESULT:      -4.0     12.602     13.236
REMARK  1 active torsions:
REMARK  status: ('A' for Active; 'I' for Inactive)
REMARK    1  A    between atoms: C_2  and  C_4 
ROOT
HETATM    1  C   UNK N   1      22.627  12.476  10.774  0.00  0.00     0.082 A 
HETATM    2  N   UNK N   1      21.784  11.852  11.494  0.00  0.00    -0.388 N 
ATOM      3  HN  UNK N   1      22.042  11.116  12.151  1.00  0.00     0.159 HD
HETATM    4  C   UNK N   1      20.436  12.288  11.289  0.00  0.00     0.120 A 
HETATM    5  C   UNK N   1      20.543  13.391  10.229  0.00  0.00     0.026 A 
HETATM    6  C   UNK N   1      22.032  13.506   9.891  0.00  0.00     0.065 A 
ENDROOT
BRANCH   1   7
HETATM    7  C   UNK N   1      24.070  12.185  10.827  0.00  0.00     0.222 C 
HETATM    8  O   UNK N   1      24.669  11.952  12.009  0.00  0.00    -0.643 OA
HETATM    9  O   UNK N   1      24.727  12.155   9.799  0.00  0.00    -0.643 OA
ENDBRANCH   1   7
TORSDOF 1
ENDMDL
MODEL 5
REMARK VINA RESULT:      -3.9     12.827     13.450
REMARK  1 active torsions:
REMARK  status: ('A' for Active; 'I' for Inactive)
REMARK    1  A    between atoms: C_2  and  C_4 
ROOT
HETATM    1  C   UNK N   1      21.886  13.315  10.132  0.00  0.00     0.082 A 
HETATM    2  N   UNK N   1      23.074  13.433   9.695  0.00  0.00    -0.388 N 
ATOM      3  HN  UNK N   1      23.354  14.134   9.009  1.00  0.00     0.159 HD
HETATM    4  C   UNK N   1      23.981  12.482  10.263  0.00  0.00     0.120 A 
HETATM    5  C   UNK N   1      23.120  11.653  11.223  0.00  0.00     0.026 A 
HETATM    6  C   UNK N   1      21.705  12.229  11.123  0.00  0.00     0.065 A 
ENDROOT
BRANCH   1   7
HETATM    7  C   UNK N   1      20.793  14.193   9.680  0.00  0.00     0.222 C 
HETATM    8  O   UNK N   1      19.512  13.844   9.899  0.00  0.00    -0.643 OA
HETATM    9  O   UNK N   1      21.046  15.240   9.106  0.00  0.00    -0.643 OA
ENDBRANCH   1   7
TORSDOF 1
ENDMDL
MODEL 6
REMARK VINA RESULT:      -3.8     11.224     11.881
REMARK  1 active torsions:
REMARK  status: ('A' for Active; 'I' for Inactive)
REMARK    1  A    between atoms: C_2  and  C_4 
ROOT
HETATM    1  C   UNK N   1      43.091  22.377   3.452  0.00  0.00     0.082 A 
HETATM    2  N   UNK N   1      42.751  23.428   2.822  0.00  0.00    -0.388 N 
ATOM      3  HN  UNK N   1      43.168  24.344   2.990  1.00  0.00     0.159 HD
HETATM    4  C   UNK N   1      41.724  23.196   1.852  0.00  0.00     0.120 A 
HETATM    5  C   UNK N   1      41.422  21.697   1.960  0.00  0.00     0.026 A 
HETATM    6  C   UNK N   1      42.355  21.157   3.047  0.00  0.00     0.065 A 
ENDROOT
BRANCH   1   7
HETATM    7  C   UNK N   1      44.132  22.390   4.495  0.00  0.00     0.222 C 
HETATM    8  O   UNK N   1      43.829  22.783   5.746  0.00  0.00    -0.643 OA
HETATM    9  O   UNK N   1      45.271  22.045   4.228  0.00  0.00    -0.643 OA
ENDBRANCH   1   7
TORSDOF 1
ENDMDL
MODEL 7
REMARK VINA RESULT:      -3.6      3.244      4.010
REMARK  1 active torsions:
REMARK  status: ('A' for Active; 'I' for Inactive)
REMARK    1  A    between atoms: C_2  and  C_4 
ROOT
HETATM    1  C   UNK N   1      35.869  14.935  12.185  0.00  0.00     0.082 A 
HETATM    2  N   UNK N   1      36.447  14.996  13.316  0.00  0.00    -0.388 N 
ATOM      3  HN  UNK N   1      37.063  15.760  13.593  1.00  0.00     0.159 HD
HETATM    4  C   UNK N   1      36.146  13.881  14.163  0.00  0.00     0.120 A 
HETATM    5  C   UNK N   1      35.198  13.009  13.332  0.00  0.00     0.026 A 
HETATM    6  C   UNK N   1      35.020  13.736  11.996  0.00  0.00     0.065 A 
ENDROOT
BRANCH   1   7
HETATM    7  C   UNK N   1      36.040  15.980  11.160  0.00  0.00     0.222 C 
HETATM    8  O   UNK N   1      35.115  16.947  11.021  0.00  0.00    -0.643 OA
HETATM    9  O   UNK N   1      37.021  15.971  10.434  0.00  0.00    -0.643 OA
ENDBRANCH   1   7
TORSDOF 1
ENDMDL
MODEL 8
REMARK VINA RESULT:      -3.6     13.751     14.476
REMARK  1 active torsions:
REMARK  status: ('A' for Active; 'I' for Inactive)
REMARK    1  A    between atoms: C_2  and  C_4 
ROOT
HETATM    1  C   UNK N   1      30.603  21.957  -3.592  0.00  0.00     0.082 A 
HETATM    2  N   UNK N   1      31.439  21.041  -3.310  0.00  0.00    -0.388 N 
ATOM      3  HN  UNK N   1      31.909  20.968  -2.408  1.00  0.00     0.159 HD
HETATM    4  C   UNK N   1      31.654  20.123  -4.387  0.00  0.00     0.120 A 
HETATM    5  C   UNK N   1      30.746  20.629  -5.514  0.00  0.00     0.026 A 
HETATM    6  C   UNK N   1      30.041  21.870  -4.960  0.00  0.00     0.065 A 
ENDROOT
BRANCH   1   7
HETATM    7  C   UNK N   1      30.235  23.007  -2.627  0.00  0.00     0.222 C 
HETATM    8  O   UNK N   1      29.535  24.082  -3.034  0.00  0.00    -0.643 OA
HETATM    9  O   UNK N   1      30.563  22.906  -1.456  0.00  0.00    -0.643 OA
ENDBRANCH   1   7
TORSDOF 1
ENDMDL
MODEL 9
REMARK VINA RESULT:      -3.5     13.846     15.175
REMARK  1 active torsions:
REMARK  status: ('A' for Active; 'I' for Inactive)
REMARK    1  A    between atoms: C_2  and  C_4 
ROOT
HETATM    1  C   UNK N   1      30.048  22.711  -3.736  0.00  0.00     0.082 A 
HETATM    2  N   UNK N   1      30.342  22.002  -4.750  0.00  0.00    -0.388 N 
ATOM      3  HN  UNK N   1      31.086  21.304  -4.751  1.00  0.00     0.159 HD
HETATM    4  C   UNK N   1      29.524  22.283  -5.890  0.00  0.00     0.120 A 
HETATM    5  C   UNK N   1      28.566  23.382  -5.417  0.00  0.00     0.026 A 
HETATM    6  C   UNK N   1      28.933  23.661  -3.957  0.00  0.00     0.065 A 
ENDROOT
BRANCH   1   7
HETATM    7  C   UNK N   1      30.765  22.584  -2.455  0.00  0.00     0.222 C 
HETATM    8  O   UNK N   1      30.241  23.109  -1.333  0.00  0.00    -0.643 OA
HETATM    9  O   UNK N   1      31.837  22.002  -2.408  0.00  0.00    -0.643 OA
ENDBRANCH   1   7
TORSDOF 1
ENDMDL
