MODEL 1
REMARK VINA RESULT:      -3.4      0.000      0.000
REMARK  0 active torsions:
REMARK  status: ('A' for Active; 'I' for Inactive)
ROOT
HETATM    1  C   UNK N   1      21.700  12.250  10.587  0.00  0.00     0.126 A 
HETATM    2  C   UNK N   1      23.502  11.892  11.800  0.00  0.00     0.126 A 
HETATM    3  C   UNK N   1      23.073  12.309  10.563  0.00  0.00     0.040 A 
HETATM    4  I   UNK N   1      24.266  12.916   8.952  0.00  0.00    -0.042 I 
HETATM    5  N   UNK N   1      21.331  11.811  11.805  0.00  0.00    -0.311 N 
HETATM    6  N   UNK N   1      22.414  11.596  12.534  0.00  0.00    -0.311 N 
ATOM      7  HN  UNK N   1      22.421  11.260  13.496  1.00  0.00     0.186 HD
HETATM    8  H   UNK N   1      20.403  11.672  12.104  0.00  0.00     0.186 HD
ENDROOT
TORSDOF 0
ENDMDL
MODEL 2
REMARK VINA RESULT:      -3.3      2.069      2.485
REMARK  0 active torsions:
REMARK  status: ('A' for Active; 'I' for Inactive)
ROOT
HETATM    1  C   UNK N   1      24.543  13.003   9.811  0.00  0.00     0.126 A 
HETATM    2  C   UNK N   1      22.972  12.295  11.182  0.00  0.00     0.126 A 
HETATM    3  C   UNK N   1      23.188  12.800   9.922  0.00  0.00     0.040 A 
HETATM    4  I   UNK N   1      21.745  13.187   8.454  0.00  0.00    -0.042 I 
HETATM    5  N   UNK N   1      25.110  12.628  10.973  0.00  0.00    -0.311 N 
HETATM    6  N   UNK N   1      24.166  12.203  11.797  0.00  0.00    -0.311 N 
ATOM      7  HN  UNK N   1      24.319  11.860  12.744  1.00  0.00     0.186 HD
HETATM    8  H   UNK N   1      26.072  12.665  11.176  0.00  0.00     0.186 HD
ENDROOT
TORSDOF 0
ENDMDL
MODEL 3
REMARK VINA RESULT:      -3.2     24.966     25.321
REMARK  0 active torsions:
REMARK  status: ('A' for Active; 'I' for Inactive)
ROOT
HETATM    1  C   UNK N   1      44.477  21.670   3.974  0.00  0.00     0.126 A 
HETATM    2  C   UNK N   1      44.484  23.322   2.518  0.00  0.00     0.126 A 
HETATM    3  C   UNK N   1      43.746  22.252   2.966  0.00  0.00     0.040 A 
HETATM    4  I   UNK N   1      41.876  21.626   2.259  0.00  0.00    -0.042 I 
HETATM    5  N   UNK N   1      45.614  22.376   4.116  0.00  0.00    -0.311 N 
HETATM    6  N   UNK N   1      45.618  23.368   3.241  0.00  0.00    -0.311 N 
ATOM      7  HN  UNK N   1      46.362  24.057   3.133  1.00  0.00     0.186 HD
HETATM    8  H   UNK N   1      46.327  22.184   4.767  0.00  0.00     0.186 HD
ENDROOT
TORSDOF 0
ENDMDL
MODEL 4
REMARK VINA RESULT:      -3.2     24.218     24.309
REMARK  0 active torsions:
REMARK  status: ('A' for Active; 'I' for Inactive)
ROOT
HETATM    1  C   UNK N   1      42.676  22.482   2.352  0.00  0.00     0.126 A 
HETATM    2  C   UNK N   1      43.909  22.272   4.165  0.00  0.00     0.126 A 
HETATM    3  C   UNK N   1      43.373  21.572   3.110  0.00  0.00     0.040 A 
HETATM    4  I   UNK N   1      43.573  19.522   2.726  0.00  0.00    -0.042 I 
HETATM    5  N   UNK N   1      42.798  23.685   2.944  0.00  0.00    -0.311 N 
HETATM    6  N   UNK N   1      43.539  23.559   4.032  0.00  0.00    -0.311 N 
ATOM      7  HN  UNK N   1      43.789  24.315   4.668  1.00  0.00     0.186 HD
HETATM    8  H   UNK N   1      42.399  24.524   2.617  0.00  0.00     0.186 HD
ENDROOT
TORSDOF 0
ENDMDL
MODEL 5
REMARK VINA RESULT:      -3.1     13.701     13.983
REMARK  0 active torsions:
REMARK  status: ('A' for Active; 'I' for Inactive)
ROOT
HETATM    1  C   UNK N   1      35.723  13.661  13.478  0.00  0.00     0.126 A 
HETATM    2  C   UNK N   1      36.462  13.150  15.488  0.00  0.00     0.126 A 
HETATM    3  C   UNK N   1      35.564  12.776  14.517  0.00  0.00     0.040 A 
HETATM    4  I   UNK N   1      34.215  11.175  14.596  0.00  0.00    -0.042 I 
HETATM    5  N   UNK N   1      36.688  14.532  13.827  0.00  0.00    -0.311 N 
HETATM    6  N   UNK N   1      37.132  14.225  15.035  0.00  0.00    -0.311 N 
ATOM      7  HN  UNK N   1      37.864  14.723  15.540  1.00  0.00     0.186 HD
HETATM    8  H   UNK N   1      37.011  15.279  13.271  0.00  0.00     0.186 HD
ENDROOT
TORSDOF 0
ENDMDL
MODEL 6
REMARK VINA RESULT:      -3.1      9.030      9.219
REMARK  0 active torsions:
REMARK  status: ('A' for Active; 'I' for Inactive)
ROOT
HETATM    1  C   UNK N   1      28.780  18.023   7.257  0.00  0.00     0.126 A 
HETATM    2  C   UNK N   1      28.966  18.174   9.446  0.00  0.00     0.126 A 
HETATM    3  C   UNK N   1      29.660  17.866   8.301  0.00  0.00     0.040 A 
HETATM    4  I   UNK N   1      31.665  17.275   8.162  0.00  0.00    -0.042 I 
HETATM    5  N   UNK N   1      27.599  18.412   7.773  0.00  0.00    -0.311 N 
HETATM    6  N   UNK N   1      27.711  18.503   9.088  0.00  0.00    -0.311 N 
ATOM      7  HN  UNK N   1      26.966  18.777   9.727  1.00  0.00     0.186 HD
HETATM    8  H   UNK N   1      26.784  18.599   7.254  0.00  0.00     0.186 HD
ENDROOT
TORSDOF 0
ENDMDL
MODEL 7
REMARK VINA RESULT:      -3.0     14.510     14.853
REMARK  0 active torsions:
REMARK  status: ('A' for Active; 'I' for Inactive)
ROOT
HETATM    1  C   UNK N   1      35.468  11.634  19.572  0.00  0.00     0.126 A 
HETATM    2  C   UNK N   1      35.117  13.122  17.986  0.00  0.00     0.126 A 
HETATM    3  C   UNK N   1      35.288  11.778  18.217  0.00  0.00     0.040 A 
HETATM    4  I   UNK N   1      35.280  10.243  16.791  0.00  0.00    -0.042 I 
HETATM    5  N   UNK N   1      35.404  12.860  20.125  0.00  0.00    -0.311 N 
HETATM    6  N   UNK N   1      35.193  13.754  19.172  0.00  0.00    -0.311 N 
ATOM      7  HN  UNK N   1      35.103  14.759  19.315  1.00  0.00     0.186 HD
HETATM    8  H   UNK N   1      35.499  13.058  21.084  0.00  0.00     0.186 HD
ENDROOT
TORSDOF 0
ENDMDL
MODEL 8
REMARK VINA RESULT:      -3.0     21.266     21.605
REMARK  0 active torsions:
REMARK  status: ('A' for Active; 'I' for Inactive)
ROOT
HETATM    1  C   UNK N   1      26.350  26.751  -3.155  0.00  0.00     0.126 A 
HETATM    2  C   UNK N   1      25.372  27.580  -4.946  0.00  0.00     0.126 A 
HETATM    3  C   UNK N   1      25.922  26.434  -4.423  0.00  0.00     0.040 A 
HETATM    4  I   UNK N   1      26.082  24.569  -5.363  0.00  0.00    -0.042 I 
HETATM    5  N   UNK N   1      26.060  28.047  -2.938  0.00  0.00    -0.311 N 
HETATM    6  N   UNK N   1      25.473  28.545  -4.014  0.00  0.00    -0.311 N 
ATOM      7  HN  UNK N   1      25.149  29.506  -4.119  1.00  0.00     0.186 HD
HETATM    8  H   UNK N   1      26.255  28.544  -2.110  0.00  0.00     0.186 HD
ENDROOT
TORSDOF 0
ENDMDL
MODEL 9
REMARK VINA RESULT:      -3.0     12.282     12.705
REMARK  0 active torsions:
REMARK  status: ('A' for Active; 'I' for Inactive)
ROOT
HETATM    1  C   UNK N   1      33.849  15.122  10.184  0.00  0.00     0.126 A 
HETATM    2  C   UNK N   1      35.415  16.310  11.176  0.00  0.00     0.126 A 
HETATM    3  C   UNK N   1      34.852  15.057  11.120  0.00  0.00     0.040 A 
HETATM    4  I   UNK N   1      35.408  13.374  12.238  0.00  0.00    -0.042 I 
HETATM    5  N   UNK N   1      33.821  16.378   9.701  0.00  0.00    -0.311 N 
HETATM    6  N   UNK N   1      34.762  17.091  10.297  0.00  0.00    -0.311 N 
ATOM      7  HN  UNK N   1      34.959  18.075  10.119  1.00  0.00     0.186 HD
HETATM    8  H   UNK N   1      33.199  16.711   9.014  0.00  0.00     0.186 HD
ENDROOT
TORSDOF 0
ENDMDL
