MODEL 1
REMARK VINA RESULT:      -6.6      0.000      0.000
REMARK  7 active torsions:
REMARK  status: ('A' for Active; 'I' for Inactive)
REMARK    1  A    between atoms: C_5  and  C_2 
REMARK    2  A    between atoms: O_24  and  C_2 
REMARK    3  A    between atoms: C_7  and  O_20 
REMARK    4  A    between atoms: N_12  and  C_9 
REMARK    5  A    between atoms: C_11  and  N_19 
REMARK    6  A    between atoms: P_26  and  O_22 
REMARK    7  A    between atoms: P_26  and  O_24 
ROOT
HETATM    1  C   UNK N   1      35.678  15.260   9.287  0.00  0.00     0.179 C 
HETATM    2  C   UNK N   1      34.997  16.398  10.067  0.00  0.00     0.182 C 
HETATM    3  C   UNK N   1      34.586  15.694  11.329  0.00  0.00     0.198 C 
HETATM    4  C   UNK N   1      35.781  14.764  11.466  0.00  0.00     0.262 C 
HETATM    5  O   UNK N   1      33.422  14.949  11.113  0.00  0.00    -0.388 OA
HETATM    6  O   UNK N   1      35.938  14.186  10.186  0.00  0.00    -0.353 OA
HETATM    7  H   UNK N   1      32.556  14.528  10.999  0.00  0.00     0.210 HD
ENDROOT
BRANCH   2   8
HETATM    8  O   UNK N   1      35.960  17.365  10.384  0.00  0.00    -0.390 OA
HETATM    9  H   UNK N   1      36.686  18.007  10.322  0.00  0.00     0.210 HD
ENDBRANCH   2   8
BRANCH   4  10
HETATM   10  N   UNK N   1      35.661  13.766  12.534  0.00  0.00    -0.297 N 
HETATM   11  C   UNK N   1      35.903  13.964  13.857  0.00  0.00     0.188 A 
HETATM   12  N   UNK N   1      35.492  12.899  14.605  0.00  0.00    -0.346 N 
HETATM   13  C   UNK N   1      34.967  12.045  13.708  0.00  0.00     0.122 A 
ATOM     14  HN  UNK N   1      35.566  12.778  15.615  1.00  0.00     0.167 HD
HETATM   15  C   UNK N   1      34.351  10.816  13.898  0.00  0.00     0.131 A 
HETATM   16  C   UNK N   1      35.066  12.564  12.469  0.00  0.00     0.142 A 
HETATM   17  N   UNK N   1      33.879  10.159  12.798  0.00  0.00    -0.337 N 
HETATM   18  C   UNK N   1      34.001  10.704  11.543  0.00  0.00     0.183 A 
ATOM     19  HN  UNK N   1      33.430   9.249  12.910  1.00  0.00     0.168 HD
HETATM   20  N   UNK N   1      34.588  11.928  11.374  0.00  0.00    -0.336 N 
ATOM     21  HN  UNK N   1      34.664  12.350  10.448  1.00  0.00     0.168 HD
BRANCH  15  22
HETATM   22  N   UNK N   1      34.190  10.267  15.186  0.00  0.00    -0.383 N 
HETATM   23  H   UNK N   1      33.673   9.439  15.308  0.00  0.00     0.157 HD
HETATM   24  H   UNK N   1      34.596  10.712  15.965  0.00  0.00     0.157 HD
ENDBRANCH  15  22
ENDBRANCH   4  10
BRANCH   1  25
HETATM   25  C   UNK N   1      34.805  14.834   8.101  0.00  0.00     0.213 C 
BRANCH  25  26
HETATM   26  O   UNK N   1      33.673  15.656   7.990  0.00  0.00    -0.316 OA
BRANCH  26  27
HETATM   27  P   UNK N   1      33.903  16.686   6.581  0.00  0.00     0.234 P 
HETATM   28  C   UNK N   1      32.479  16.822   5.399  0.00  0.00     0.142 C 
HETATM   29  O   UNK N   1      35.090  16.017   5.836  0.00  0.00    -0.654 OA
BRANCH  27  30
HETATM   30  O   UNK N   1      34.566  18.223   7.058  0.00  0.00    -0.329 OA
HETATM   31  H   UNK N   1      34.049  19.039   6.987  0.00  0.00     0.220 HD
ENDBRANCH  27  30
ENDBRANCH  26  27
ENDBRANCH  25  26
ENDBRANCH   1  25
TORSDOF 7
ENDMDL
MODEL 2
REMARK VINA RESULT:      -6.6      3.211      5.098
REMARK  7 active torsions:
REMARK  status: ('A' for Active; 'I' for Inactive)
REMARK    1  A    between atoms: C_5  and  C_2 
REMARK    2  A    between atoms: O_24  and  C_2 
REMARK    3  A    between atoms: C_7  and  O_20 
REMARK    4  A    between atoms: N_12  and  C_9 
REMARK    5  A    between atoms: C_11  and  N_19 
REMARK    6  A    between atoms: P_26  and  O_22 
REMARK    7  A    between atoms: P_26  and  O_24 
ROOT
HETATM    1  C   UNK N   1      35.317  13.005  12.720  0.00  0.00     0.179 C 
HETATM    2  C   UNK N   1      36.656  12.257  12.604  0.00  0.00     0.182 C 
HETATM    3  C   UNK N   1      36.895  11.844  14.029  0.00  0.00     0.198 C 
HETATM    4  C   UNK N   1      35.454  11.562  14.425  0.00  0.00     0.262 C 
HETATM    5  O   UNK N   1      37.393  12.920  14.770  0.00  0.00    -0.388 OA
HETATM    6  O   UNK N   1      34.730  12.691  13.979  0.00  0.00    -0.353 OA
HETATM    7  H   UNK N   1      37.846  13.627  15.256  0.00  0.00     0.210 HD
ENDROOT
BRANCH   2   8
HETATM    8  O   UNK N   1      36.463  11.107  11.828  0.00  0.00    -0.390 OA
HETATM    9  H   UNK N   1      36.602  10.261  11.372  0.00  0.00     0.210 HD
ENDBRANCH   2   8
BRANCH   4  10
HETATM   10  N   UNK N   1      35.255  11.280  15.850  0.00  0.00    -0.297 N 
HETATM   11  C   UNK N   1      35.279  10.057  16.443  0.00  0.00     0.188 A 
HETATM   12  N   UNK N   1      35.273  10.161  17.804  0.00  0.00    -0.346 N 
HETATM   13  C   UNK N   1      35.268  11.486  18.036  0.00  0.00     0.122 A 
ATOM     14  HN  UNK N   1      35.272   9.406  18.489  1.00  0.00     0.167 HD
HETATM   15  C   UNK N   1      35.309  12.183  19.234  0.00  0.00     0.131 A 
HETATM   16  C   UNK N   1      35.258  12.156  16.868  0.00  0.00     0.142 A 
HETATM   17  N   UNK N   1      35.318  13.548  19.183  0.00  0.00    -0.337 N 
HETATM   18  C   UNK N   1      35.297  14.209  17.979  0.00  0.00     0.183 A 
ATOM     19  HN  UNK N   1      35.338  14.085  20.050  1.00  0.00     0.168 HD
HETATM   20  N   UNK N   1      35.283  13.508  16.804  0.00  0.00    -0.336 N 
ATOM     21  HN  UNK N   1      35.289  13.990  15.905  1.00  0.00     0.168 HD
BRANCH  15  22
HETATM   22  N   UNK N   1      35.366  11.513  20.473  0.00  0.00    -0.383 N 
HETATM   23  H   UNK N   1      34.794  11.804  21.218  0.00  0.00     0.157 HD
HETATM   24  H   UNK N   1      35.979  10.751  20.592  0.00  0.00     0.157 HD
ENDBRANCH  15  22
ENDBRANCH   4  10
BRANCH   1  25
HETATM   25  C   UNK N   1      35.532  14.511  12.532  0.00  0.00     0.213 C 
BRANCH  25  26
HETATM   26  O   UNK N   1      34.484  15.079  11.791  0.00  0.00    -0.316 OA
BRANCH  26  27
HETATM   27  P   UNK N   1      35.186  15.792  10.343  0.00  0.00     0.234 P 
HETATM   28  C   UNK N   1      35.462  14.658   8.899  0.00  0.00     0.142 C 
HETATM   29  O   UNK N   1      36.568  16.306  10.827  0.00  0.00    -0.654 OA
BRANCH  27  30
HETATM   30  O   UNK N   1      34.353  17.263   9.929  0.00  0.00    -0.329 OA
HETATM   31  H   UNK N   1      34.713  18.131  10.169  0.00  0.00     0.220 HD
ENDBRANCH  27  30
ENDBRANCH  26  27
ENDBRANCH  25  26
ENDBRANCH   1  25
TORSDOF 7
ENDMDL
MODEL 3
REMARK VINA RESULT:      -6.4      4.225      7.088
REMARK  7 active torsions:
REMARK  status: ('A' for Active; 'I' for Inactive)
REMARK    1  A    between atoms: C_5  and  C_2 
REMARK    2  A    between atoms: O_24  and  C_2 
REMARK    3  A    between atoms: C_7  and  O_20 
REMARK    4  A    between atoms: N_12  and  C_9 
REMARK    5  A    between atoms: C_11  and  N_19 
REMARK    6  A    between atoms: P_26  and  O_22 
REMARK    7  A    between atoms: P_26  and  O_24 
ROOT
HETATM    1  C   UNK N   1      37.142  12.302  12.519  0.00  0.00     0.179 C 
HETATM    2  C   UNK N   1      36.001  11.480  11.897  0.00  0.00     0.182 C 
HETATM    3  C   UNK N   1      35.060  12.563  11.447  0.00  0.00     0.198 C 
HETATM    4  C   UNK N   1      36.094  13.595  11.023  0.00  0.00     0.262 C 
HETATM    5  O   UNK N   1      34.319  13.045  12.531  0.00  0.00    -0.388 OA
HETATM    6  O   UNK N   1      37.005  13.657  12.102  0.00  0.00    -0.353 OA
HETATM    7  H   UNK N   1      33.724  13.298  13.254  0.00  0.00     0.210 HD
ENDROOT
BRANCH   2   8
HETATM    8  O   UNK N   1      36.491  10.811  10.767  0.00  0.00    -0.390 OA
HETATM    9  H   UNK N   1      36.836  10.618   9.881  0.00  0.00     0.210 HD
ENDBRANCH   2   8
BRANCH   4  10
HETATM   10  N   UNK N   1      35.540  14.905  10.665  0.00  0.00    -0.297 N 
HETATM   11  C   UNK N   1      35.524  16.017  11.446  0.00  0.00     0.188 A 
HETATM   12  N   UNK N   1      35.133  17.118  10.740  0.00  0.00    -0.346 N 
HETATM   13  C   UNK N   1      34.930  16.658   9.492  0.00  0.00     0.122 A 
ATOM     14  HN  UNK N   1      35.020  18.072  11.081  1.00  0.00     0.167 HD
HETATM   15  C   UNK N   1      34.568  17.337   8.338  0.00  0.00     0.131 A 
HETATM   16  C   UNK N   1      35.174  15.334   9.446  0.00  0.00     0.142 A 
HETATM   17  N   UNK N   1      34.452  16.619   7.181  0.00  0.00    -0.337 N 
HETATM   18  C   UNK N   1      34.697  15.267   7.161  0.00  0.00     0.183 A 
ATOM     19  HN  UNK N   1      34.178  17.093   6.320  1.00  0.00     0.168 HD
HETATM   20  N   UNK N   1      35.077  14.616   8.303  0.00  0.00    -0.336 N 
ATOM     21  HN  UNK N   1      35.281  13.617   8.293  1.00  0.00     0.168 HD
BRANCH  15  22
HETATM   22  N   UNK N   1      34.350  18.729   8.342  0.00  0.00    -0.383 N 
HETATM   23  H   UNK N   1      33.449  19.086   8.507  0.00  0.00     0.157 HD
HETATM   24  H   UNK N   1      35.101  19.345   8.180  0.00  0.00     0.157 HD
ENDBRANCH  15  22
ENDBRANCH   4  10
BRANCH   1  25
HETATM   25  C   UNK N   1      37.133  12.154  14.045  0.00  0.00     0.213 C 
BRANCH  25  26
HETATM   26  O   UNK N   1      36.577  13.289  14.655  0.00  0.00    -0.316 OA
BRANCH  26  27
HETATM   27  P   UNK N   1      35.592  12.734  16.005  0.00  0.00     0.234 P 
HETATM   28  C   UNK N   1      35.892  11.005  16.609  0.00  0.00     0.142 C 
HETATM   29  O   UNK N   1      34.145  12.811  15.450  0.00  0.00    -0.654 OA
BRANCH  27  30
HETATM   30  O   UNK N   1      35.580  13.926  17.273  0.00  0.00    -0.329 OA
HETATM   31  H   UNK N   1      36.401  14.219  17.698  0.00  0.00     0.220 HD
ENDBRANCH  27  30
ENDBRANCH  26  27
ENDBRANCH  25  26
ENDBRANCH   1  25
TORSDOF 7
ENDMDL
MODEL 4
REMARK VINA RESULT:      -6.4      1.023      2.045
REMARK  7 active torsions:
REMARK  status: ('A' for Active; 'I' for Inactive)
REMARK    1  A    between atoms: C_5  and  C_2 
REMARK    2  A    between atoms: O_24  and  C_2 
REMARK    3  A    between atoms: C_7  and  O_20 
REMARK    4  A    between atoms: N_12  and  C_9 
REMARK    5  A    between atoms: C_11  and  N_19 
REMARK    6  A    between atoms: P_26  and  O_22 
REMARK    7  A    between atoms: P_26  and  O_24 
ROOT
HETATM    1  C   UNK N   1      35.786  14.632   9.401  0.00  0.00     0.179 C 
HETATM    2  C   UNK N   1      35.588  15.811  10.369  0.00  0.00     0.182 C 
HETATM    3  C   UNK N   1      34.919  15.136  11.533  0.00  0.00     0.198 C 
HETATM    4  C   UNK N   1      35.659  13.809  11.478  0.00  0.00     0.262 C 
HETATM    5  O   UNK N   1      33.561  14.938  11.265  0.00  0.00    -0.388 OA
HETATM    6  O   UNK N   1      35.598  13.417  10.121  0.00  0.00    -0.353 OA
HETATM    7  H   UNK N   1      32.600  14.905  11.131  0.00  0.00     0.210 HD
ENDROOT
BRANCH   2   8
HETATM    8  O   UNK N   1      36.846  16.273  10.778  0.00  0.00    -0.390 OA
HETATM    9  H   UNK N   1      37.598  16.556  11.322  0.00  0.00     0.210 HD
ENDBRANCH   2   8
BRANCH   4  10
HETATM   10  N   UNK N   1      35.147  12.784  12.394  0.00  0.00    -0.297 N 
HETATM   11  C   UNK N   1      34.640  11.571  12.047  0.00  0.00     0.188 A 
HETATM   12  N   UNK N   1      34.454  10.776  13.141  0.00  0.00    -0.346 N 
HETATM   13  C   UNK N   1      34.883  11.525  14.174  0.00  0.00     0.122 A 
ATOM     14  HN  UNK N   1      34.075   9.830  13.170  1.00  0.00     0.167 HD
HETATM   15  C   UNK N   1      34.976  11.218  15.523  0.00  0.00     0.131 A 
HETATM   16  C   UNK N   1      35.299  12.726  13.727  0.00  0.00     0.142 A 
HETATM   17  N   UNK N   1      35.478  12.169  16.365  0.00  0.00    -0.337 N 
HETATM   18  C   UNK N   1      35.887  13.391  15.887  0.00  0.00     0.183 A 
ATOM     19  HN  UNK N   1      35.548  11.971  17.363  1.00  0.00     0.168 HD
HETATM   20  N   UNK N   1      35.812  13.670  14.550  0.00  0.00    -0.336 N 
ATOM     21  HN  UNK N   1      36.132  14.567  14.183  1.00  0.00     0.168 HD
BRANCH  15  22
HETATM   22  N   UNK N   1      34.593   9.954  16.016  0.00  0.00    -0.383 N 
HETATM   23  H   UNK N   1      34.388   9.839  16.972  0.00  0.00     0.157 HD
HETATM   24  H   UNK N   1      34.529   9.186  15.404  0.00  0.00     0.157 HD
ENDBRANCH  15  22
ENDBRANCH   4  10
BRANCH   1  25
HETATM   25  C   UNK N   1      34.832  14.759   8.207  0.00  0.00     0.213 C 
BRANCH  25  26
HETATM   26  O   UNK N   1      33.905  15.792   8.415  0.00  0.00    -0.316 OA
BRANCH  26  27
HETATM   27  P   UNK N   1      33.965  16.848   7.007  0.00  0.00     0.234 P 
HETATM   28  C   UNK N   1      32.401  17.029   6.025  0.00  0.00     0.142 C 
HETATM   29  O   UNK N   1      35.033  16.179   6.101  0.00  0.00    -0.654 OA
BRANCH  27  30
HETATM   30  O   UNK N   1      34.711  18.365   7.422  0.00  0.00    -0.329 OA
HETATM   31  H   UNK N   1      35.110  18.509   8.294  0.00  0.00     0.220 HD
ENDBRANCH  27  30
ENDBRANCH  26  27
ENDBRANCH  25  26
ENDBRANCH   1  25
TORSDOF 7
ENDMDL
MODEL 5
REMARK VINA RESULT:      -6.2      3.637      5.910
REMARK  7 active torsions:
REMARK  status: ('A' for Active; 'I' for Inactive)
REMARK    1  A    between atoms: C_5  and  C_2 
REMARK    2  A    between atoms: O_24  and  C_2 
REMARK    3  A    between atoms: C_7  and  O_20 
REMARK    4  A    between atoms: N_12  and  C_9 
REMARK    5  A    between atoms: C_11  and  N_19 
REMARK    6  A    between atoms: P_26  and  O_22 
REMARK    7  A    between atoms: P_26  and  O_24 
ROOT
HETATM    1  C   UNK N   1      35.397  12.103  12.976  0.00  0.00     0.179 C 
HETATM    2  C   UNK N   1      36.875  12.474  12.767  0.00  0.00     0.182 C 
HETATM    3  C   UNK N   1      36.770  13.551  11.724  0.00  0.00     0.198 C 
HETATM    4  C   UNK N   1      35.481  14.200  12.202  0.00  0.00     0.262 C 
HETATM    5  O   UNK N   1      36.582  12.987  10.459  0.00  0.00    -0.388 OA
HETATM    6  O   UNK N   1      34.587  13.124  12.402  0.00  0.00    -0.353 OA
HETATM    7  H   UNK N   1      36.568  12.598   9.570  0.00  0.00     0.210 HD
ENDROOT
BRANCH   2   8
HETATM    8  O   UNK N   1      37.369  13.039  13.950  0.00  0.00    -0.390 OA
HETATM    9  H   UNK N   1      37.708  13.154  14.852  0.00  0.00     0.210 HD
ENDBRANCH   2   8
BRANCH   4  10
HETATM   10  N   UNK N   1      34.945  15.231  11.306  0.00  0.00    -0.297 N 
HETATM   11  C   UNK N   1      35.371  16.518  11.208  0.00  0.00     0.188 A 
HETATM   12  N   UNK N   1      34.812  17.149  10.135  0.00  0.00    -0.346 N 
HETATM   13  C   UNK N   1      34.043  16.207   9.558  0.00  0.00     0.122 A 
ATOM     14  HN  UNK N   1      34.944  18.116   9.838  1.00  0.00     0.167 HD
HETATM   15  C   UNK N   1      33.276  16.263   8.404  0.00  0.00     0.131 A 
HETATM   16  C   UNK N   1      34.124  15.059  10.257  0.00  0.00     0.142 A 
HETATM   17  N   UNK N   1      32.603  15.136   8.025  0.00  0.00    -0.337 N 
HETATM   18  C   UNK N   1      32.693  13.979   8.760  0.00  0.00     0.183 A 
ATOM     19  HN  UNK N   1      32.025  15.154   7.185  1.00  0.00     0.168 HD
HETATM   20  N   UNK N   1      33.474  13.932   9.883  0.00  0.00    -0.336 N 
ATOM     21  HN  UNK N   1      33.563  13.071  10.423  1.00  0.00     0.168 HD
BRANCH  15  22
HETATM   22  N   UNK N   1      33.207  17.435   7.624  0.00  0.00    -0.383 N 
HETATM   23  H   UNK N   1      33.706  17.495   6.779  0.00  0.00     0.157 HD
HETATM   24  H   UNK N   1      32.659  18.196   7.927  0.00  0.00     0.157 HD
ENDBRANCH  15  22
ENDBRANCH   4  10
BRANCH   1  25
HETATM   25  C   UNK N   1      35.108  10.720  12.380  0.00  0.00     0.213 C 
BRANCH  25  26
HETATM   26  O   UNK N   1      33.740  10.566  12.110  0.00  0.00    -0.316 OA
BRANCH  26  27
HETATM   27  P   UNK N   1      33.579  10.173  10.402  0.00  0.00     0.234 P 
HETATM   28  C   UNK N   1      33.850   8.402   9.919  0.00  0.00     0.142 C 
HETATM   29  O   UNK N   1      34.680  11.035   9.728  0.00  0.00    -0.654 OA
BRANCH  27  30
HETATM   30  O   UNK N   1      32.112  10.856   9.761  0.00  0.00    -0.329 OA
HETATM   31  H   UNK N   1      32.128  11.484   9.022  0.00  0.00     0.220 HD
ENDBRANCH  27  30
ENDBRANCH  26  27
ENDBRANCH  25  26
ENDBRANCH   1  25
TORSDOF 7
ENDMDL
MODEL 6
REMARK VINA RESULT:      -6.2      5.434      7.615
REMARK  7 active torsions:
REMARK  status: ('A' for Active; 'I' for Inactive)
REMARK    1  A    between atoms: C_5  and  C_2 
REMARK    2  A    between atoms: O_24  and  C_2 
REMARK    3  A    between atoms: C_7  and  O_20 
REMARK    4  A    between atoms: N_12  and  C_9 
REMARK    5  A    between atoms: C_11  and  N_19 
REMARK    6  A    between atoms: P_26  and  O_22 
REMARK    7  A    between atoms: P_26  and  O_24 
ROOT
HETATM    1  C   UNK N   1      32.772  15.047   8.165  0.00  0.00     0.179 C 
HETATM    2  C   UNK N   1      33.574  16.213   8.767  0.00  0.00     0.182 C 
HETATM    3  C   UNK N   1      32.597  17.348   8.642  0.00  0.00     0.198 C 
HETATM    4  C   UNK N   1      31.318  16.573   8.917  0.00  0.00     0.262 C 
HETATM    5  O   UNK N   1      32.588  17.839   7.333  0.00  0.00    -0.388 OA
HETATM    6  O   UNK N   1      31.402  15.431   8.088  0.00  0.00    -0.353 OA
HETATM    7  H   UNK N   1      32.663  18.256   6.460  0.00  0.00     0.210 HD
ENDROOT
BRANCH   2   8
HETATM    8  O   UNK N   1      33.792  15.955  10.127  0.00  0.00    -0.390 OA
HETATM    9  H   UNK N   1      33.658  15.823  11.080  0.00  0.00     0.210 HD
ENDBRANCH   2   8
BRANCH   4  10
HETATM   10  N   UNK N   1      30.083  17.338   8.714  0.00  0.00    -0.297 N 
HETATM   11  C   UNK N   1      29.408  18.048   9.656  0.00  0.00     0.188 A 
HETATM   12  N   UNK N   1      28.426  18.813   9.097  0.00  0.00    -0.346 N 
HETATM   13  C   UNK N   1      28.529  18.574   7.776  0.00  0.00     0.122 A 
ATOM     14  HN  UNK N   1      27.764  19.428   9.571  1.00  0.00     0.167 HD
HETATM   15  C   UNK N   1      27.820  19.112   6.713  0.00  0.00     0.131 A 
HETATM   16  C   UNK N   1      29.520  17.692   7.547  0.00  0.00     0.142 A 
HETATM   17  N   UNK N   1      28.148  18.705   5.451  0.00  0.00    -0.337 N 
HETATM   18  C   UNK N   1      29.158  17.797   5.243  0.00  0.00     0.183 A 
ATOM     19  HN  UNK N   1      27.636  19.079   4.652  1.00  0.00     0.168 HD
HETATM   20  N   UNK N   1      29.864  17.293   6.300  0.00  0.00    -0.336 N 
ATOM     21  HN  UNK N   1      30.630  16.634   6.153  1.00  0.00     0.168 HD
BRANCH  15  22
HETATM   22  N   UNK N   1      26.807  20.071   6.916  0.00  0.00    -0.383 N 
HETATM   23  H   UNK N   1      26.820  20.640   7.718  0.00  0.00     0.157 HD
HETATM   24  H   UNK N   1      26.085  20.171   6.254  0.00  0.00     0.157 HD
ENDBRANCH  15  22
ENDBRANCH   4  10
BRANCH   1  25
HETATM   25  C   UNK N   1      33.349  14.655   6.800  0.00  0.00     0.213 C 
BRANCH  25  26
HETATM   26  O   UNK N   1      32.456  14.978   5.767  0.00  0.00    -0.316 OA
BRANCH  26  27
HETATM   27  P   UNK N   1      33.315  16.015   4.632  0.00  0.00     0.234 P 
HETATM   28  C   UNK N   1      33.792  15.263   3.003  0.00  0.00     0.142 C 
HETATM   29  O   UNK N   1      34.615  16.386   5.395  0.00  0.00    -0.654 OA
BRANCH  27  30
HETATM   30  O   UNK N   1      32.506  17.549   4.484  0.00  0.00    -0.329 OA
HETATM   31  H   UNK N   1      32.944  18.377   4.734  0.00  0.00     0.220 HD
ENDBRANCH  27  30
ENDBRANCH  26  27
ENDBRANCH  25  26
ENDBRANCH   1  25
TORSDOF 7
ENDMDL
MODEL 7
REMARK VINA RESULT:      -6.2      1.689      2.350
REMARK  7 active torsions:
REMARK  status: ('A' for Active; 'I' for Inactive)
REMARK    1  A    between atoms: C_5  and  C_2 
REMARK    2  A    between atoms: O_24  and  C_2 
REMARK    3  A    between atoms: C_7  and  O_20 
REMARK    4  A    between atoms: N_12  and  C_9 
REMARK    5  A    between atoms: C_11  and  N_19 
REMARK    6  A    between atoms: P_26  and  O_22 
REMARK    7  A    between atoms: P_26  and  O_24 
ROOT
HETATM    1  C   UNK N   1      35.497  15.179   9.192  0.00  0.00     0.179 C 
HETATM    2  C   UNK N   1      34.809  16.318   9.964  0.00  0.00     0.182 C 
HETATM    3  C   UNK N   1      34.446  15.633  11.251  0.00  0.00     0.198 C 
HETATM    4  C   UNK N   1      35.667  14.735  11.379  0.00  0.00     0.262 C 
HETATM    5  O   UNK N   1      33.296  14.856  11.082  0.00  0.00    -0.388 OA
HETATM    6  O   UNK N   1      35.806  14.132  10.108  0.00  0.00    -0.353 OA
HETATM    7  H   UNK N   1      32.437  14.412  10.999  0.00  0.00     0.210 HD
ENDROOT
BRANCH   2   8
HETATM    8  O   UNK N   1      35.756  17.314  10.234  0.00  0.00    -0.390 OA
HETATM    9  H   UNK N   1      36.587  17.775  10.433  0.00  0.00     0.210 HD
ENDBRANCH   2   8
BRANCH   4  10
HETATM   10  N   UNK N   1      35.597  13.759  12.472  0.00  0.00    -0.297 N 
HETATM   11  C   UNK N   1      35.871  13.992  13.782  0.00  0.00     0.188 A 
HETATM   12  N   UNK N   1      35.504  12.936  14.565  0.00  0.00    -0.346 N 
HETATM   13  C   UNK N   1      34.973  12.051  13.701  0.00  0.00     0.122 A 
ATOM     14  HN  UNK N   1      35.608  12.839  15.575  1.00  0.00     0.167 HD
HETATM   15  C   UNK N   1      34.391  10.814  13.935  0.00  0.00     0.131 A 
HETATM   16  C   UNK N   1      35.028  12.543  12.449  0.00  0.00     0.142 A 
HETATM   17  N   UNK N   1      33.903  10.121  12.863  0.00  0.00    -0.337 N 
HETATM   18  C   UNK N   1      33.980  10.640  11.594  0.00  0.00     0.183 A 
ATOM     19  HN  UNK N   1      33.479   9.205  13.008  1.00  0.00     0.168 HD
HETATM   20  N   UNK N   1      34.535  11.872  11.382  0.00  0.00    -0.336 N 
ATOM     21  HN  UNK N   1      34.577  12.275  10.445  1.00  0.00     0.168 HD
BRANCH  15  22
HETATM   22  N   UNK N   1      34.277  10.290  15.239  0.00  0.00    -0.383 N 
HETATM   23  H   UNK N   1      35.053   9.865  15.669  0.00  0.00     0.157 HD
HETATM   24  H   UNK N   1      33.419  10.350  15.719  0.00  0.00     0.157 HD
ENDBRANCH  15  22
ENDBRANCH   4  10
BRANCH   1  25
HETATM   25  C   UNK N   1      34.606  14.705   8.039  0.00  0.00     0.213 C 
BRANCH  25  26
HETATM   26  O   UNK N   1      34.955  13.407   7.636  0.00  0.00    -0.316 OA
BRANCH  26  27
HETATM   27  P   UNK N   1      33.524  12.396   7.808  0.00  0.00     0.234 P 
HETATM   28  C   UNK N   1      33.775  10.560   7.706  0.00  0.00     0.142 C 
HETATM   29  O   UNK N   1      32.630  12.831   6.616  0.00  0.00    -0.654 OA
BRANCH  27  30
HETATM   30  O   UNK N   1      32.592  12.899   9.190  0.00  0.00    -0.329 OA
HETATM   31  H   UNK N   1      32.663  13.798   9.546  0.00  0.00     0.220 HD
ENDBRANCH  27  30
ENDBRANCH  26  27
ENDBRANCH  25  26
ENDBRANCH   1  25
TORSDOF 7
ENDMDL
MODEL 8
REMARK VINA RESULT:      -6.1     15.243     17.402
REMARK  7 active torsions:
REMARK  status: ('A' for Active; 'I' for Inactive)
REMARK    1  A    between atoms: C_5  and  C_2 
REMARK    2  A    between atoms: O_24  and  C_2 
REMARK    3  A    between atoms: C_7  and  O_20 
REMARK    4  A    between atoms: N_12  and  C_9 
REMARK    5  A    between atoms: C_11  and  N_19 
REMARK    6  A    between atoms: P_26  and  O_22 
REMARK    7  A    between atoms: P_26  and  O_24 
ROOT
HETATM    1  C   UNK N   1      21.066  14.153   4.814  0.00  0.00     0.179 C 
HETATM    2  C   UNK N   1      19.611  13.793   4.471  0.00  0.00     0.182 C 
HETATM    3  C   UNK N   1      19.196  14.976   3.642  0.00  0.00     0.198 C 
HETATM    4  C   UNK N   1      20.515  15.222   2.927  0.00  0.00     0.262 C 
HETATM    5  O   UNK N   1      18.887  16.063   4.465  0.00  0.00    -0.388 OA
HETATM    6  O   UNK N   1      21.489  15.205   3.952  0.00  0.00    -0.353 OA
HETATM    7  H   UNK N   1      18.562  16.778   5.035  0.00  0.00     0.210 HD
ENDROOT
BRANCH   2   8
HETATM    8  O   UNK N   1      19.608  12.651   3.660  0.00  0.00    -0.390 OA
HETATM    9  H   UNK N   1      19.369  11.803   3.252  0.00  0.00     0.210 HD
ENDBRANCH   2   8
BRANCH   4  10
HETATM   10  N   UNK N   1      20.555  16.446   2.120  0.00  0.00    -0.297 N 
HETATM   11  C   UNK N   1      20.179  16.569   0.820  0.00  0.00     0.188 A 
HETATM   12  N   UNK N   1      20.137  17.877   0.433  0.00  0.00    -0.346 N 
HETATM   13  C   UNK N   1      20.477  18.562   1.541  0.00  0.00     0.122 A 
ATOM     14  HN  UNK N   1      19.903  18.252  -0.486  1.00  0.00     0.167 HD
HETATM   15  C   UNK N   1      20.556  19.930   1.756  0.00  0.00     0.131 A 
HETATM   16  C   UNK N   1      20.726  17.707   2.550  0.00  0.00     0.142 A 
HETATM   17  N   UNK N   1      20.908  20.364   3.003  0.00  0.00    -0.337 N 
HETATM   18  C   UNK N   1      21.167  19.472   4.014  0.00  0.00     0.183 A 
ATOM     19  HN  UNK N   1      20.982  21.365   3.184  1.00  0.00     0.168 HD
HETATM   20  N   UNK N   1      21.061  18.126   3.793  0.00  0.00    -0.336 N 
ATOM     21  HN  UNK N   1      21.231  17.456   4.544  1.00  0.00     0.168 HD
BRANCH  15  22
HETATM   22  N   UNK N   1      20.257  20.853   0.733  0.00  0.00    -0.383 N 
HETATM   23  H   UNK N   1      20.166  21.810   0.944  0.00  0.00     0.157 HD
HETATM   24  H   UNK N   1      20.139  20.540  -0.193  0.00  0.00     0.157 HD
ENDBRANCH  15  22
ENDBRANCH   4  10
BRANCH   1  25
HETATM   25  C   UNK N   1      21.186  14.526   6.297  0.00  0.00     0.213 C 
BRANCH  25  26
HETATM   26  O   UNK N   1      19.923  14.786   6.852  0.00  0.00    -0.316 OA
BRANCH  26  27
HETATM   27  P   UNK N   1      20.162  15.853   8.231  0.00  0.00     0.234 P 
HETATM   28  C   UNK N   1      18.654  16.698   8.909  0.00  0.00     0.142 C 
HETATM   29  O   UNK N   1      21.122  16.942   7.682  0.00  0.00    -0.654 OA
BRANCH  27  30
HETATM   30  O   UNK N   1      21.129  15.065   9.445  0.00  0.00    -0.329 OA
HETATM   31  H   UNK N   1      21.742  14.350   9.215  0.00  0.00     0.220 HD
ENDBRANCH  27  30
ENDBRANCH  26  27
ENDBRANCH  25  26
ENDBRANCH   1  25
TORSDOF 7
ENDMDL
MODEL 9
REMARK VINA RESULT:      -6.1      3.251      4.143
REMARK  7 active torsions:
REMARK  status: ('A' for Active; 'I' for Inactive)
REMARK    1  A    between atoms: C_5  and  C_2 
REMARK    2  A    between atoms: O_24  and  C_2 
REMARK    3  A    between atoms: C_7  and  O_20 
REMARK    4  A    between atoms: N_12  and  C_9 
REMARK    5  A    between atoms: C_11  and  N_19 
REMARK    6  A    between atoms: P_26  and  O_22 
REMARK    7  A    between atoms: P_26  and  O_24 
ROOT
HETATM    1  C   UNK N   1      33.336  17.782   7.467  0.00  0.00     0.179 C 
HETATM    2  C   UNK N   1      32.189  17.072   8.206  0.00  0.00     0.182 C 
HETATM    3  C   UNK N   1      32.940  16.069   9.036  0.00  0.00     0.198 C 
HETATM    4  C   UNK N   1      34.162  16.916   9.358  0.00  0.00     0.262 C 
HETATM    5  O   UNK N   1      33.311  14.971   8.254  0.00  0.00    -0.388 OA
HETATM    6  O   UNK N   1      34.562  17.458   8.116  0.00  0.00    -0.353 OA
HETATM    7  H   UNK N   1      33.467  14.159   7.746  0.00  0.00     0.210 HD
ENDROOT
BRANCH   2   8
HETATM    8  O   UNK N   1      31.568  17.991   9.062  0.00  0.00    -0.390 OA
HETATM    9  H   UNK N   1      31.409  18.654   9.753  0.00  0.00     0.210 HD
ENDBRANCH   2   8
BRANCH   4  10
HETATM   10  N   UNK N   1      35.241  16.197  10.043  0.00  0.00    -0.297 N 
HETATM   11  C   UNK N   1      35.494  16.202  11.379  0.00  0.00     0.188 A 
HETATM   12  N   UNK N   1      36.430  15.266  11.713  0.00  0.00    -0.346 N 
HETATM   13  C   UNK N   1      36.732  14.666  10.547  0.00  0.00     0.122 A 
ATOM     14  HN  UNK N   1      36.814  15.067  12.637  1.00  0.00     0.167 HD
HETATM   15  C   UNK N   1      37.588  13.607  10.283  0.00  0.00     0.131 A 
HETATM   16  C   UNK N   1      36.021  15.222   9.548  0.00  0.00     0.142 A 
HETATM   17  N   UNK N   1      37.692  13.174   8.992  0.00  0.00    -0.337 N 
HETATM   18  C   UNK N   1      36.963  13.763   7.988  0.00  0.00     0.183 A 
ATOM     19  HN  UNK N   1      38.322  12.402   8.770  1.00  0.00     0.168 HD
HETATM   20  N   UNK N   1      36.105  14.790   8.268  0.00  0.00    -0.336 N 
ATOM     21  HN  UNK N   1      35.544  15.221   7.532  1.00  0.00     0.168 HD
BRANCH  15  22
HETATM   22  N   UNK N   1      38.313  12.974  11.313  0.00  0.00    -0.383 N 
HETATM   23  H   UNK N   1      39.273  13.155  11.424  0.00  0.00     0.157 HD
HETATM   24  H   UNK N   1      37.857  12.348  11.921  0.00  0.00     0.157 HD
ENDBRANCH  15  22
ENDBRANCH   4  10
BRANCH   1  25
HETATM   25  C   UNK N   1      33.335  17.390   5.985  0.00  0.00     0.213 C 
BRANCH  25  26
HETATM   26  O   UNK N   1      34.423  16.555   5.686  0.00  0.00    -0.316 OA
BRANCH  26  27
HETATM   27  P   UNK N   1      33.782  15.104   4.922  0.00  0.00     0.234 P 
HETATM   28  C   UNK N   1      33.813  15.049   3.067  0.00  0.00     0.142 C 
HETATM   29  O   UNK N   1      32.300  15.078   5.384  0.00  0.00    -0.654 OA
BRANCH  27  30
HETATM   30  O   UNK N   1      34.443  13.682   5.676  0.00  0.00    -0.329 OA
HETATM   31  H   UNK N   1      34.192  13.424   6.576  0.00  0.00     0.220 HD
ENDBRANCH  27  30
ENDBRANCH  26  27
ENDBRANCH  25  26
ENDBRANCH   1  25
TORSDOF 7
ENDMDL
