MODEL 1
REMARK VINA RESULT:      -6.6      0.000      0.000
REMARK  12 active torsions:
REMARK  status: ('A' for Active; 'I' for Inactive)
REMARK    1  A    between atoms: C_18  and  C_8 
REMARK    2  A    between atoms: C_12  and  C_10 
REMARK    3  A    between atoms: O_24  and  C_11 
REMARK    4  A    between atoms: C_14  and  C_12 
REMARK    5  A    between atoms: C_12  and  C_15 
REMARK    6  A    between atoms: C_16  and  C_13 
REMARK    7  A    between atoms: C_14  and  O_25 
REMARK    8  A    between atoms: O_27  and  C_15 
REMARK    9  A    between atoms: O_28  and  C_16 
REMARK   10  A    between atoms: C_17  and  C_18 
REMARK   11  A    between atoms: C_18  and  N_21 
REMARK   12  A    between atoms: C_18  and  O_30 
ROOT
HETATM    1  C   UNK N   1      30.556  17.434   7.844  0.00  0.00     0.133 C 
HETATM    2  N   UNK N   1      31.321  17.406   6.801  0.00  0.00    -0.332 N 
ATOM      3  HN  UNK N   1      31.168  18.113   6.081  1.00  0.00     0.165 HD
ENDROOT
BRANCH   2   4
HETATM    4  C   UNK N   1      32.392  16.430   6.583  0.00  0.00     0.234 C 
BRANCH   4   5
HETATM    5  C   UNK N   1      32.575  16.323   5.087  0.00  0.00     0.296 C 
HETATM    6  O   UNK N   1      32.373  17.279   4.355  0.00  0.00    -0.301 OA
ENDBRANCH   4   5
BRANCH   4   7
HETATM    7  C   UNK N   1      33.724  16.955   7.244  0.00  0.00     0.285 C 
HETATM    8  N   UNK N   1      33.757  16.713   8.690  0.00  0.00    -0.354 N 
HETATM    9  C   UNK N   1      34.524  15.816   9.227  0.00  0.00     0.112 C 
ATOM     10  HN  UNK N   1      33.156  17.271   9.296  1.00  0.00     0.162 HD
HETATM   11  C   UNK N   1      35.365  14.979   8.333  0.00  0.00    -0.011 C 
HETATM   12  C   UNK N   1      36.237  14.070   8.766  0.00  0.00     0.023 C 
HETATM   13  C   UNK N   1      35.122  15.133   6.880  0.00  0.00     0.211 C 
HETATM   14  O   UNK N   1      34.913  16.492   6.604  0.00  0.00    -0.357 OA
BRANCH   9  15
HETATM   15  C   UNK N   1      34.499  15.624  10.702  0.00  0.00     0.194 C 
HETATM   16  O   UNK N   1      35.368  16.100  11.411  0.00  0.00    -0.645 OA
BRANCH  15  17
HETATM   17  O   UNK N   1      33.519  14.887  11.263  0.00  0.00    -0.772 OA
HETATM   18  H   UNK N   1      33.671  14.381  12.036  0.00  0.00     0.167 HD
ENDBRANCH  15  17
ENDBRANCH   9  15
ENDBRANCH   4   7
BRANCH   4  19
HETATM   19  O   UNK N   1      32.062  15.122   7.043  0.00  0.00    -0.356 OA
HETATM   20  C   UNK N   1      31.701  14.279   5.973  0.00  0.00     0.205 C 
ENDBRANCH   4  19
ENDBRANCH   2   4
BRANCH   1  21
HETATM   21  C   UNK N   1      29.362  18.355   7.868  0.00  0.00     0.191 C 
BRANCH  21  22
HETATM   22  C   UNK N   1      28.459  17.965   6.697  0.00  0.00    -0.036 A 
HETATM   23  C   UNK N   1      27.945  16.668   6.531  0.00  0.00     0.011 A 
HETATM   24  C   UNK N   1      27.152  16.349   5.424  0.00  0.00     0.037 A 
HETATM   25  C   UNK N   1      26.866  17.323   4.466  0.00  0.00     0.065 A 
HETATM   26  C   UNK N   1      27.364  18.619   4.619  0.00  0.00     0.037 A 
HETATM   27  C   UNK N   1      28.153  18.937   5.728  0.00  0.00     0.011 A 
BRANCH  25  28
HETATM   28  O   UNK N   1      26.114  17.014   3.398  0.00  0.00    -0.361 OA
HETATM   29  H   UNK N   1      26.350  17.329   2.548  0.00  0.00     0.217 HD
ENDBRANCH  25  28
ENDBRANCH  21  22
BRANCH  21  30
HETATM   30  C   UNK N   1      28.756  18.346   9.262  0.00  0.00     0.156 C 
HETATM   31  O   UNK N   1      29.448  18.682  10.211  0.00  0.00    -0.649 OA
BRANCH  30  32
HETATM   32  O   UNK N   1      27.473  18.003   9.483  0.00  0.00    -0.775 OA
HETATM   33  H   UNK N   1      27.178  17.373  10.110  0.00  0.00     0.167 HD
ENDBRANCH  30  32
ENDBRANCH  21  30
ENDBRANCH   1  21
BRANCH   1  34
HETATM   34  O   UNK N   1      30.778  16.605   8.888  0.00  0.00    -0.349 OA
HETATM   35  H   UNK N   1      31.034  15.892   9.440  0.00  0.00     0.219 HD
ENDBRANCH   1  34
TORSDOF 12
ENDMDL
MODEL 2
REMARK VINA RESULT:      -6.6      8.621     11.579
REMARK  12 active torsions:
REMARK  status: ('A' for Active; 'I' for Inactive)
REMARK    1  A    between atoms: C_18  and  C_8 
REMARK    2  A    between atoms: C_12  and  C_10 
REMARK    3  A    between atoms: O_24  and  C_11 
REMARK    4  A    between atoms: C_14  and  C_12 
REMARK    5  A    between atoms: C_12  and  C_15 
REMARK    6  A    between atoms: C_16  and  C_13 
REMARK    7  A    between atoms: C_14  and  O_25 
REMARK    8  A    between atoms: O_27  and  C_15 
REMARK    9  A    between atoms: O_28  and  C_16 
REMARK   10  A    between atoms: C_17  and  C_18 
REMARK   11  A    between atoms: C_18  and  N_21 
REMARK   12  A    between atoms: C_18  and  O_30 
ROOT
HETATM    1  C   UNK N   1      20.711  13.355   7.197  0.00  0.00     0.133 C 
HETATM    2  N   UNK N   1      20.667  14.213   6.230  0.00  0.00    -0.332 N 
ATOM      3  HN  UNK N   1      20.721  15.203   6.470  1.00  0.00     0.165 HD
ENDROOT
BRANCH   2   4
HETATM    4  C   UNK N   1      20.548  13.860   4.813  0.00  0.00     0.234 C 
BRANCH   4   5
HETATM    5  C   UNK N   1      19.117  13.422   4.600  0.00  0.00     0.296 C 
HETATM    6  O   UNK N   1      18.186  14.184   4.806  0.00  0.00    -0.301 OA
ENDBRANCH   4   5
BRANCH   4   7
HETATM    7  C   UNK N   1      20.852  15.129   3.928  0.00  0.00     0.285 C 
HETATM    8  N   UNK N   1      20.605  16.381   4.651  0.00  0.00    -0.354 N 
HETATM    9  C   UNK N   1      21.566  17.149   5.059  0.00  0.00     0.112 C 
ATOM     10  HN  UNK N   1      19.642  16.658   4.840  1.00  0.00     0.162 HD
HETATM   11  C   UNK N   1      22.967  16.716   4.818  0.00  0.00    -0.011 C 
HETATM   12  C   UNK N   1      24.037  17.444   5.132  0.00  0.00     0.023 C 
HETATM   13  C   UNK N   1      23.141  15.349   4.275  0.00  0.00     0.211 C 
HETATM   14  O   UNK N   1      22.142  15.118   3.318  0.00  0.00    -0.357 OA
BRANCH   9  15
HETATM   15  C   UNK N   1      21.238  18.401   5.792  0.00  0.00     0.194 C 
HETATM   16  O   UNK N   1      21.017  19.439   5.193  0.00  0.00    -0.645 OA
BRANCH  15  17
HETATM   17  O   UNK N   1      21.213  18.399   7.140  0.00  0.00    -0.772 OA
HETATM   18  H   UNK N   1      21.538  19.124   7.635  0.00  0.00     0.167 HD
ENDBRANCH  15  17
ENDBRANCH   9  15
ENDBRANCH   4   7
BRANCH   4  19
HETATM   19  O   UNK N   1      21.366  12.755   4.438  0.00  0.00    -0.356 OA
HETATM   20  C   UNK N   1      20.742  11.967   3.451  0.00  0.00     0.205 C 
ENDBRANCH   4  19
ENDBRANCH   2   4
BRANCH   1  21
HETATM   21  C   UNK N   1      20.633  13.837   8.624  0.00  0.00     0.191 C 
BRANCH  21  22
HETATM   22  C   UNK N   1      21.907  13.378   9.333  0.00  0.00    -0.036 A 
HETATM   23  C   UNK N   1      23.187  13.533   8.775  0.00  0.00     0.011 A 
HETATM   24  C   UNK N   1      24.321  13.065   9.445  0.00  0.00     0.037 A 
HETATM   25  C   UNK N   1      24.190  12.432  10.683  0.00  0.00     0.065 A 
HETATM   26  C   UNK N   1      22.926  12.275  11.255  0.00  0.00     0.037 A 
HETATM   27  C   UNK N   1      21.793  12.747  10.585  0.00  0.00     0.011 A 
BRANCH  25  28
HETATM   28  O   UNK N   1      25.278  11.973  11.321  0.00  0.00    -0.361 OA
HETATM   29  H   UNK N   1      25.975  11.575  10.839  0.00  0.00     0.217 HD
ENDBRANCH  25  28
ENDBRANCH  21  22
BRANCH  21  30
HETATM   30  C   UNK N   1      20.316  15.323   8.630  0.00  0.00     0.156 C 
HETATM   31  O   UNK N   1      19.153  15.682   8.517  0.00  0.00    -0.649 OA
BRANCH  30  32
HETATM   32  O   UNK N   1      21.272  16.259   8.779  0.00  0.00    -0.775 OA
HETATM   33  H   UNK N   1      21.502  16.908   8.145  0.00  0.00     0.167 HD
ENDBRANCH  30  32
ENDBRANCH  21  30
ENDBRANCH   1  21
BRANCH   1  34
HETATM   34  O   UNK N   1      20.765  12.028   6.945  0.00  0.00    -0.349 OA
HETATM   35  H   UNK N   1      21.022  11.130   6.874  0.00  0.00     0.219 HD
ENDBRANCH   1  34
TORSDOF 12
ENDMDL
MODEL 3
REMARK VINA RESULT:      -6.4      2.855      5.173
REMARK  12 active torsions:
REMARK  status: ('A' for Active; 'I' for Inactive)
REMARK    1  A    between atoms: C_18  and  C_8 
REMARK    2  A    between atoms: C_12  and  C_10 
REMARK    3  A    between atoms: O_24  and  C_11 
REMARK    4  A    between atoms: C_14  and  C_12 
REMARK    5  A    between atoms: C_12  and  C_15 
REMARK    6  A    between atoms: C_16  and  C_13 
REMARK    7  A    between atoms: C_14  and  O_25 
REMARK    8  A    between atoms: O_27  and  C_15 
REMARK    9  A    between atoms: O_28  and  C_16 
REMARK   10  A    between atoms: C_17  and  C_18 
REMARK   11  A    between atoms: C_18  and  N_21 
REMARK   12  A    between atoms: C_18  and  O_30 
ROOT
HETATM    1  C   UNK N   1      34.517  16.085   7.572  0.00  0.00     0.133 C 
HETATM    2  N   UNK N   1      34.997  15.985   8.769  0.00  0.00    -0.332 N 
ATOM      3  HN  UNK N   1      35.063  16.837   9.327  1.00  0.00     0.165 HD
ENDROOT
BRANCH   2   4
HETATM    4  C   UNK N   1      35.453  14.733   9.379  0.00  0.00     0.234 C 
BRANCH   4   5
HETATM    5  C   UNK N   1      36.571  15.101  10.326  0.00  0.00     0.296 C 
HETATM    6  O   UNK N   1      36.676  16.233  10.772  0.00  0.00    -0.301 OA
ENDBRANCH   4   5
BRANCH   4   7
HETATM    7  C   UNK N   1      34.267  14.080  10.186  0.00  0.00     0.285 C 
HETATM    8  N   UNK N   1      33.613  13.003   9.436  0.00  0.00    -0.354 N 
HETATM    9  C   UNK N   1      33.752  11.753   9.750  0.00  0.00     0.112 C 
ATOM     10  HN  UNK N   1      33.027  13.246   8.638  1.00  0.00     0.162 HD
HETATM   11  C   UNK N   1      34.642  11.405  10.888  0.00  0.00    -0.011 C 
HETATM   12  C   UNK N   1      34.817  10.167  11.346  0.00  0.00     0.023 C 
HETATM   13  C   UNK N   1      35.431  12.521  11.460  0.00  0.00     0.211 C 
HETATM   14  O   UNK N   1      34.620  13.664  11.505  0.00  0.00    -0.357 OA
BRANCH   9  15
HETATM   15  C   UNK N   1      33.062  10.716   8.937  0.00  0.00     0.194 C 
HETATM   16  O   UNK N   1      31.933  10.349   9.216  0.00  0.00    -0.645 OA
BRANCH  15  17
HETATM   17  O   UNK N   1      33.701  10.149   7.896  0.00  0.00    -0.772 OA
HETATM   18  H   UNK N   1      33.738   9.219   7.793  0.00  0.00     0.167 HD
ENDBRANCH  15  17
ENDBRANCH   9  15
ENDBRANCH   4   7
BRANCH   4  19
HETATM   19  O   UNK N   1      36.008  13.819   8.437  0.00  0.00    -0.356 OA
HETATM   20  C   UNK N   1      37.408  13.732   8.571  0.00  0.00     0.205 C 
ENDBRANCH   4  19
ENDBRANCH   2   4
BRANCH   1  21
HETATM   21  C   UNK N   1      34.269  17.450   6.980  0.00  0.00     0.191 C 
BRANCH  21  22
HETATM   22  C   UNK N   1      33.049  17.337   6.065  0.00  0.00    -0.036 A 
HETATM   23  C   UNK N   1      31.776  16.970   6.535  0.00  0.00     0.011 A 
HETATM   24  C   UNK N   1      30.697  16.846   5.654  0.00  0.00     0.037 A 
HETATM   25  C   UNK N   1      30.878  17.083   4.290  0.00  0.00     0.065 A 
HETATM   26  C   UNK N   1      32.135  17.454   3.808  0.00  0.00     0.037 A 
HETATM   27  C   UNK N   1      33.211  17.582   4.690  0.00  0.00     0.011 A 
BRANCH  25  28
HETATM   28  O   UNK N   1      29.845  16.952   3.443  0.00  0.00    -0.361 OA
HETATM   29  H   UNK N   1      29.177  16.317   3.608  0.00  0.00     0.217 HD
ENDBRANCH  25  28
ENDBRANCH  21  22
BRANCH  21  30
HETATM   30  C   UNK N   1      34.221  18.476   8.100  0.00  0.00     0.156 C 
HETATM   31  O   UNK N   1      33.173  18.642   8.707  0.00  0.00    -0.649 OA
BRANCH  30  32
HETATM   32  O   UNK N   1      35.302  19.191   8.463  0.00  0.00    -0.775 OA
HETATM   33  H   UNK N   1      36.191  18.908   8.390  0.00  0.00     0.167 HD
ENDBRANCH  30  32
ENDBRANCH  21  30
ENDBRANCH   1  21
BRANCH   1  34
HETATM   34  O   UNK N   1      34.291  14.983   6.822  0.00  0.00    -0.349 OA
HETATM   35  H   UNK N   1      34.368  14.253   6.240  0.00  0.00     0.219 HD
ENDBRANCH   1  34
TORSDOF 12
ENDMDL
MODEL 4
REMARK VINA RESULT:      -6.4      2.461      5.002
REMARK  12 active torsions:
REMARK  status: ('A' for Active; 'I' for Inactive)
REMARK    1  A    between atoms: C_18  and  C_8 
REMARK    2  A    between atoms: C_12  and  C_10 
REMARK    3  A    between atoms: O_24  and  C_11 
REMARK    4  A    between atoms: C_14  and  C_12 
REMARK    5  A    between atoms: C_12  and  C_15 
REMARK    6  A    between atoms: C_16  and  C_13 
REMARK    7  A    between atoms: C_14  and  O_25 
REMARK    8  A    between atoms: O_27  and  C_15 
REMARK    9  A    between atoms: O_28  and  C_16 
REMARK   10  A    between atoms: C_17  and  C_18 
REMARK   11  A    between atoms: C_18  and  N_21 
REMARK   12  A    between atoms: C_18  and  O_30 
ROOT
HETATM    1  C   UNK N   1      33.275  15.678   7.761  0.00  0.00     0.133 C 
HETATM    2  N   UNK N   1      33.980  16.143   8.741  0.00  0.00    -0.332 N 
ATOM      3  HN  UNK N   1      33.939  17.146   8.921  1.00  0.00     0.165 HD
ENDROOT
BRANCH   2   4
HETATM    4  C   UNK N   1      34.832  15.328   9.610  0.00  0.00     0.234 C 
BRANCH   4   5
HETATM    5  C   UNK N   1      35.689  16.293  10.397  0.00  0.00     0.296 C 
HETATM    6  O   UNK N   1      35.600  17.499  10.228  0.00  0.00    -0.301 OA
ENDBRANCH   4   5
BRANCH   4   7
HETATM    7  C   UNK N   1      33.930  14.493  10.597  0.00  0.00     0.285 C 
HETATM    8  N   UNK N   1      33.862  13.076  10.222  0.00  0.00    -0.354 N 
HETATM    9  C   UNK N   1      34.460  12.148  10.900  0.00  0.00     0.112 C 
ATOM     10  HN  UNK N   1      33.324  12.813   9.397  1.00  0.00     0.162 HD
HETATM   11  C   UNK N   1      35.277  12.547  12.076  0.00  0.00    -0.011 C 
HETATM   12  C   UNK N   1      35.887  11.684  12.886  0.00  0.00     0.023 C 
HETATM   13  C   UNK N   1      35.473  14.002  12.267  0.00  0.00     0.211 C 
HETATM   14  O   UNK N   1      34.268  14.657  11.975  0.00  0.00    -0.357 OA
BRANCH   9  15
HETATM   15  C   UNK N   1      34.350  10.733  10.454  0.00  0.00     0.194 C 
HETATM   16  O   UNK N   1      33.422  10.031  10.819  0.00  0.00    -0.645 OA
BRANCH  15  17
HETATM   17  O   UNK N   1      35.303  10.207   9.660  0.00  0.00    -0.772 OA
HETATM   18  H   UNK N   1      35.205  10.187   8.729  0.00  0.00     0.167 HD
ENDBRANCH  15  17
ENDBRANCH   9  15
ENDBRANCH   4   7
BRANCH   4  19
HETATM   19  O   UNK N   1      35.731  14.488   8.889  0.00  0.00    -0.356 OA
HETATM   20  C   UNK N   1      37.034  14.555   9.423  0.00  0.00     0.205 C 
ENDBRANCH   4  19
ENDBRANCH   2   4
BRANCH   1  21
HETATM   21  C   UNK N   1      32.596  16.633   6.812  0.00  0.00     0.191 C 
BRANCH  21  22
HETATM   22  C   UNK N   1      31.322  17.130   7.496  0.00  0.00    -0.036 A 
HETATM   23  C   UNK N   1      31.341  17.966   8.625  0.00  0.00     0.011 A 
HETATM   24  C   UNK N   1      30.150  18.366   9.239  0.00  0.00     0.037 A 
HETATM   25  C   UNK N   1      28.924  17.932   8.733  0.00  0.00     0.065 A 
HETATM   26  C   UNK N   1      28.887  17.106   7.608  0.00  0.00     0.037 A 
HETATM   27  C   UNK N   1      30.078  16.710   6.993  0.00  0.00     0.011 A 
BRANCH  25  28
HETATM   28  O   UNK N   1      27.781  18.307   9.328  0.00  0.00    -0.361 OA
HETATM   29  H   UNK N   1      27.436  17.811  10.044  0.00  0.00     0.217 HD
ENDBRANCH  25  28
ENDBRANCH  21  22
BRANCH  21  30
HETATM   30  C   UNK N   1      33.603  17.673   6.350  0.00  0.00     0.156 C 
HETATM   31  O   UNK N   1      33.595  18.027   5.180  0.00  0.00    -0.649 OA
BRANCH  30  32
HETATM   32  O   UNK N   1      34.489  18.237   7.193  0.00  0.00    -0.775 OA
HETATM   33  H   UNK N   1      35.216  17.801   7.589  0.00  0.00     0.167 HD
ENDBRANCH  30  32
ENDBRANCH  21  30
ENDBRANCH   1  21
BRANCH   1  34
HETATM   34  O   UNK N   1      33.189  14.347   7.540  0.00  0.00    -0.349 OA
HETATM   35  H   UNK N   1      33.369  13.446   7.354  0.00  0.00     0.219 HD
ENDBRANCH   1  34
TORSDOF 12
ENDMDL
MODEL 5
REMARK VINA RESULT:      -6.3      2.567      8.049
REMARK  12 active torsions:
REMARK  status: ('A' for Active; 'I' for Inactive)
REMARK    1  A    between atoms: C_18  and  C_8 
REMARK    2  A    between atoms: C_12  and  C_10 
REMARK    3  A    between atoms: O_24  and  C_11 
REMARK    4  A    between atoms: C_14  and  C_12 
REMARK    5  A    between atoms: C_12  and  C_15 
REMARK    6  A    between atoms: C_16  and  C_13 
REMARK    7  A    between atoms: C_14  and  O_25 
REMARK    8  A    between atoms: O_27  and  C_15 
REMARK    9  A    between atoms: O_28  and  C_16 
REMARK   10  A    between atoms: C_17  and  C_18 
REMARK   11  A    between atoms: C_18  and  N_21 
REMARK   12  A    between atoms: C_18  and  O_30 
ROOT
HETATM    1  C   UNK N   1      35.394  15.807  10.607  0.00  0.00     0.133 C 
HETATM    2  N   UNK N   1      35.012  15.531   9.401  0.00  0.00    -0.332 N 
ATOM      3  HN  UNK N   1      35.431  14.720   8.945  1.00  0.00     0.165 HD
ENDROOT
BRANCH   2   4
HETATM    4  C   UNK N   1      34.019  16.301   8.649  0.00  0.00     0.234 C 
BRANCH   4   5
HETATM    5  C   UNK N   1      34.516  16.361   7.222  0.00  0.00     0.296 C 
HETATM    6  O   UNK N   1      35.376  15.594   6.820  0.00  0.00    -0.301 OA
ENDBRANCH   4   5
BRANCH   4   7
HETATM    7  C   UNK N   1      32.630  15.556   8.695  0.00  0.00     0.285 C 
HETATM    8  N   UNK N   1      31.616  16.322   9.428  0.00  0.00    -0.354 N 
HETATM    9  C   UNK N   1      30.627  16.912   8.833  0.00  0.00     0.112 C 
ATOM     10  HN  UNK N   1      31.690  16.391  10.442  1.00  0.00     0.162 HD
HETATM   11  C   UNK N   1      30.550  16.842   7.351  0.00  0.00    -0.011 C 
HETATM   12  C   UNK N   1      29.553  17.353   6.631  0.00  0.00     0.023 C 
HETATM   13  C   UNK N   1      31.717  16.237   6.668  0.00  0.00     0.211 C 
HETATM   14  O   UNK N   1      32.152  15.135   7.418  0.00  0.00    -0.357 OA
BRANCH   9  15
HETATM   15  C   UNK N   1      29.640  17.676   9.643  0.00  0.00     0.194 C 
HETATM   16  O   UNK N   1      29.840  18.841   9.939  0.00  0.00    -0.645 OA
BRANCH  15  17
HETATM   17  O   UNK N   1      28.522  17.066  10.084  0.00  0.00    -0.772 OA
HETATM   18  H   UNK N   1      27.870  17.532  10.567  0.00  0.00     0.167 HD
ENDBRANCH  15  17
ENDBRANCH   9  15
ENDBRANCH   4   7
BRANCH   4  19
HETATM   19  O   UNK N   1      33.902  17.651   9.091  0.00  0.00    -0.356 OA
HETATM   20  C   UNK N   1      34.302  18.555   8.087  0.00  0.00     0.205 C 
ENDBRANCH   4  19
ENDBRANCH   2   4
BRANCH   1  21
HETATM   21  C   UNK N   1      36.563  15.067  11.206  0.00  0.00     0.191 C 
BRANCH  21  22
HETATM   22  C   UNK N   1      36.012  14.138  12.287  0.00  0.00    -0.036 A 
HETATM   23  C   UNK N   1      35.180  13.044  11.999  0.00  0.00     0.011 A 
HETATM   24  C   UNK N   1      34.670  12.242  13.025  0.00  0.00     0.037 A 
HETATM   25  C   UNK N   1      34.985  12.527  14.355  0.00  0.00     0.065 A 
HETATM   26  C   UNK N   1      35.816  13.607  14.659  0.00  0.00     0.037 A 
HETATM   27  C   UNK N   1      36.327  14.405  13.632  0.00  0.00     0.011 A 
BRANCH  25  28
HETATM   28  O   UNK N   1      34.488  11.764  15.341  0.00  0.00    -0.361 OA
HETATM   29  H   UNK N   1      34.872  10.932  15.533  0.00  0.00     0.217 HD
ENDBRANCH  25  28
ENDBRANCH  21  22
BRANCH  21  30
HETATM   30  C   UNK N   1      37.382  14.444  10.087  0.00  0.00     0.156 C 
HETATM   31  O   UNK N   1      36.922  13.491   9.476  0.00  0.00    -0.649 OA
BRANCH  30  32
HETATM   32  O   UNK N   1      38.589  14.924   9.730  0.00  0.00    -0.775 OA
HETATM   33  H   UNK N   1      38.983  15.705  10.061  0.00  0.00     0.167 HD
ENDBRANCH  30  32
ENDBRANCH  21  30
ENDBRANCH   1  21
BRANCH   1  34
HETATM   34  O   UNK N   1      34.797  16.792  11.314  0.00  0.00    -0.349 OA
HETATM   35  H   UNK N   1      34.613  17.539  11.849  0.00  0.00     0.219 HD
ENDBRANCH   1  34
TORSDOF 12
ENDMDL
MODEL 6
REMARK VINA RESULT:      -6.3      2.414      3.920
REMARK  12 active torsions:
REMARK  status: ('A' for Active; 'I' for Inactive)
REMARK    1  A    between atoms: C_18  and  C_8 
REMARK    2  A    between atoms: C_12  and  C_10 
REMARK    3  A    between atoms: O_24  and  C_11 
REMARK    4  A    between atoms: C_14  and  C_12 
REMARK    5  A    between atoms: C_12  and  C_15 
REMARK    6  A    between atoms: C_16  and  C_13 
REMARK    7  A    between atoms: C_14  and  O_25 
REMARK    8  A    between atoms: O_27  and  C_15 
REMARK    9  A    between atoms: O_28  and  C_16 
REMARK   10  A    between atoms: C_17  and  C_18 
REMARK   11  A    between atoms: C_18  and  N_21 
REMARK   12  A    between atoms: C_18  and  O_30 
ROOT
HETATM    1  C   UNK N   1      32.947  16.449   6.701  0.00  0.00     0.133 C 
HETATM    2  N   UNK N   1      33.762  15.564   7.175  0.00  0.00    -0.332 N 
ATOM      3  HN  UNK N   1      34.176  15.742   8.091  1.00  0.00     0.165 HD
ENDROOT
BRANCH   2   4
HETATM    4  C   UNK N   1      34.131  14.323   6.489  0.00  0.00     0.234 C 
BRANCH   4   5
HETATM    5  C   UNK N   1      34.996  14.725   5.316  0.00  0.00     0.296 C 
HETATM    6  O   UNK N   1      36.085  15.250   5.483  0.00  0.00    -0.301 OA
ENDBRANCH   4   5
BRANCH   4   7
HETATM    7  C   UNK N   1      34.959  13.407   7.468  0.00  0.00     0.285 C 
HETATM    8  N   UNK N   1      35.946  14.170   8.240  0.00  0.00    -0.354 N 
HETATM    9  C   UNK N   1      35.804  14.408   9.507  0.00  0.00     0.112 C 
ATOM     10  HN  UNK N   1      36.774  14.526   7.764  1.00  0.00     0.162 HD
HETATM   11  C   UNK N   1      34.574  13.922  10.184  0.00  0.00    -0.011 C 
HETATM   12  C   UNK N   1      34.342  14.048  11.489  0.00  0.00     0.023 C 
HETATM   13  C   UNK N   1      33.530  13.349   9.302  0.00  0.00     0.211 C 
HETATM   14  O   UNK N   1      34.156  12.580   8.311  0.00  0.00    -0.357 OA
BRANCH   9  15
HETATM   15  C   UNK N   1      36.844  15.195  10.221  0.00  0.00     0.194 C 
HETATM   16  O   UNK N   1      36.607  16.316  10.636  0.00  0.00    -0.645 OA
BRANCH  15  17
HETATM   17  O   UNK N   1      38.077  14.677  10.389  0.00  0.00    -0.772 OA
HETATM   18  H   UNK N   1      38.554  14.799  11.186  0.00  0.00     0.167 HD
ENDBRANCH  15  17
ENDBRANCH   9  15
ENDBRANCH   4   7
BRANCH   4  19
HETATM   19  O   UNK N   1      33.013  13.628   5.945  0.00  0.00    -0.356 OA
HETATM   20  C   UNK N   1      33.370  12.910   4.786  0.00  0.00     0.205 C 
ENDBRANCH   4  19
ENDBRANCH   2   4
BRANCH   1  21
HETATM   21  C   UNK N   1      32.797  17.776   7.402  0.00  0.00     0.191 C 
BRANCH  21  22
HETATM   22  C   UNK N   1      31.370  17.847   7.948  0.00  0.00    -0.036 A 
HETATM   23  C   UNK N   1      31.020  18.627   9.062  0.00  0.00     0.011 A 
HETATM   24  C   UNK N   1      29.708  18.633   9.547  0.00  0.00     0.037 A 
HETATM   25  C   UNK N   1      28.730  17.855   8.925  0.00  0.00     0.065 A 
HETATM   26  C   UNK N   1      29.060  17.079   7.812  0.00  0.00     0.037 A 
HETATM   27  C   UNK N   1      30.371  17.077   7.326  0.00  0.00     0.011 A 
BRANCH  25  28
HETATM   28  O   UNK N   1      27.473  17.852   9.397  0.00  0.00    -0.361 OA
HETATM   29  H   UNK N   1      27.109  17.071   9.765  0.00  0.00     0.217 HD
ENDBRANCH  25  28
ENDBRANCH  21  22
BRANCH  21  30
HETATM   30  C   UNK N   1      33.941  17.949   8.388  0.00  0.00     0.156 C 
HETATM   31  O   UNK N   1      34.864  18.696   8.099  0.00  0.00    -0.649 OA
BRANCH  30  32
HETATM   32  O   UNK N   1      33.960  17.324   9.580  0.00  0.00    -0.775 OA
HETATM   33  H   UNK N   1      34.712  17.219  10.128  0.00  0.00     0.167 HD
ENDBRANCH  30  32
ENDBRANCH  21  30
ENDBRANCH   1  21
BRANCH   1  34
HETATM   34  O   UNK N   1      32.272  16.224   5.551  0.00  0.00    -0.349 OA
HETATM   35  H   UNK N   1      31.868  15.838   4.799  0.00  0.00     0.219 HD
ENDBRANCH   1  34
TORSDOF 12
ENDMDL
MODEL 7
REMARK VINA RESULT:      -6.3      2.873      4.941
REMARK  12 active torsions:
REMARK  status: ('A' for Active; 'I' for Inactive)
REMARK    1  A    between atoms: C_18  and  C_8 
REMARK    2  A    between atoms: C_12  and  C_10 
REMARK    3  A    between atoms: O_24  and  C_11 
REMARK    4  A    between atoms: C_14  and  C_12 
REMARK    5  A    between atoms: C_12  and  C_15 
REMARK    6  A    between atoms: C_16  and  C_13 
REMARK    7  A    between atoms: C_14  and  O_25 
REMARK    8  A    between atoms: O_27  and  C_15 
REMARK    9  A    between atoms: O_28  and  C_16 
REMARK   10  A    between atoms: C_17  and  C_18 
REMARK   11  A    between atoms: C_18  and  N_21 
REMARK   12  A    between atoms: C_18  and  O_30 
ROOT
HETATM    1  C   UNK N   1      34.770  15.869   7.306  0.00  0.00     0.133 C 
HETATM    2  N   UNK N   1      34.575  15.369   8.484  0.00  0.00    -0.332 N 
ATOM      3  HN  UNK N   1      34.076  15.942   9.166  1.00  0.00     0.165 HD
ENDROOT
BRANCH   2   4
HETATM    4  C   UNK N   1      35.019  14.038   8.905  0.00  0.00     0.234 C 
BRANCH   4   5
HETATM    5  C   UNK N   1      36.519  14.120   9.068  0.00  0.00     0.296 C 
HETATM    6  O   UNK N   1      37.233  13.153   8.849  0.00  0.00    -0.301 OA
ENDBRANCH   4   5
BRANCH   4   7
HETATM    7  C   UNK N   1      34.354  13.675  10.287  0.00  0.00     0.285 C 
HETATM    8  N   UNK N   1      35.148  12.702  11.045  0.00  0.00    -0.354 N 
HETATM    9  C   UNK N   1      35.816  13.027  12.107  0.00  0.00     0.112 C 
ATOM     10  HN  UNK N   1      35.175  11.734  10.726  1.00  0.00     0.162 HD
HETATM   11  C   UNK N   1      35.807  14.448  12.541  0.00  0.00    -0.011 C 
HETATM   12  C   UNK N   1      36.401  14.894  13.646  0.00  0.00     0.023 C 
HETATM   13  C   UNK N   1      35.162  15.406  11.613  0.00  0.00     0.211 C 
HETATM   14  O   UNK N   1      34.010  14.808  11.084  0.00  0.00    -0.357 OA
BRANCH   9  15
HETATM   15  C   UNK N   1      36.604  11.986  12.820  0.00  0.00     0.194 C 
HETATM   16  O   UNK N   1      36.054  11.147  13.513  0.00  0.00    -0.645 OA
BRANCH  15  17
HETATM   17  O   UNK N   1      37.949  11.983  12.725  0.00  0.00    -0.772 OA
HETATM   18  H   UNK N   1      38.381  12.169  11.916  0.00  0.00     0.167 HD
ENDBRANCH  15  17
ENDBRANCH   9  15
ENDBRANCH   4   7
BRANCH   4  19
HETATM   19  O   UNK N   1      34.775  13.029   7.928  0.00  0.00    -0.356 OA
HETATM   20  C   UNK N   1      33.452  12.549   8.007  0.00  0.00     0.205 C 
ENDBRANCH   4  19
ENDBRANCH   2   4
BRANCH   1  21
HETATM   21  C   UNK N   1      34.448  17.319   7.049  0.00  0.00     0.191 C 
BRANCH  21  22
HETATM   22  C   UNK N   1      33.158  17.363   6.229  0.00  0.00    -0.036 A 
HETATM   23  C   UNK N   1      31.892  17.121   6.789  0.00  0.00     0.011 A 
HETATM   24  C   UNK N   1      30.743  17.137   5.991  0.00  0.00     0.037 A 
HETATM   25  C   UNK N   1      30.846  17.392   4.623  0.00  0.00     0.065 A 
HETATM   26  C   UNK N   1      32.096  17.641   4.052  0.00  0.00     0.037 A 
HETATM   27  C   UNK N   1      33.243  17.628   4.851  0.00  0.00     0.011 A 
BRANCH  25  28
HETATM   28  O   UNK N   1      29.745  17.397   3.856  0.00  0.00    -0.361 OA
HETATM   29  H   UNK N   1      29.797  17.150   2.953  0.00  0.00     0.217 HD
ENDBRANCH  25  28
ENDBRANCH  21  22
BRANCH  21  30
HETATM   30  C   UNK N   1      34.474  18.075   8.368  0.00  0.00     0.156 C 
HETATM   31  O   UNK N   1      35.154  19.086   8.457  0.00  0.00    -0.649 OA
BRANCH  30  32
HETATM   32  O   UNK N   1      33.753  17.681   9.434  0.00  0.00    -0.775 OA
HETATM   33  H   UNK N   1      34.042  17.703  10.325  0.00  0.00     0.167 HD
ENDBRANCH  30  32
ENDBRANCH  21  30
ENDBRANCH   1  21
BRANCH   1  34
HETATM   34  O   UNK N   1      35.317  15.124   6.320  0.00  0.00    -0.349 OA
HETATM   35  H   UNK N   1      35.488  14.483   5.658  0.00  0.00     0.219 HD
ENDBRANCH   1  34
TORSDOF 12
ENDMDL
MODEL 8
REMARK VINA RESULT:      -6.3      2.308      4.273
REMARK  12 active torsions:
REMARK  status: ('A' for Active; 'I' for Inactive)
REMARK    1  A    between atoms: C_18  and  C_8 
REMARK    2  A    between atoms: C_12  and  C_10 
REMARK    3  A    between atoms: O_24  and  C_11 
REMARK    4  A    between atoms: C_14  and  C_12 
REMARK    5  A    between atoms: C_12  and  C_15 
REMARK    6  A    between atoms: C_16  and  C_13 
REMARK    7  A    between atoms: C_14  and  O_25 
REMARK    8  A    between atoms: O_27  and  C_15 
REMARK    9  A    between atoms: O_28  and  C_16 
REMARK   10  A    between atoms: C_17  and  C_18 
REMARK   11  A    between atoms: C_18  and  N_21 
REMARK   12  A    between atoms: C_18  and  O_30 
ROOT
HETATM    1  C   UNK N   1      32.850  15.513   7.763  0.00  0.00     0.133 C 
HETATM    2  N   UNK N   1      34.048  15.496   8.251  0.00  0.00    -0.332 N 
ATOM      3  HN  UNK N   1      34.583  16.364   8.225  1.00  0.00     0.165 HD
ENDROOT
BRANCH   2   4
HETATM    4  C   UNK N   1      34.687  14.318   8.842  0.00  0.00     0.234 C 
BRANCH   4   5
HETATM    5  C   UNK N   1      35.058  13.411   7.691  0.00  0.00     0.296 C 
HETATM    6  O   UNK N   1      34.879  13.754   6.533  0.00  0.00    -0.301 OA
ENDBRANCH   4   5
BRANCH   4   7
HETATM    7  C   UNK N   1      35.990  14.757   9.612  0.00  0.00     0.285 C 
HETATM    8  N   UNK N   1      35.775  14.843  11.061  0.00  0.00    -0.354 N 
HETATM    9  C   UNK N   1      36.272  13.979  11.889  0.00  0.00     0.112 C 
ATOM     10  HN  UNK N   1      35.216  15.611  11.429  1.00  0.00     0.162 HD
HETATM   11  C   UNK N   1      37.050  12.838  11.339  0.00  0.00    -0.011 C 
HETATM   12  C   UNK N   1      37.661  11.922  12.089  0.00  0.00     0.023 C 
HETATM   13  C   UNK N   1      37.046  12.700   9.864  0.00  0.00     0.211 C 
HETATM   14  O   UNK N   1      37.144  13.978   9.296  0.00  0.00    -0.357 OA
BRANCH   9  15
HETATM   15  C   UNK N   1      36.005  14.128  13.345  0.00  0.00     0.194 C 
HETATM   16  O   UNK N   1      35.019  13.627  13.856  0.00  0.00    -0.645 OA
BRANCH  15  17
HETATM   17  O   UNK N   1      36.848  14.852  14.108  0.00  0.00    -0.772 OA
HETATM   18  H   UNK N   1      37.399  15.511  13.736  0.00  0.00     0.167 HD
ENDBRANCH  15  17
ENDBRANCH   9  15
ENDBRANCH   4   7
BRANCH   4  19
HETATM   19  O   UNK N   1      33.814  13.566   9.681  0.00  0.00    -0.356 OA
HETATM   20  C   UNK N   1      33.858  12.193   9.366  0.00  0.00     0.205 C 
ENDBRANCH   4  19
ENDBRANCH   2   4
BRANCH   1  21
HETATM   21  C   UNK N   1      32.371  16.724   7.003  0.00  0.00     0.191 C 
BRANCH  21  22
HETATM   22  C   UNK N   1      31.016  17.125   7.587  0.00  0.00    -0.036 A 
HETATM   23  C   UNK N   1      29.832  17.125   6.832  0.00  0.00     0.011 A 
HETATM   24  C   UNK N   1      28.621  17.535   7.400  0.00  0.00     0.037 A 
HETATM   25  C   UNK N   1      28.581  17.953   8.731  0.00  0.00     0.065 A 
HETATM   26  C   UNK N   1      29.748  17.954   9.497  0.00  0.00     0.037 A 
HETATM   27  C   UNK N   1      30.956  17.540   8.929  0.00  0.00     0.011 A 
BRANCH  25  28
HETATM   28  O   UNK N   1      27.421  18.357   9.273  0.00  0.00    -0.361 OA
HETATM   29  H   UNK N   1      27.254  19.269   9.406  0.00  0.00     0.217 HD
ENDBRANCH  25  28
ENDBRANCH  21  22
BRANCH  21  30
HETATM   30  C   UNK N   1      33.474  17.770   6.990  0.00  0.00     0.156 C 
HETATM   31  O   UNK N   1      34.178  17.876   5.997  0.00  0.00    -0.649 OA
BRANCH  30  32
HETATM   32  O   UNK N   1      33.686  18.600   8.029  0.00  0.00    -0.775 OA
HETATM   33  H   UNK N   1      33.266  19.427   8.159  0.00  0.00     0.167 HD
ENDBRANCH  30  32
ENDBRANCH  21  30
ENDBRANCH   1  21
BRANCH   1  34
HETATM   34  O   UNK N   1      32.042  14.434   7.872  0.00  0.00    -0.349 OA
HETATM   35  H   UNK N   1      31.679  13.570   7.865  0.00  0.00     0.219 HD
ENDBRANCH   1  34
TORSDOF 12
ENDMDL
MODEL 9
REMARK VINA RESULT:      -6.3      3.060      5.372
REMARK  12 active torsions:
REMARK  status: ('A' for Active; 'I' for Inactive)
REMARK    1  A    between atoms: C_18  and  C_8 
REMARK    2  A    between atoms: C_12  and  C_10 
REMARK    3  A    between atoms: O_24  and  C_11 
REMARK    4  A    between atoms: C_14  and  C_12 
REMARK    5  A    between atoms: C_12  and  C_15 
REMARK    6  A    between atoms: C_16  and  C_13 
REMARK    7  A    between atoms: C_14  and  O_25 
REMARK    8  A    between atoms: O_27  and  C_15 
REMARK    9  A    between atoms: O_28  and  C_16 
REMARK   10  A    between atoms: C_17  and  C_18 
REMARK   11  A    between atoms: C_18  and  N_21 
REMARK   12  A    between atoms: C_18  and  O_30 
ROOT
HETATM    1  C   UNK N   1      34.763  15.643   9.194  0.00  0.00     0.133 C 
HETATM    2  N   UNK N   1      35.699  14.803   8.887  0.00  0.00    -0.332 N 
ATOM      3  HN  UNK N   1      36.293  15.027   8.088  1.00  0.00     0.165 HD
ENDROOT
BRANCH   2   4
HETATM    4  C   UNK N   1      35.965  13.556   9.608  0.00  0.00     0.234 C 
BRANCH   4   5
HETATM    5  C   UNK N   1      36.416  12.551   8.572  0.00  0.00     0.296 C 
HETATM    6  O   UNK N   1      37.030  12.902   7.577  0.00  0.00    -0.301 OA
ENDBRANCH   4   5
BRANCH   4   7
HETATM    7  C   UNK N   1      37.118  13.790  10.657  0.00  0.00     0.285 C 
HETATM    8  N   UNK N   1      36.597  14.144  11.982  0.00  0.00    -0.354 N 
HETATM    9  C   UNK N   1      36.637  13.324  12.985  0.00  0.00     0.112 C 
ATOM     10  HN  UNK N   1      36.191  15.069  12.119  1.00  0.00     0.162 HD
HETATM   11  C   UNK N   1      37.192  11.964  12.765  0.00  0.00    -0.011 C 
HETATM   12  C   UNK N   1      37.343  11.056  13.727  0.00  0.00     0.023 C 
HETATM   13  C   UNK N   1      37.499  11.607  11.360  0.00  0.00     0.211 C 
HETATM   14  O   UNK N   1      38.064  12.725  10.729  0.00  0.00    -0.357 OA
BRANCH   9  15
HETATM   15  C   UNK N   1      36.083  13.752  14.298  0.00  0.00     0.194 C 
HETATM   16  O   UNK N   1      36.745  14.427  15.067  0.00  0.00    -0.645 OA
BRANCH  15  17
HETATM   17  O   UNK N   1      34.844  13.364  14.659  0.00  0.00    -0.772 OA
HETATM   18  H   UNK N   1      34.242  13.962  15.055  0.00  0.00     0.167 HD
ENDBRANCH  15  17
ENDBRANCH   9  15
ENDBRANCH   4   7
BRANCH   4  19
HETATM   19  O   UNK N   1      34.804  13.005  10.224  0.00  0.00    -0.356 OA
HETATM   20  C   UNK N   1      34.274  11.944   9.462  0.00  0.00     0.205 C 
ENDBRANCH   4  19
ENDBRANCH   2   4
BRANCH   1  21
HETATM   21  C   UNK N   1      34.455  16.789   8.264  0.00  0.00     0.191 C 
BRANCH  21  22
HETATM   22  C   UNK N   1      32.957  16.743   7.962  0.00  0.00    -0.036 A 
HETATM   23  C   UNK N   1      32.384  15.800   7.094  0.00  0.00     0.011 A 
HETATM   24  C   UNK N   1      31.012  15.820   6.820  0.00  0.00     0.037 A 
HETATM   25  C   UNK N   1      30.196  16.787   7.411  0.00  0.00     0.065 A 
HETATM   26  C   UNK N   1      30.749  17.728   8.282  0.00  0.00     0.037 A 
HETATM   27  C   UNK N   1      32.119  17.704   8.557  0.00  0.00     0.011 A 
BRANCH  25  28
HETATM   28  O   UNK N   1      28.882  16.812   7.140  0.00  0.00    -0.361 OA
HETATM   29  H   UNK N   1      28.581  17.044   6.284  0.00  0.00     0.217 HD
ENDBRANCH  25  28
ENDBRANCH  21  22
BRANCH  21  30
HETATM   30  C   UNK N   1      35.020  18.071   8.853  0.00  0.00     0.156 C 
HETATM   31  O   UNK N   1      35.611  18.023   9.921  0.00  0.00    -0.649 OA
BRANCH  30  32
HETATM   32  O   UNK N   1      34.911  19.257   8.223  0.00  0.00    -0.775 OA
HETATM   33  H   UNK N   1      34.392  19.981   8.512  0.00  0.00     0.167 HD
ENDBRANCH  30  32
ENDBRANCH  21  30
ENDBRANCH   1  21
BRANCH   1  34
HETATM   34  O   UNK N   1      34.018  15.471  10.309  0.00  0.00    -0.349 OA
HETATM   35  H   UNK N   1      33.719  15.337  11.187  0.00  0.00     0.219 HD
ENDBRANCH   1  34
TORSDOF 12
ENDMDL
