MODEL 1
REMARK VINA RESULT:      -5.4      0.000      0.000
REMARK  8 active torsions:
REMARK  status: ('A' for Active; 'I' for Inactive)
REMARK    1  A    between atoms: N_1  and  C_2 
REMARK    2  A    between atoms: C_2  and  C_3 
REMARK    3  A    between atoms: C_6  and  C_7 
REMARK    4  A    between atoms: C_7  and  N_8 
REMARK    5  A    between atoms: N_8  and  C_9 
REMARK    6  A    between atoms: C_9  and  C_10 
REMARK    7  A    between atoms: C_10  and  C_11 
REMARK    8  A    between atoms: C_11  and  O_12 
ROOT
HETATM    1  C   UNK N   1      22.676  12.572  10.519  0.00  0.00    -0.033 A 
HETATM    2  C   UNK N   1      23.154  13.344   9.457  0.00  0.00     0.009 A 
HETATM    3  C   UNK N   1      22.286  14.172   8.741  0.00  0.00     0.009 A 
HETATM    4  C   UNK N   1      20.927  14.241   9.085  0.00  0.00    -0.041 A 
HETATM    5  C   UNK N   1      20.449  13.477  10.154  0.00  0.00     0.009 A 
HETATM    6  C   UNK N   1      21.317  12.642  10.865  0.00  0.00     0.009 A 
ENDROOT
BRANCH   4   7
HETATM    7  C   UNK N   1      19.970  15.122   8.332  0.00  0.00     0.152 C 
BRANCH   7   8
HETATM    8  N   UNK N   1      19.984  16.499   8.812  0.00  0.00    -0.417 N 
HETATM    9  H   UNK N   1      20.785  16.987   9.212  0.00  0.00     0.153 HD
BRANCH   8  10
HETATM   10  C   UNK N   1      18.652  17.054   8.619  0.00  0.00     0.124 C 
BRANCH  10  11
HETATM   11  C   UNK N   1      18.294  17.974   9.780  0.00  0.00     0.129 C 
BRANCH  11  12
HETATM   12  C   UNK N   1      19.306  19.062  10.003  0.00  0.00     0.140 C 
HETATM   13  O   UNK N   1      20.182  19.285   9.183  0.00  0.00    -0.650 OA
BRANCH  12  14
HETATM   14  O   UNK N   1      19.232  19.811  11.119  0.00  0.00    -0.776 OA
HETATM   15  H   UNK N   1      18.604  20.500  11.212  0.00  0.00     0.167 HD
ENDBRANCH  12  14
ENDBRANCH  11  12
ENDBRANCH  10  11
ENDBRANCH   8  10
ENDBRANCH   7   8
ENDBRANCH   4   7
BRANCH   1  16
HETATM   16  C   UNK N   1      23.637  11.687  11.254  0.00  0.00     0.268 C 
BRANCH  16  17
HETATM   17  N   UNK N   1      24.979  12.247  11.293  0.00  0.00    -0.075 N 
HETATM   18  H   UNK N   1      25.536  12.297  10.440  0.00  0.00     0.274 HD
HETATM   19  H   UNK N   1      25.363  12.591  12.173  0.00  0.00     0.274 HD
HETATM   20  H   UNK N   1      25.920  12.640  11.320  0.00  0.00     0.274 HD
ENDBRANCH  16  17
ENDBRANCH   1  16
TORSDOF 8
ENDMDL
MODEL 2
REMARK VINA RESULT:      -5.3     11.077     13.084
REMARK  8 active torsions:
REMARK  status: ('A' for Active; 'I' for Inactive)
REMARK    1  A    between atoms: N_1  and  C_2 
REMARK    2  A    between atoms: C_2  and  C_3 
REMARK    3  A    between atoms: C_6  and  C_7 
REMARK    4  A    between atoms: C_7  and  N_8 
REMARK    5  A    between atoms: N_8  and  C_9 
REMARK    6  A    between atoms: C_9  and  C_10 
REMARK    7  A    between atoms: C_10  and  C_11 
REMARK    8  A    between atoms: C_11  and  O_12 
ROOT
HETATM    1  C   UNK N   1      29.556  17.427   7.911  0.00  0.00    -0.033 A 
HETATM    2  C   UNK N   1      29.915  16.884   6.673  0.00  0.00     0.009 A 
HETATM    3  C   UNK N   1      31.255  16.855   6.280  0.00  0.00     0.009 A 
HETATM    4  C   UNK N   1      32.254  17.364   7.124  0.00  0.00    -0.041 A 
HETATM    5  C   UNK N   1      31.897  17.898   8.366  0.00  0.00     0.009 A 
HETATM    6  C   UNK N   1      30.555  17.935   8.757  0.00  0.00     0.009 A 
ENDROOT
BRANCH   4   7
HETATM    7  C   UNK N   1      33.703  17.346   6.726  0.00  0.00     0.152 C 
BRANCH   7   8
HETATM    8  N   UNK N   1      34.595  17.203   7.872  0.00  0.00    -0.417 N 
HETATM    9  H   UNK N   1      34.965  17.963   8.442  0.00  0.00     0.153 HD
BRANCH   8  10
HETATM   10  C   UNK N   1      34.862  15.784   8.057  0.00  0.00     0.124 C 
BRANCH  10  11
HETATM   11  C   UNK N   1      34.883  15.443   9.541  0.00  0.00     0.129 C 
BRANCH  11  12
HETATM   12  C   UNK N   1      35.751  16.369  10.345  0.00  0.00     0.140 C 
HETATM   13  O   UNK N   1      35.391  17.508  10.600  0.00  0.00    -0.650 OA
BRANCH  12  14
HETATM   14  O   UNK N   1      36.937  15.929  10.805  0.00  0.00    -0.776 OA
HETATM   15  H   UNK N   1      37.747  16.314  10.535  0.00  0.00     0.167 HD
ENDBRANCH  12  14
ENDBRANCH  11  12
ENDBRANCH  10  11
ENDBRANCH   8  10
ENDBRANCH   7   8
ENDBRANCH   4   7
BRANCH   1  16
HETATM   16  C   UNK N   1      28.106  17.453   8.291  0.00  0.00     0.268 C 
BRANCH  16  17
HETATM   17  N   UNK N   1      27.738  18.690   8.962  0.00  0.00    -0.075 N 
HETATM   18  H   UNK N   1      27.334  19.460   8.428  0.00  0.00     0.274 HD
HETATM   19  H   UNK N   1      27.884  18.789   9.967  0.00  0.00     0.274 HD
HETATM   20  H   UNK N   1      27.480  19.558   9.433  0.00  0.00     0.274 HD
ENDBRANCH  16  17
ENDBRANCH   1  16
TORSDOF 8
ENDMDL
MODEL 3
REMARK VINA RESULT:      -5.2     19.317     20.623
REMARK  8 active torsions:
REMARK  status: ('A' for Active; 'I' for Inactive)
REMARK    1  A    between atoms: N_1  and  C_2 
REMARK    2  A    between atoms: C_2  and  C_3 
REMARK    3  A    between atoms: C_6  and  C_7 
REMARK    4  A    between atoms: C_7  and  N_8 
REMARK    5  A    between atoms: N_8  and  C_9 
REMARK    6  A    between atoms: C_9  and  C_10 
REMARK    7  A    between atoms: C_10  and  C_11 
REMARK    8  A    between atoms: C_11  and  O_12 
ROOT
HETATM    1  C   UNK N   1      26.322  28.579  -4.830  0.00  0.00    -0.033 A 
HETATM    2  C   UNK N   1      27.237  28.446  -5.879  0.00  0.00     0.009 A 
HETATM    3  C   UNK N   1      27.065  27.447  -6.840  0.00  0.00     0.009 A 
HETATM    4  C   UNK N   1      25.971  26.571  -6.765  0.00  0.00    -0.041 A 
HETATM    5  C   UNK N   1      25.050  26.710  -5.722  0.00  0.00     0.009 A 
HETATM    6  C   UNK N   1      25.226  27.706  -4.756  0.00  0.00     0.009 A 
ENDROOT
BRANCH   4   7
HETATM    7  C   UNK N   1      25.762  25.486  -7.784  0.00  0.00     0.152 C 
BRANCH   7   8
HETATM    8  N   UNK N   1      25.390  24.214  -7.176  0.00  0.00    -0.417 N 
HETATM    9  H   UNK N   1      24.440  23.895  -6.984  0.00  0.00     0.153 HD
BRANCH   8  10
HETATM   10  C   UNK N   1      26.614  23.479  -6.889  0.00  0.00     0.124 C 
BRANCH  10  11
HETATM   11  C   UNK N   1      26.549  22.089  -7.508  0.00  0.00     0.129 C 
BRANCH  11  12
HETATM   12  C   UNK N   1      25.144  21.629  -7.777  0.00  0.00     0.140 C 
HETATM   13  O   UNK N   1      24.429  21.225  -6.874  0.00  0.00    -0.650 OA
BRANCH  12  14
HETATM   14  O   UNK N   1      24.663  21.681  -9.033  0.00  0.00    -0.776 OA
HETATM   15  H   UNK N   1      25.004  21.139  -9.717  0.00  0.00     0.167 HD
ENDBRANCH  12  14
ENDBRANCH  11  12
ENDBRANCH  10  11
ENDBRANCH   8  10
ENDBRANCH   7   8
ENDBRANCH   4   7
BRANCH   1  16
HETATM   16  C   UNK N   1      26.548  29.656  -3.812  0.00  0.00     0.268 C 
BRANCH  16  17
HETATM   17  N   UNK N   1      27.086  29.129  -2.567  0.00  0.00    -0.075 N 
HETATM   18  H   UNK N   1      27.268  29.756  -1.783  0.00  0.00     0.274 HD
HETATM   19  H   UNK N   1      27.283  28.132  -2.479  0.00  0.00     0.274 HD
HETATM   20  H   UNK N   1      27.464  28.758  -1.695  0.00  0.00     0.274 HD
ENDBRANCH  16  17
ENDBRANCH   1  16
TORSDOF 8
ENDMDL
MODEL 4
REMARK VINA RESULT:      -5.2      1.041      1.810
REMARK  8 active torsions:
REMARK  status: ('A' for Active; 'I' for Inactive)
REMARK    1  A    between atoms: N_1  and  C_2 
REMARK    2  A    between atoms: C_2  and  C_3 
REMARK    3  A    between atoms: C_6  and  C_7 
REMARK    4  A    between atoms: C_7  and  N_8 
REMARK    5  A    between atoms: N_8  and  C_9 
REMARK    6  A    between atoms: C_9  and  C_10 
REMARK    7  A    between atoms: C_10  and  C_11 
REMARK    8  A    between atoms: C_11  and  O_12 
ROOT
HETATM    1  C   UNK N   1      22.781  12.466  10.208  0.00  0.00    -0.033 A 
HETATM    2  C   UNK N   1      21.579  13.082  10.569  0.00  0.00     0.009 A 
HETATM    3  C   UNK N   1      20.812  13.746   9.609  0.00  0.00     0.009 A 
HETATM    4  C   UNK N   1      21.237  13.796   8.272  0.00  0.00    -0.041 A 
HETATM    5  C   UNK N   1      22.435  13.172   7.908  0.00  0.00     0.009 A 
HETATM    6  C   UNK N   1      23.206  12.514   8.871  0.00  0.00     0.009 A 
ENDROOT
BRANCH   4   7
HETATM    7  C   UNK N   1      20.433  14.504   7.218  0.00  0.00     0.152 C 
BRANCH   7   8
HETATM    8  N   UNK N   1      20.582  15.954   7.283  0.00  0.00    -0.417 N 
HETATM    9  H   UNK N   1      21.454  16.473   7.178  0.00  0.00     0.153 HD
BRANCH   8  10
HETATM   10  C   UNK N   1      19.267  16.530   7.522  0.00  0.00     0.124 C 
BRANCH  10  11
HETATM   11  C   UNK N   1      19.218  17.171   8.903  0.00  0.00     0.129 C 
BRANCH  11  12
HETATM   12  C   UNK N   1      19.895  18.512   8.954  0.00  0.00     0.140 C 
HETATM   13  O   UNK N   1      19.838  19.209   9.954  0.00  0.00    -0.650 OA
BRANCH  12  14
HETATM   14  O   UNK N   1      20.589  18.941   7.883  0.00  0.00    -0.776 OA
HETATM   15  H   UNK N   1      20.771  19.849   7.743  0.00  0.00     0.167 HD
ENDBRANCH  12  14
ENDBRANCH  11  12
ENDBRANCH  10  11
ENDBRANCH   8  10
ENDBRANCH   7   8
ENDBRANCH   4   7
BRANCH   1  16
HETATM   16  C   UNK N   1      23.582  11.775  11.270  0.00  0.00     0.268 C 
BRANCH  16  17
HETATM   17  N   UNK N   1      24.936  12.299  11.363  0.00  0.00    -0.075 N 
HETATM   18  H   UNK N   1      25.734  11.673  11.253  0.00  0.00     0.274 HD
HETATM   19  H   UNK N   1      25.088  13.292  11.539  0.00  0.00     0.274 HD
HETATM   20  H   UNK N   1      25.885  12.667  11.429  0.00  0.00     0.274 HD
ENDBRANCH  16  17
ENDBRANCH   1  16
TORSDOF 8
ENDMDL
MODEL 5
REMARK VINA RESULT:      -5.2     11.537     13.568
REMARK  8 active torsions:
REMARK  status: ('A' for Active; 'I' for Inactive)
REMARK    1  A    between atoms: N_1  and  C_2 
REMARK    2  A    between atoms: C_2  and  C_3 
REMARK    3  A    between atoms: C_6  and  C_7 
REMARK    4  A    between atoms: C_7  and  N_8 
REMARK    5  A    between atoms: N_8  and  C_9 
REMARK    6  A    between atoms: C_9  and  C_10 
REMARK    7  A    between atoms: C_10  and  C_11 
REMARK    8  A    between atoms: C_11  and  O_12 
ROOT
HETATM    1  C   UNK N   1      31.214  17.023   5.511  0.00  0.00    -0.033 A 
HETATM    2  C   UNK N   1      32.528  17.210   5.072  0.00  0.00     0.009 A 
HETATM    3  C   UNK N   1      33.528  17.568   5.978  0.00  0.00     0.009 A 
HETATM    4  C   UNK N   1      33.225  17.739   7.338  0.00  0.00    -0.041 A 
HETATM    5  C   UNK N   1      31.914  17.542   7.780  0.00  0.00     0.009 A 
HETATM    6  C   UNK N   1      30.910  17.191   6.871  0.00  0.00     0.009 A 
ENDROOT
BRANCH   4   7
HETATM    7  C   UNK N   1      34.282  18.125   8.335  0.00  0.00     0.152 C 
BRANCH   7   8
HETATM    8  N   UNK N   1      34.300  17.244   9.498  0.00  0.00    -0.417 N 
HETATM    9  H   UNK N   1      33.961  17.475  10.431  0.00  0.00     0.153 HD
BRANCH   8  10
HETATM   10  C   UNK N   1      34.890  15.978   9.090  0.00  0.00     0.124 C 
BRANCH  10  11
HETATM   11  C   UNK N   1      35.447  15.243  10.303  0.00  0.00     0.129 C 
BRANCH  11  12
HETATM   12  C   UNK N   1      34.378  14.766  11.244  0.00  0.00     0.140 C 
HETATM   13  O   UNK N   1      34.661  14.143  12.255  0.00  0.00    -0.650 OA
BRANCH  12  14
HETATM   14  O   UNK N   1      33.089  15.045  10.974  0.00  0.00    -0.776 OA
HETATM   15  H   UNK N   1      32.828  15.453  10.172  0.00  0.00     0.167 HD
ENDBRANCH  12  14
ENDBRANCH  11  12
ENDBRANCH  10  11
ENDBRANCH   8  10
ENDBRANCH   7   8
ENDBRANCH   4   7
BRANCH   1  16
HETATM   16  C   UNK N   1      30.166  16.651   4.505  0.00  0.00     0.268 C 
BRANCH  16  17
HETATM   17  N   UNK N   1      30.579  16.961   3.144  0.00  0.00    -0.075 N 
HETATM   18  H   UNK N   1      29.984  16.698   2.358  0.00  0.00     0.274 HD
HETATM   19  H   UNK N   1      31.463  17.440   2.976  0.00  0.00     0.274 HD
HETATM   20  H   UNK N   1      30.868  17.178   2.190  0.00  0.00     0.274 HD
ENDBRANCH  16  17
ENDBRANCH   1  16
TORSDOF 8
ENDMDL
MODEL 6
REMARK VINA RESULT:      -5.1     10.188     12.200
REMARK  8 active torsions:
REMARK  status: ('A' for Active; 'I' for Inactive)
REMARK    1  A    between atoms: N_1  and  C_2 
REMARK    2  A    between atoms: C_2  and  C_3 
REMARK    3  A    between atoms: C_6  and  C_7 
REMARK    4  A    between atoms: C_7  and  N_8 
REMARK    5  A    between atoms: N_8  and  C_9 
REMARK    6  A    between atoms: C_9  and  C_10 
REMARK    7  A    between atoms: C_10  and  C_11 
REMARK    8  A    between atoms: C_11  and  O_12 
ROOT
HETATM    1  C   UNK N   1      28.342  18.568   6.032  0.00  0.00    -0.033 A 
HETATM    2  C   UNK N   1      29.363  17.769   5.508  0.00  0.00     0.009 A 
HETATM    3  C   UNK N   1      30.257  17.120   6.361  0.00  0.00     0.009 A 
HETATM    4  C   UNK N   1      30.137  17.258   7.753  0.00  0.00    -0.041 A 
HETATM    5  C   UNK N   1      29.110  18.048   8.279  0.00  0.00     0.009 A 
HETATM    6  C   UNK N   1      28.219  18.704   7.423  0.00  0.00     0.009 A 
ENDROOT
BRANCH   4   7
HETATM    7  C   UNK N   1      31.086  16.572   8.695  0.00  0.00     0.152 C 
BRANCH   7   8
HETATM    8  N   UNK N   1      32.321  17.323   8.887  0.00  0.00    -0.417 N 
HETATM    9  H   UNK N   1      32.437  18.329   8.768  0.00  0.00     0.153 HD
BRANCH   8  10
HETATM   10  C   UNK N   1      33.361  16.382   9.278  0.00  0.00     0.124 C 
BRANCH  10  11
HETATM   11  C   UNK N   1      34.692  16.782   8.655  0.00  0.00     0.129 C 
BRANCH  11  12
HETATM   12  C   UNK N   1      34.618  18.070   7.884  0.00  0.00     0.140 C 
HETATM   13  O   UNK N   1      34.985  19.123   8.380  0.00  0.00    -0.650 OA
BRANCH  12  14
HETATM   14  O   UNK N   1      34.154  18.056   6.620  0.00  0.00    -0.776 OA
HETATM   15  H   UNK N   1      33.386  17.576   6.380  0.00  0.00     0.167 HD
ENDBRANCH  12  14
ENDBRANCH  11  12
ENDBRANCH  10  11
ENDBRANCH   8  10
ENDBRANCH   7   8
ENDBRANCH   4   7
BRANCH   1  16
HETATM   16  C   UNK N   1      27.410  19.258   5.082  0.00  0.00     0.268 C 
BRANCH  16  17
HETATM   17  N   UNK N   1      28.036  19.523   3.795  0.00  0.00    -0.075 N 
HETATM   18  H   UNK N   1      29.009  19.258   3.637  0.00  0.00     0.274 HD
HETATM   19  H   UNK N   1      27.503  19.973   3.052  0.00  0.00     0.274 HD
HETATM   20  H   UNK N   1      28.475  19.709   2.894  0.00  0.00     0.274 HD
ENDBRANCH  16  17
ENDBRANCH   1  16
TORSDOF 8
ENDMDL
MODEL 7
REMARK VINA RESULT:      -5.0      9.879     11.726
REMARK  8 active torsions:
REMARK  status: ('A' for Active; 'I' for Inactive)
REMARK    1  A    between atoms: N_1  and  C_2 
REMARK    2  A    between atoms: C_2  and  C_3 
REMARK    3  A    between atoms: C_6  and  C_7 
REMARK    4  A    between atoms: C_7  and  N_8 
REMARK    5  A    between atoms: N_8  and  C_9 
REMARK    6  A    between atoms: C_9  and  C_10 
REMARK    7  A    between atoms: C_10  and  C_11 
REMARK    8  A    between atoms: C_11  and  O_12 
ROOT
HETATM    1  C   UNK N   1      27.159  20.455   6.393  0.00  0.00    -0.033 A 
HETATM    2  C   UNK N   1      27.765  19.525   7.243  0.00  0.00     0.009 A 
HETATM    3  C   UNK N   1      28.569  18.512   6.719  0.00  0.00     0.009 A 
HETATM    4  C   UNK N   1      28.783  18.420   5.335  0.00  0.00    -0.041 A 
HETATM    5  C   UNK N   1      28.186  19.355   4.484  0.00  0.00     0.009 A 
HETATM    6  C   UNK N   1      27.373  20.365   5.009  0.00  0.00     0.009 A 
ENDROOT
BRANCH   4   7
HETATM    7  C   UNK N   1      29.643  17.339   4.743  0.00  0.00     0.152 C 
BRANCH   7   8
HETATM    8  N   UNK N   1      30.951  17.832   4.325  0.00  0.00    -0.417 N 
HETATM    9  H   UNK N   1      31.128  18.681   3.788  0.00  0.00     0.153 HD
BRANCH   8  10
HETATM   10  C   UNK N   1      31.957  16.900   4.810  0.00  0.00     0.124 C 
BRANCH  10  11
HETATM   11  C   UNK N   1      32.057  16.976   6.328  0.00  0.00     0.129 C 
BRANCH  11  12
HETATM   12  C   UNK N   1      33.294  17.685   6.802  0.00  0.00     0.140 C 
HETATM   13  O   UNK N   1      34.309  17.701   6.124  0.00  0.00    -0.650 OA
BRANCH  12  14
HETATM   14  O   UNK N   1      33.274  18.326   7.985  0.00  0.00    -0.776 OA
HETATM   15  H   UNK N   1      32.644  18.992   8.177  0.00  0.00     0.167 HD
ENDBRANCH  12  14
ENDBRANCH  11  12
ENDBRANCH  10  11
ENDBRANCH   8  10
ENDBRANCH   7   8
ENDBRANCH   4   7
BRANCH   1  16
HETATM   16  C   UNK N   1      26.292  21.521   6.993  0.00  0.00     0.268 C 
BRANCH  16  17
HETATM   17  N   UNK N   1      25.743  21.119   8.280  0.00  0.00    -0.075 N 
HETATM   18  H   UNK N   1      24.958  20.469   8.320  0.00  0.00     0.274 HD
HETATM   19  H   UNK N   1      26.142  21.489   9.143  0.00  0.00     0.274 HD
HETATM   20  H   UNK N   1      25.358  20.839   9.182  0.00  0.00     0.274 HD
ENDBRANCH  16  17
ENDBRANCH   1  16
TORSDOF 8
ENDMDL
MODEL 8
REMARK VINA RESULT:      -4.9      9.808     10.962
REMARK  8 active torsions:
REMARK  status: ('A' for Active; 'I' for Inactive)
REMARK    1  A    between atoms: N_1  and  C_2 
REMARK    2  A    between atoms: C_2  and  C_3 
REMARK    3  A    between atoms: C_6  and  C_7 
REMARK    4  A    between atoms: C_7  and  N_8 
REMARK    5  A    between atoms: N_8  and  C_9 
REMARK    6  A    between atoms: C_9  and  C_10 
REMARK    7  A    between atoms: C_10  and  C_11 
REMARK    8  A    between atoms: C_11  and  O_12 
ROOT
HETATM    1  C   UNK N   1      33.325  17.657   7.600  0.00  0.00    -0.033 A 
HETATM    2  C   UNK N   1      32.062  17.564   8.192  0.00  0.00     0.009 A 
HETATM    3  C   UNK N   1      30.929  17.351   7.404  0.00  0.00     0.009 A 
HETATM    4  C   UNK N   1      31.048  17.222   6.011  0.00  0.00    -0.041 A 
HETATM    5  C   UNK N   1      32.311  17.305   5.418  0.00  0.00     0.009 A 
HETATM    6  C   UNK N   1      33.445  17.526   6.207  0.00  0.00     0.009 A 
ENDROOT
BRANCH   4   7
HETATM    7  C   UNK N   1      29.846  16.993   5.138  0.00  0.00     0.152 C 
BRANCH   7   8
HETATM    8  N   UNK N   1      29.469  18.183   4.384  0.00  0.00    -0.417 N 
HETATM    9  H   UNK N   1      30.111  18.851   3.957  0.00  0.00     0.153 HD
BRANCH   8  10
HETATM   10  C   UNK N   1      28.016  18.250   4.349  0.00  0.00     0.124 C 
BRANCH  10  11
HETATM   11  C   UNK N   1      27.554  19.699   4.438  0.00  0.00     0.129 C 
BRANCH  11  12
HETATM   12  C   UNK N   1      27.634  20.257   5.831  0.00  0.00     0.140 C 
HETATM   13  O   UNK N   1      27.966  19.555   6.773  0.00  0.00    -0.650 OA
BRANCH  12  14
HETATM   14  O   UNK N   1      27.349  21.556   6.038  0.00  0.00    -0.776 OA
HETATM   15  H   UNK N   1      27.213  21.902   6.898  0.00  0.00     0.167 HD
ENDBRANCH  12  14
ENDBRANCH  11  12
ENDBRANCH  10  11
ENDBRANCH   8  10
ENDBRANCH   7   8
ENDBRANCH   4   7
BRANCH   1  16
HETATM   16  C   UNK N   1      34.515  17.900   8.478  0.00  0.00     0.268 C 
BRANCH  16  17
HETATM   17  N   UNK N   1      34.399  17.217   9.758  0.00  0.00    -0.075 N 
HETATM   18  H   UNK N   1      34.844  17.609  10.589  0.00  0.00     0.274 HD
HETATM   19  H   UNK N   1      33.873  16.346   9.826  0.00  0.00     0.274 HD
HETATM   20  H   UNK N   1      34.318  16.738  10.655  0.00  0.00     0.274 HD
ENDBRANCH  16  17
ENDBRANCH   1  16
TORSDOF 8
ENDMDL
MODEL 9
REMARK VINA RESULT:      -4.9     14.436     15.974
REMARK  8 active torsions:
REMARK  status: ('A' for Active; 'I' for Inactive)
REMARK    1  A    between atoms: N_1  and  C_2 
REMARK    2  A    between atoms: C_2  and  C_3 
REMARK    3  A    between atoms: C_6  and  C_7 
REMARK    4  A    between atoms: C_7  and  N_8 
REMARK    5  A    between atoms: N_8  and  C_9 
REMARK    6  A    between atoms: C_9  and  C_10 
REMARK    7  A    between atoms: C_10  and  C_11 
REMARK    8  A    between atoms: C_11  and  O_12 
ROOT
HETATM    1  C   UNK N   1      35.390  11.613  17.940  0.00  0.00    -0.033 A 
HETATM    2  C   UNK N   1      35.115  12.983  17.904  0.00  0.00     0.009 A 
HETATM    3  C   UNK N   1      35.341  13.717  16.738  0.00  0.00     0.009 A 
HETATM    4  C   UNK N   1      35.841  13.085  15.589  0.00  0.00    -0.041 A 
HETATM    5  C   UNK N   1      36.107  11.713  15.619  0.00  0.00     0.009 A 
HETATM    6  C   UNK N   1      35.888  10.980  16.791  0.00  0.00     0.009 A 
ENDROOT
BRANCH   4   7
HETATM    7  C   UNK N   1      36.095  13.849  14.319  0.00  0.00     0.152 C 
BRANCH   7   8
HETATM    8  N   UNK N   1      35.549  13.178  13.145  0.00  0.00    -0.417 N 
HETATM    9  H   UNK N   1      34.979  12.332  13.148  0.00  0.00     0.153 HD
BRANCH   8  10
HETATM   10  C   UNK N   1      35.963  13.927  11.968  0.00  0.00     0.124 C 
BRANCH  10  11
HETATM   11  C   UNK N   1      34.909  14.965  11.608  0.00  0.00     0.129 C 
BRANCH  11  12
HETATM   12  C   UNK N   1      35.472  16.145  10.867  0.00  0.00     0.140 C 
HETATM   13  O   UNK N   1      36.678  16.298  10.751  0.00  0.00    -0.650 OA
BRANCH  12  14
HETATM   14  O   UNK N   1      34.632  17.036  10.310  0.00  0.00    -0.776 OA
HETATM   15  H   UNK N   1      34.650  17.228   9.394  0.00  0.00     0.167 HD
ENDBRANCH  12  14
ENDBRANCH  11  12
ENDBRANCH  10  11
ENDBRANCH   8  10
ENDBRANCH   7   8
ENDBRANCH   4   7
BRANCH   1  16
HETATM   16  C   UNK N   1      35.146  10.864  19.215  0.00  0.00     0.268 C 
BRANCH  16  17
HETATM   17  N   UNK N   1      35.398  11.685  20.390  0.00  0.00    -0.075 N 
HETATM   18  H   UNK N   1      35.199  11.319  21.321  0.00  0.00     0.274 HD
HETATM   19  H   UNK N   1      35.773  12.627  20.283  0.00  0.00     0.274 HD
HETATM   20  H   UNK N   1      35.574  12.261  21.213  0.00  0.00     0.274 HD
ENDBRANCH  16  17
ENDBRANCH   1  16
TORSDOF 8
ENDMDL
