MODEL 1
REMARK VINA RESULT:      -8.0      0.000      0.000
REMARK  13 active torsions:
REMARK  status: ('A' for Active; 'I' for Inactive)
REMARK    1  A    between atoms: C_10  and  C_8 
REMARK    2  A    between atoms: O_27  and  C_8 
REMARK    3  A    between atoms: O_29  and  C_9 
REMARK    4  A    between atoms: O_19  and  C_11 
REMARK    5  A    between atoms: C_12  and  O_20 
REMARK    6  A    between atoms: C_13  and  O_21 
REMARK    7  A    between atoms: C_14  and  N_18 
REMARK    8  A    between atoms: P_31  and  O_23 
REMARK    9  A    between atoms: P_32  and  O_25 
REMARK   10  A    between atoms: P_31  and  O_27 
REMARK   11  A    between atoms: P_32  and  O_29 
REMARK   12  A    between atoms: P_31  and  O_30 
REMARK   13  A    between atoms: P_32  and  O_30 
ROOT
HETATM    1  C   UNK N   1      30.492  17.856   7.672  0.00  0.00     0.180 C 
HETATM    2  C   UNK N   1      29.686  17.822   8.961  0.00  0.00     0.182 C 
HETATM    3  C   UNK N   1      28.422  18.398   8.387  0.00  0.00     0.198 C 
HETATM    4  C   UNK N   1      28.343  17.611   7.051  0.00  0.00     0.263 C 
HETATM    5  O   UNK N   1      29.674  17.223   6.730  0.00  0.00    -0.353 OA
ENDROOT
BRANCH   1   6
HETATM    6  C   UNK N   1      31.877  17.243   7.697  0.00  0.00     0.215 C 
BRANCH   6   7
HETATM    7  O   UNK N   1      32.684  17.761   8.701  0.00  0.00    -0.294 OA
BRANCH   7   8
HETATM    8  P   UNK N   1      34.253  17.760   7.957  0.00  0.00     0.401 P 
HETATM    9  O   UNK N   1      34.030  17.946   6.432  0.00  0.00    -0.631 OA
BRANCH   8  10
HETATM   10  O   UNK N   1      35.261  19.081   8.475  0.00  0.00    -0.307 OA
HETATM   11  H   UNK N   1      35.938  19.248   9.148  0.00  0.00     0.222 HD
ENDBRANCH   8  10
BRANCH   8  12
HETATM   12  O   UNK N   1      35.050  16.235   8.150  0.00  0.00    -0.195 OA
BRANCH  12  13
HETATM   13  P   UNK N   1      35.028  15.864   9.854  0.00  0.00     0.407 P 
HETATM   14  O   UNK N   1      33.810  14.950  10.160  0.00  0.00    -0.631 OA
BRANCH  13  15
HETATM   15  O   UNK N   1      34.920  17.275  10.857  0.00  0.00    -0.307 OA
HETATM   16  H   UNK N   1      34.432  18.103  10.720  0.00  0.00     0.222 HD
ENDBRANCH  13  15
BRANCH  13  17
HETATM   17  O   UNK N   1      36.453  15.009  10.296  0.00  0.00    -0.254 OA
BRANCH  17  18
HETATM   18  C   UNK N   1      36.549  14.276  11.428  0.00  0.00     0.081 A 
HETATM   19  C   UNK N   1      37.112  12.999  11.358  0.00  0.00     0.037 A 
HETATM   20  C   UNK N   1      37.171  12.192  12.498  0.00  0.00     0.003 A 
HETATM   21  C   UNK N   1      36.684  12.667  13.719  0.00  0.00     0.000 A 
HETATM   22  C   UNK N   1      36.143  13.952  13.803  0.00  0.00     0.003 A 
HETATM   23  C   UNK N   1      36.071  14.752  12.661  0.00  0.00     0.037 A 
ENDBRANCH  17  18
ENDBRANCH  13  17
ENDBRANCH  12  13
ENDBRANCH   8  12
ENDBRANCH   7   8
ENDBRANCH   6   7
ENDBRANCH   1   6
BRANCH   2  24
HETATM   24  O   UNK N   1      30.231  18.623   9.966  0.00  0.00    -0.390 OA
HETATM   25  H   UNK N   1      30.628  19.505   9.906  0.00  0.00     0.210 HD
ENDBRANCH   2  24
BRANCH   3  26
HETATM   26  O   UNK N   1      27.307  18.220   9.209  0.00  0.00    -0.388 OA
HETATM   27  H   UNK N   1      27.034  18.023  10.118  0.00  0.00     0.210 HD
ENDBRANCH   3  26
BRANCH   4  28
HETATM   28  N   UNK N   1      27.783  18.303   5.862  0.00  0.00    -0.280 N 
HETATM   29  C   UNK N   1      27.759  19.667   5.951  0.00  0.00     0.103 A 
HETATM   30  C   UNK N   1      27.153  20.450   4.977  0.00  0.00     0.073 A 
HETATM   31  C   UNK N   1      26.564  19.825   3.892  0.00  0.00     0.144 A 
HETATM   32  N   UNK N   1      26.620  18.475   3.778  0.00  0.00    -0.289 N 
HETATM   33  C   UNK N   1      27.224  17.704   4.735  0.00  0.00     0.330 A 
ATOM     34  HN  UNK N   1      26.205  18.026   2.961  1.00  0.00     0.172 HD
HETATM   35  O   UNK N   1      27.247  16.499   4.576  0.00  0.00    -0.246 OA
BRANCH  31  36
HETATM   36  O   UNK N   1      25.935  20.553   2.957  0.00  0.00    -0.346 OA
HETATM   37  H   UNK N   1      25.630  21.426   3.115  0.00  0.00     0.219 HD
ENDBRANCH  31  36
ENDBRANCH   4  28
TORSDOF 13
ENDMDL
MODEL 2
REMARK VINA RESULT:      -7.8      3.696      5.780
REMARK  13 active torsions:
REMARK  status: ('A' for Active; 'I' for Inactive)
REMARK    1  A    between atoms: C_10  and  C_8 
REMARK    2  A    between atoms: O_27  and  C_8 
REMARK    3  A    between atoms: O_29  and  C_9 
REMARK    4  A    between atoms: O_19  and  C_11 
REMARK    5  A    between atoms: C_12  and  O_20 
REMARK    6  A    between atoms: C_13  and  O_21 
REMARK    7  A    between atoms: C_14  and  N_18 
REMARK    8  A    between atoms: P_31  and  O_23 
REMARK    9  A    between atoms: P_32  and  O_25 
REMARK   10  A    between atoms: P_31  and  O_27 
REMARK   11  A    between atoms: P_32  and  O_29 
REMARK   12  A    between atoms: P_31  and  O_30 
REMARK   13  A    between atoms: P_32  and  O_30 
ROOT
HETATM    1  C   UNK N   1      33.971  15.663   9.250  0.00  0.00     0.180 C 
HETATM    2  C   UNK N   1      34.743  16.899   9.684  0.00  0.00     0.182 C 
HETATM    3  C   UNK N   1      34.542  17.679   8.415  0.00  0.00     0.198 C 
HETATM    4  C   UNK N   1      33.039  17.391   8.151  0.00  0.00     0.263 C 
HETATM    5  O   UNK N   1      32.744  16.158   8.796  0.00  0.00    -0.353 OA
ENDROOT
BRANCH   1   6
HETATM    6  C   UNK N   1      33.775  14.566  10.276  0.00  0.00     0.215 C 
BRANCH   6   7
HETATM    7  O   UNK N   1      34.023  14.984  11.576  0.00  0.00    -0.294 OA
BRANCH   7   8
HETATM    8  P   UNK N   1      35.260  13.882  12.095  0.00  0.00     0.401 P 
HETATM    9  O   UNK N   1      35.231  12.678  11.116  0.00  0.00    -0.631 OA
BRANCH   8  10
HETATM   10  O   UNK N   1      36.862  14.555  12.005  0.00  0.00    -0.307 OA
HETATM   11  H   UNK N   1      37.699  14.364  11.552  0.00  0.00     0.222 HD
ENDBRANCH   8  10
BRANCH   8  12
HETATM   12  O   UNK N   1      34.924  13.239  13.667  0.00  0.00    -0.195 OA
BRANCH  12  13
HETATM   13  P   UNK N   1      36.446  12.714  14.336  0.00  0.00     0.407 P 
HETATM   14  O   UNK N   1      37.159  13.928  14.991  0.00  0.00    -0.631 OA
BRANCH  13  15
HETATM   15  O   UNK N   1      37.511  12.028  13.150  0.00  0.00    -0.307 OA
HETATM   16  H   UNK N   1      37.830  11.116  13.051  0.00  0.00     0.222 HD
ENDBRANCH  13  15
BRANCH  13  17
HETATM   17  O   UNK N   1      36.185  11.533  15.558  0.00  0.00    -0.254 OA
BRANCH  17  18
HETATM   18  C   UNK N   1      35.814  11.850  16.819  0.00  0.00     0.081 A 
HETATM   19  C   UNK N   1      35.445  13.168  17.102  0.00  0.00     0.037 A 
HETATM   20  C   UNK N   1      35.114  13.541  18.407  0.00  0.00     0.003 A 
HETATM   21  C   UNK N   1      35.131  12.592  19.434  0.00  0.00     0.000 A 
HETATM   22  C   UNK N   1      35.474  11.268  19.155  0.00  0.00     0.003 A 
HETATM   23  C   UNK N   1      35.819  10.898  17.853  0.00  0.00     0.037 A 
ENDBRANCH  17  18
ENDBRANCH  13  17
ENDBRANCH  12  13
ENDBRANCH   8  12
ENDBRANCH   7   8
ENDBRANCH   6   7
ENDBRANCH   1   6
BRANCH   2  24
HETATM   24  O   UNK N   1      36.090  16.638   9.943  0.00  0.00    -0.390 OA
HETATM   25  H   UNK N   1      36.842  16.603   9.332  0.00  0.00     0.210 HD
ENDBRANCH   2  24
BRANCH   3  26
HETATM   26  O   UNK N   1      34.837  19.038   8.546  0.00  0.00    -0.388 OA
HETATM   27  H   UNK N   1      35.531  19.701   8.405  0.00  0.00     0.210 HD
ENDBRANCH   3  26
BRANCH   4  28
HETATM   28  N   UNK N   1      32.586  17.275   6.741  0.00  0.00    -0.280 N 
HETATM   29  C   UNK N   1      33.592  17.244   5.816  0.00  0.00     0.103 A 
HETATM   30  C   UNK N   1      33.328  17.263   4.453  0.00  0.00     0.073 A 
HETATM   31  C   UNK N   1      32.012  17.313   4.030  0.00  0.00     0.144 A 
HETATM   32  N   UNK N   1      31.008  17.304   4.941  0.00  0.00    -0.289 N 
HETATM   33  C   UNK N   1      31.269  17.278   6.286  0.00  0.00     0.330 A 
ATOM     34  HN  UNK N   1      30.041  17.315   4.619  1.00  0.00     0.172 HD
HETATM   35  O   UNK N   1      30.328  17.266   7.057  0.00  0.00    -0.246 OA
BRANCH  31  36
HETATM   36  O   UNK N   1      31.728  17.375   2.720  0.00  0.00    -0.346 OA
HETATM   37  H   UNK N   1      31.888  18.140   2.202  0.00  0.00     0.219 HD
ENDBRANCH  31  36
ENDBRANCH   4  28
TORSDOF 13
ENDMDL
MODEL 3
REMARK VINA RESULT:      -7.8      2.599      4.762
REMARK  13 active torsions:
REMARK  status: ('A' for Active; 'I' for Inactive)
REMARK    1  A    between atoms: C_10  and  C_8 
REMARK    2  A    between atoms: O_27  and  C_8 
REMARK    3  A    between atoms: O_29  and  C_9 
REMARK    4  A    between atoms: O_19  and  C_11 
REMARK    5  A    between atoms: C_12  and  O_20 
REMARK    6  A    between atoms: C_13  and  O_21 
REMARK    7  A    between atoms: C_14  and  N_18 
REMARK    8  A    between atoms: P_31  and  O_23 
REMARK    9  A    between atoms: P_32  and  O_25 
REMARK   10  A    between atoms: P_31  and  O_27 
REMARK   11  A    between atoms: P_32  and  O_29 
REMARK   12  A    between atoms: P_31  and  O_30 
REMARK   13  A    between atoms: P_32  and  O_30 
ROOT
HETATM    1  C   UNK N   1      33.803  15.275   7.991  0.00  0.00     0.180 C 
HETATM    2  C   UNK N   1      34.673  16.179   7.131  0.00  0.00     0.182 C 
HETATM    3  C   UNK N   1      33.547  16.936   6.486  0.00  0.00     0.198 C 
HETATM    4  C   UNK N   1      32.639  17.182   7.722  0.00  0.00     0.263 C 
HETATM    5  O   UNK N   1      32.938  16.152   8.656  0.00  0.00    -0.353 OA
ENDROOT
BRANCH   1   6
HETATM    6  C   UNK N   1      34.504  14.351   8.965  0.00  0.00     0.215 C 
BRANCH   6   7
HETATM    7  O   UNK N   1      35.680  14.885   9.474  0.00  0.00    -0.294 OA
BRANCH   7   8
HETATM    8  P   UNK N   1      35.157  15.574  10.980  0.00  0.00     0.401 P 
HETATM    9  O   UNK N   1      35.185  17.116  10.805  0.00  0.00    -0.631 OA
BRANCH   8  10
HETATM   10  O   UNK N   1      33.520  15.152  11.397  0.00  0.00    -0.307 OA
HETATM   11  H   UNK N   1      32.887  15.342  12.107  0.00  0.00     0.222 HD
ENDBRANCH   8  10
BRANCH   8  12
HETATM   12  O   UNK N   1      36.258  15.210  12.265  0.00  0.00    -0.195 OA
BRANCH  12  13
HETATM   13  P   UNK N   1      36.021  13.531  12.676  0.00  0.00     0.407 P 
HETATM   14  O   UNK N   1      36.563  12.644  11.523  0.00  0.00    -0.631 OA
BRANCH  13  15
HETATM   15  O   UNK N   1      34.355  13.125  12.943  0.00  0.00    -0.307 OA
HETATM   16  H   UNK N   1      33.936  12.258  13.063  0.00  0.00     0.222 HD
ENDBRANCH  13  15
BRANCH  13  17
HETATM   17  O   UNK N   1      36.896  13.137  14.103  0.00  0.00    -0.254 OA
BRANCH  17  18
HETATM   18  C   UNK N   1      36.634  13.698  15.304  0.00  0.00     0.081 A 
HETATM   19  C   UNK N   1      35.705  13.081  16.147  0.00  0.00     0.037 A 
HETATM   20  C   UNK N   1      35.367  13.668  17.370  0.00  0.00     0.003 A 
HETATM   21  C   UNK N   1      35.972  14.865  17.765  0.00  0.00     0.000 A 
HETATM   22  C   UNK N   1      36.920  15.473  16.940  0.00  0.00     0.003 A 
HETATM   23  C   UNK N   1      37.247  14.895  15.712  0.00  0.00     0.037 A 
ENDBRANCH  17  18
ENDBRANCH  13  17
ENDBRANCH  12  13
ENDBRANCH   8  12
ENDBRANCH   7   8
ENDBRANCH   6   7
ENDBRANCH   1   6
BRANCH   2  24
HETATM   24  O   UNK N   1      35.443  15.473   6.204  0.00  0.00    -0.390 OA
HETATM   25  H   UNK N   1      35.506  15.582   5.243  0.00  0.00     0.210 HD
ENDBRANCH   2  24
BRANCH   3  26
HETATM   26  O   UNK N   1      33.959  18.111   5.852  0.00  0.00    -0.388 OA
HETATM   27  H   UNK N   1      34.646  18.487   5.281  0.00  0.00     0.210 HD
ENDBRANCH   3  26
BRANCH   4  28
HETATM   28  N   UNK N   1      31.167  17.183   7.519  0.00  0.00    -0.280 N 
HETATM   29  C   UNK N   1      30.740  16.512   6.408  0.00  0.00     0.103 A 
HETATM   30  C   UNK N   1      29.409  16.527   6.014  0.00  0.00     0.073 A 
HETATM   31  C   UNK N   1      28.498  17.241   6.773  0.00  0.00     0.144 A 
HETATM   32  N   UNK N   1      28.908  17.876   7.899  0.00  0.00    -0.289 N 
HETATM   33  C   UNK N   1      30.220  17.854   8.291  0.00  0.00     0.330 A 
ATOM     34  HN  UNK N   1      28.224  18.378   8.465  1.00  0.00     0.172 HD
HETATM   35  O   UNK N   1      30.528  18.438   9.312  0.00  0.00    -0.246 OA
BRANCH  31  36
HETATM   36  O   UNK N   1      27.213  17.308   6.393  0.00  0.00    -0.346 OA
HETATM   37  H   UNK N   1      26.719  16.552   6.143  0.00  0.00     0.219 HD
ENDBRANCH  31  36
ENDBRANCH   4  28
TORSDOF 13
ENDMDL
MODEL 4
REMARK VINA RESULT:      -7.8      5.476     11.156
REMARK  13 active torsions:
REMARK  status: ('A' for Active; 'I' for Inactive)
REMARK    1  A    between atoms: C_10  and  C_8 
REMARK    2  A    between atoms: O_27  and  C_8 
REMARK    3  A    between atoms: O_29  and  C_9 
REMARK    4  A    between atoms: O_19  and  C_11 
REMARK    5  A    between atoms: C_12  and  O_20 
REMARK    6  A    between atoms: C_13  and  O_21 
REMARK    7  A    between atoms: C_14  and  N_18 
REMARK    8  A    between atoms: P_31  and  O_23 
REMARK    9  A    between atoms: P_32  and  O_25 
REMARK   10  A    between atoms: P_31  and  O_27 
REMARK   11  A    between atoms: P_32  and  O_29 
REMARK   12  A    between atoms: P_31  and  O_30 
REMARK   13  A    between atoms: P_32  and  O_30 
ROOT
HETATM    1  C   UNK N   1      36.117  13.902  13.498  0.00  0.00     0.180 C 
HETATM    2  C   UNK N   1      36.559  12.619  12.811  0.00  0.00     0.182 C 
HETATM    3  C   UNK N   1      36.563  11.758  14.043  0.00  0.00     0.198 C 
HETATM    4  C   UNK N   1      35.235  12.219  14.704  0.00  0.00     0.263 C 
HETATM    5  O   UNK N   1      34.981  13.535  14.228  0.00  0.00    -0.353 OA
ENDROOT
BRANCH   1   6
HETATM    6  C   UNK N   1      35.842  15.105  12.621  0.00  0.00     0.215 C 
BRANCH   6   7
HETATM    7  O   UNK N   1      36.277  14.938  11.313  0.00  0.00    -0.294 OA
BRANCH   7   8
HETATM    8  P   UNK N   1      34.874  15.384  10.392  0.00  0.00     0.401 P 
HETATM    9  O   UNK N   1      34.916  14.560   9.078  0.00  0.00    -0.631 OA
BRANCH   8  10
HETATM   10  O   UNK N   1      33.376  14.981  11.182  0.00  0.00    -0.307 OA
HETATM   11  H   UNK N   1      32.433  15.186  11.085  0.00  0.00     0.222 HD
ENDBRANCH   8  10
BRANCH   8  12
HETATM   12  O   UNK N   1      34.921  17.050   9.924  0.00  0.00    -0.195 OA
BRANCH  12  13
HETATM   13  P   UNK N   1      33.859  17.221   8.552  0.00  0.00     0.407 P 
HETATM   14  O   UNK N   1      33.218  18.635   8.578  0.00  0.00    -0.631 OA
BRANCH  13  15
HETATM   15  O   UNK N   1      32.586  16.042   8.525  0.00  0.00    -0.307 OA
HETATM   16  H   UNK N   1      31.866  15.916   7.886  0.00  0.00     0.222 HD
ENDBRANCH  13  15
BRANCH  13  17
HETATM   17  O   UNK N   1      34.748  17.072   7.087  0.00  0.00    -0.254 OA
BRANCH  17  18
HETATM   18  C   UNK N   1      34.175  16.734   5.910  0.00  0.00     0.081 A 
HETATM   19  C   UNK N   1      33.297  17.637   5.305  0.00  0.00     0.037 A 
HETATM   20  C   UNK N   1      32.642  17.294   4.119  0.00  0.00     0.003 A 
HETATM   21  C   UNK N   1      32.877  16.052   3.522  0.00  0.00     0.000 A 
HETATM   22  C   UNK N   1      33.773  15.154   4.107  0.00  0.00     0.003 A 
HETATM   23  C   UNK N   1      34.416  15.492   5.299  0.00  0.00     0.037 A 
ENDBRANCH  17  18
ENDBRANCH  13  17
ENDBRANCH  12  13
ENDBRANCH   8  12
ENDBRANCH   7   8
ENDBRANCH   6   7
ENDBRANCH   1   6
BRANCH   2  24
HETATM   24  O   UNK N   1      37.822  12.721  12.226  0.00  0.00    -0.390 OA
HETATM   25  H   UNK N   1      38.063  12.876  11.300  0.00  0.00     0.210 HD
ENDBRANCH   2  24
BRANCH   3  26
HETATM   26  O   UNK N   1      36.604  10.390  13.766  0.00  0.00    -0.388 OA
HETATM   27  H   UNK N   1      36.357   9.518  14.111  0.00  0.00     0.210 HD
ENDBRANCH   3  26
BRANCH   4  28
HETATM   28  N   UNK N   1      35.170  12.263  16.188  0.00  0.00    -0.280 N 
HETATM   29  C   UNK N   1      35.103  13.520  16.721  0.00  0.00     0.103 A 
HETATM   30  C   UNK N   1      35.162  13.734  18.092  0.00  0.00     0.073 A 
HETATM   31  C   UNK N   1      35.290  12.641  18.931  0.00  0.00     0.144 A 
HETATM   32  N   UNK N   1      35.316  11.389  18.411  0.00  0.00    -0.289 N 
HETATM   33  C   UNK N   1      35.251  11.179  17.059  0.00  0.00     0.330 A 
ATOM     34  HN  UNK N   1      35.385  10.589  19.039  1.00  0.00     0.172 HD
HETATM   35  O   UNK N   1      35.275  10.034  16.650  0.00  0.00    -0.246 OA
BRANCH  31  36
HETATM   36  O   UNK N   1      35.391  12.820  20.257  0.00  0.00    -0.346 OA
HETATM   37  H   UNK N   1      35.946  12.292  20.798  0.00  0.00     0.219 HD
ENDBRANCH  31  36
ENDBRANCH   4  28
TORSDOF 13
ENDMDL
MODEL 5
REMARK VINA RESULT:      -7.6      4.986     11.078
REMARK  13 active torsions:
REMARK  status: ('A' for Active; 'I' for Inactive)
REMARK    1  A    between atoms: C_10  and  C_8 
REMARK    2  A    between atoms: O_27  and  C_8 
REMARK    3  A    between atoms: O_29  and  C_9 
REMARK    4  A    between atoms: O_19  and  C_11 
REMARK    5  A    between atoms: C_12  and  O_20 
REMARK    6  A    between atoms: C_13  and  O_21 
REMARK    7  A    between atoms: C_14  and  N_18 
REMARK    8  A    between atoms: P_31  and  O_23 
REMARK    9  A    between atoms: P_32  and  O_25 
REMARK   10  A    between atoms: P_31  and  O_27 
REMARK   11  A    between atoms: P_32  and  O_29 
REMARK   12  A    between atoms: P_31  and  O_30 
REMARK   13  A    between atoms: P_32  and  O_30 
ROOT
HETATM    1  C   UNK N   1      36.152  13.992  13.362  0.00  0.00     0.180 C 
HETATM    2  C   UNK N   1      36.705  12.740  12.698  0.00  0.00     0.182 C 
HETATM    3  C   UNK N   1      36.748  11.894  13.939  0.00  0.00     0.198 C 
HETATM    4  C   UNK N   1      35.375  12.258  14.568  0.00  0.00     0.263 C 
HETATM    5  O   UNK N   1      35.032  13.546  14.072  0.00  0.00    -0.353 OA
ENDROOT
BRANCH   1   6
HETATM    6  C   UNK N   1      35.806  15.163  12.467  0.00  0.00     0.215 C 
BRANCH   6   7
HETATM    7  O   UNK N   1      34.616  14.987  11.774  0.00  0.00    -0.294 OA
BRANCH   7   8
HETATM    8  P   UNK N   1      34.946  15.767  10.258  0.00  0.00     0.401 P 
HETATM    9  O   UNK N   1      35.579  17.145  10.589  0.00  0.00    -0.631 OA
BRANCH   8  10
HETATM   10  O   UNK N   1      36.105  14.911   9.282  0.00  0.00    -0.307 OA
HETATM   11  H   UNK N   1      36.787  14.232   9.404  0.00  0.00     0.222 HD
ENDBRANCH   8  10
BRANCH   8  12
HETATM   12  O   UNK N   1      33.491  16.098   9.381  0.00  0.00    -0.195 OA
BRANCH  12  13
HETATM   13  P   UNK N   1      33.932  17.111   8.031  0.00  0.00     0.407 P 
HETATM   14  O   UNK N   1      34.936  16.345   7.128  0.00  0.00    -0.631 OA
BRANCH  13  15
HETATM   15  O   UNK N   1      34.661  18.609   8.514  0.00  0.00    -0.307 OA
HETATM   16  H   UNK N   1      35.343  19.142   8.075  0.00  0.00     0.222 HD
ENDBRANCH  13  15
BRANCH  13  17
HETATM   17  O   UNK N   1      32.545  17.479   7.084  0.00  0.00    -0.254 OA
BRANCH  17  18
HETATM   18  C   UNK N   1      31.309  17.622   7.614  0.00  0.00     0.081 A 
HETATM   19  C   UNK N   1      30.222  17.041   6.957  0.00  0.00     0.037 A 
HETATM   20  C   UNK N   1      28.925  17.220   7.446  0.00  0.00     0.003 A 
HETATM   21  C   UNK N   1      28.712  17.967   8.609  0.00  0.00     0.000 A 
HETATM   22  C   UNK N   1      29.796  18.530   9.286  0.00  0.00     0.003 A 
HETATM   23  C   UNK N   1      31.089  18.362   8.788  0.00  0.00     0.037 A 
ENDBRANCH  17  18
ENDBRANCH  13  17
ENDBRANCH  12  13
ENDBRANCH   8  12
ENDBRANCH   7   8
ENDBRANCH   6   7
ENDBRANCH   1   6
BRANCH   2  24
HETATM   24  O   UNK N   1      37.970  12.932  12.138  0.00  0.00    -0.390 OA
HETATM   25  H   UNK N   1      38.838  12.644  12.459  0.00  0.00     0.210 HD
ENDBRANCH   2  24
BRANCH   3  26
HETATM   26  O   UNK N   1      36.899  10.530  13.677  0.00  0.00    -0.388 OA
HETATM   27  H   UNK N   1      37.462   9.761  13.856  0.00  0.00     0.210 HD
ENDBRANCH   3  26
BRANCH   4  28
HETATM   28  N   UNK N   1      35.275  12.311  16.049  0.00  0.00    -0.280 N 
HETATM   29  C   UNK N   1      35.134  13.567  16.569  0.00  0.00     0.103 A 
HETATM   30  C   UNK N   1      35.152  13.794  17.939  0.00  0.00     0.073 A 
HETATM   31  C   UNK N   1      35.314  12.715  18.791  0.00  0.00     0.144 A 
HETATM   32  N   UNK N   1      35.413  11.462  18.282  0.00  0.00    -0.289 N 
HETATM   33  C   UNK N   1      35.389  11.238  16.931  0.00  0.00     0.330 A 
ATOM     34  HN  UNK N   1      35.507  10.671  18.919  1.00  0.00     0.172 HD
HETATM   35  O   UNK N   1      35.477  10.093  16.533  0.00  0.00    -0.246 OA
BRANCH  31  36
HETATM   36  O   UNK N   1      35.377  12.909  20.117  0.00  0.00    -0.346 OA
HETATM   37  H   UNK N   1      35.577  13.742  20.498  0.00  0.00     0.219 HD
ENDBRANCH  31  36
ENDBRANCH   4  28
TORSDOF 13
ENDMDL
MODEL 6
REMARK VINA RESULT:      -7.6      4.457      6.414
REMARK  13 active torsions:
REMARK  status: ('A' for Active; 'I' for Inactive)
REMARK    1  A    between atoms: C_10  and  C_8 
REMARK    2  A    between atoms: O_27  and  C_8 
REMARK    3  A    between atoms: O_29  and  C_9 
REMARK    4  A    between atoms: O_19  and  C_11 
REMARK    5  A    between atoms: C_12  and  O_20 
REMARK    6  A    between atoms: C_13  and  O_21 
REMARK    7  A    between atoms: C_14  and  N_18 
REMARK    8  A    between atoms: P_31  and  O_23 
REMARK    9  A    between atoms: P_32  and  O_25 
REMARK   10  A    between atoms: P_31  and  O_27 
REMARK   11  A    between atoms: P_32  and  O_29 
REMARK   12  A    between atoms: P_31  and  O_30 
REMARK   13  A    between atoms: P_32  and  O_30 
ROOT
HETATM    1  C   UNK N   1      35.806  14.348   9.052  0.00  0.00     0.180 C 
HETATM    2  C   UNK N   1      35.660  15.395  10.146  0.00  0.00     0.182 C 
HETATM    3  C   UNK N   1      34.861  16.377   9.337  0.00  0.00     0.198 C 
HETATM    4  C   UNK N   1      33.867  15.411   8.636  0.00  0.00     0.263 C 
HETATM    5  O   UNK N   1      34.502  14.139   8.591  0.00  0.00    -0.353 OA
ENDROOT
BRANCH   1   6
HETATM    6  C   UNK N   1      36.476  13.041   9.420  0.00  0.00     0.215 C 
BRANCH   6   7
HETATM    7  O   UNK N   1      35.710  12.257  10.273  0.00  0.00    -0.294 OA
BRANCH   7   8
HETATM    8  P   UNK N   1      36.786  12.001  11.611  0.00  0.00     0.401 P 
HETATM    9  O   UNK N   1      37.598  10.715  11.298  0.00  0.00    -0.631 OA
BRANCH   8  10
HETATM   10  O   UNK N   1      37.946  13.282  11.816  0.00  0.00    -0.307 OA
HETATM   11  H   UNK N   1      38.573  13.779  11.268  0.00  0.00     0.222 HD
ENDBRANCH   8  10
BRANCH   8  12
HETATM   12  O   UNK N   1      35.918  11.684  13.075  0.00  0.00    -0.195 OA
BRANCH  12  13
HETATM   13  P   UNK N   1      36.001  13.136  14.038  0.00  0.00     0.407 P 
HETATM   14  O   UNK N   1      35.763  14.367  13.123  0.00  0.00    -0.631 OA
BRANCH  13  15
HETATM   15  O   UNK N   1      37.528  13.335  14.839  0.00  0.00    -0.307 OA
HETATM   16  H   UNK N   1      37.754  13.847  15.632  0.00  0.00     0.222 HD
ENDBRANCH  13  15
BRANCH  13  17
HETATM   17  O   UNK N   1      34.771  13.126  15.240  0.00  0.00    -0.254 OA
BRANCH  17  18
HETATM   18  C   UNK N   1      34.989  12.719  16.511  0.00  0.00     0.081 A 
HETATM   19  C   UNK N   1      35.173  11.356  16.761  0.00  0.00     0.037 A 
HETATM   20  C   UNK N   1      35.340  10.897  18.070  0.00  0.00     0.003 A 
HETATM   21  C   UNK N   1      35.345  11.803  19.136  0.00  0.00     0.000 A 
HETATM   22  C   UNK N   1      35.189  13.169  18.892  0.00  0.00     0.003 A 
HETATM   23  C   UNK N   1      35.006  13.625  17.585  0.00  0.00     0.037 A 
ENDBRANCH  17  18
ENDBRANCH  13  17
ENDBRANCH  12  13
ENDBRANCH   8  12
ENDBRANCH   7   8
ENDBRANCH   6   7
ENDBRANCH   1   6
BRANCH   2  24
HETATM   24  O   UNK N   1      36.884  15.919  10.566  0.00  0.00    -0.390 OA
HETATM   25  H   UNK N   1      37.220  16.059  11.465  0.00  0.00     0.210 HD
ENDBRANCH   2  24
BRANCH   3  26
HETATM   26  O   UNK N   1      34.237  17.357  10.112  0.00  0.00    -0.388 OA
HETATM   27  H   UNK N   1      33.391  17.609  10.515  0.00  0.00     0.210 HD
ENDBRANCH   3  26
BRANCH   4  28
HETATM   28  N   UNK N   1      33.428  15.738   7.255  0.00  0.00    -0.280 N 
HETATM   29  C   UNK N   1      34.079  16.795   6.682  0.00  0.00     0.103 A 
HETATM   30  C   UNK N   1      33.699  17.302   5.446  0.00  0.00     0.073 A 
HETATM   31  C   UNK N   1      32.635  16.714   4.785  0.00  0.00     0.144 A 
HETATM   32  N   UNK N   1      32.012  15.640   5.329  0.00  0.00    -0.289 N 
HETATM   33  C   UNK N   1      32.392  15.136   6.545  0.00  0.00     0.330 A 
ATOM     34  HN  UNK N   1      31.245  15.198   4.822  1.00  0.00     0.172 HD
HETATM   35  O   UNK N   1      31.799  14.169   6.981  0.00  0.00    -0.246 OA
BRANCH  31  36
HETATM   36  O   UNK N   1      32.219  17.208   3.609  0.00  0.00    -0.346 OA
HETATM   37  H   UNK N   1      31.804  16.679   2.955  0.00  0.00     0.219 HD
ENDBRANCH  31  36
ENDBRANCH   4  28
TORSDOF 13
ENDMDL
MODEL 7
REMARK VINA RESULT:      -7.4      3.022      5.139
REMARK  13 active torsions:
REMARK  status: ('A' for Active; 'I' for Inactive)
REMARK    1  A    between atoms: C_10  and  C_8 
REMARK    2  A    between atoms: O_27  and  C_8 
REMARK    3  A    between atoms: O_29  and  C_9 
REMARK    4  A    between atoms: O_19  and  C_11 
REMARK    5  A    between atoms: C_12  and  O_20 
REMARK    6  A    between atoms: C_13  and  O_21 
REMARK    7  A    between atoms: C_14  and  N_18 
REMARK    8  A    between atoms: P_31  and  O_23 
REMARK    9  A    between atoms: P_32  and  O_25 
REMARK   10  A    between atoms: P_31  and  O_27 
REMARK   11  A    between atoms: P_32  and  O_29 
REMARK   12  A    between atoms: P_31  and  O_30 
REMARK   13  A    between atoms: P_32  and  O_30 
ROOT
HETATM    1  C   UNK N   1      33.896  15.109   8.378  0.00  0.00     0.180 C 
HETATM    2  C   UNK N   1      34.894  15.964   7.613  0.00  0.00     0.182 C 
HETATM    3  C   UNK N   1      33.889  16.915   7.026  0.00  0.00     0.198 C 
HETATM    4  C   UNK N   1      32.990  17.166   8.267  0.00  0.00     0.263 C 
HETATM    5  O   UNK N   1      33.134  16.028   9.108  0.00  0.00    -0.353 OA
ENDROOT
BRANCH   1   6
HETATM    6  C   UNK N   1      34.450  14.020   9.273  0.00  0.00     0.215 C 
BRANCH   6   7
HETATM    7  O   UNK N   1      35.827  13.874   9.166  0.00  0.00    -0.294 OA
BRANCH   7   8
HETATM    8  P   UNK N   1      36.369  14.256  10.771  0.00  0.00     0.401 P 
HETATM    9  O   UNK N   1      37.648  13.415  11.027  0.00  0.00    -0.631 OA
BRANCH   8  10
HETATM   10  O   UNK N   1      36.826  15.924  10.964  0.00  0.00    -0.307 OA
HETATM   11  H   UNK N   1      37.637  16.435  11.115  0.00  0.00     0.222 HD
ENDBRANCH   8  10
BRANCH   8  12
HETATM   12  O   UNK N   1      35.217  13.767  11.967  0.00  0.00    -0.195 OA
BRANCH  12  13
HETATM   13  P   UNK N   1      36.010  13.889  13.515  0.00  0.00     0.407 P 
HETATM   14  O   UNK N   1      36.540  15.336  13.702  0.00  0.00    -0.631 OA
BRANCH  13  15
HETATM   15  O   UNK N   1      37.343  12.791  13.686  0.00  0.00    -0.307 OA
HETATM   16  H   UNK N   1      37.352  11.821  13.722  0.00  0.00     0.222 HD
ENDBRANCH  13  15
BRANCH  13  17
HETATM   17  O   UNK N   1      34.895  13.567  14.784  0.00  0.00    -0.254 OA
BRANCH  17  18
HETATM   18  C   UNK N   1      34.894  12.412  15.486  0.00  0.00     0.081 A 
HETATM   19  C   UNK N   1      34.434  11.247  14.865  0.00  0.00     0.037 A 
HETATM   20  C   UNK N   1      34.364  10.049  15.582  0.00  0.00     0.003 A 
HETATM   21  C   UNK N   1      34.773  10.006  16.918  0.00  0.00     0.000 A 
HETATM   22  C   UNK N   1      35.258  11.160  17.538  0.00  0.00     0.003 A 
HETATM   23  C   UNK N   1      35.314  12.359  16.826  0.00  0.00     0.037 A 
ENDBRANCH  17  18
ENDBRANCH  13  17
ENDBRANCH  12  13
ENDBRANCH   8  12
ENDBRANCH   7   8
ENDBRANCH   6   7
ENDBRANCH   1   6
BRANCH   2  24
HETATM   24  O   UNK N   1      35.589  15.249   6.635  0.00  0.00    -0.390 OA
HETATM   25  H   UNK N   1      35.583  15.354   5.672  0.00  0.00     0.210 HD
ENDBRANCH   2  24
BRANCH   3  26
HETATM   26  O   UNK N   1      34.462  18.077   6.504  0.00  0.00    -0.388 OA
HETATM   27  H   UNK N   1      34.912  18.442   5.727  0.00  0.00     0.210 HD
ENDBRANCH   3  26
BRANCH   4  28
HETATM   28  N   UNK N   1      31.536  17.376   8.048  0.00  0.00    -0.280 N 
HETATM   29  C   UNK N   1      30.966  18.323   8.852  0.00  0.00     0.103 A 
HETATM   30  C   UNK N   1      29.596  18.546   8.855  0.00  0.00     0.073 A 
HETATM   31  C   UNK N   1      28.795  17.788   8.019  0.00  0.00     0.144 A 
HETATM   32  N   UNK N   1      29.359  16.875   7.190  0.00  0.00    -0.289 N 
HETATM   33  C   UNK N   1      30.712  16.660   7.182  0.00  0.00     0.330 A 
ATOM     34  HN  UNK N   1      28.763  16.339   6.559  1.00  0.00     0.172 HD
HETATM   35  O   UNK N   1      31.161  15.831   6.414  0.00  0.00    -0.246 OA
BRANCH  31  36
HETATM   36  O   UNK N   1      27.464  17.953   8.031  0.00  0.00    -0.346 OA
HETATM   37  H   UNK N   1      26.873  17.327   7.660  0.00  0.00     0.219 HD
ENDBRANCH  31  36
ENDBRANCH   4  28
TORSDOF 13
ENDMDL
MODEL 8
REMARK VINA RESULT:      -7.4      4.523      6.763
REMARK  13 active torsions:
REMARK  status: ('A' for Active; 'I' for Inactive)
REMARK    1  A    between atoms: C_10  and  C_8 
REMARK    2  A    between atoms: O_27  and  C_8 
REMARK    3  A    between atoms: O_29  and  C_9 
REMARK    4  A    between atoms: O_19  and  C_11 
REMARK    5  A    between atoms: C_12  and  O_20 
REMARK    6  A    between atoms: C_13  and  O_21 
REMARK    7  A    between atoms: C_14  and  N_18 
REMARK    8  A    between atoms: P_31  and  O_23 
REMARK    9  A    between atoms: P_32  and  O_25 
REMARK   10  A    between atoms: P_31  and  O_27 
REMARK   11  A    between atoms: P_32  and  O_29 
REMARK   12  A    between atoms: P_31  and  O_30 
REMARK   13  A    between atoms: P_32  and  O_30 
ROOT
HETATM    1  C   UNK N   1      34.761  14.877  10.130  0.00  0.00     0.180 C 
HETATM    2  C   UNK N   1      35.418  16.192  10.520  0.00  0.00     0.182 C 
HETATM    3  C   UNK N   1      35.107  16.922   9.244  0.00  0.00     0.198 C 
HETATM    4  C   UNK N   1      33.634  16.482   9.028  0.00  0.00     0.263 C 
HETATM    5  O   UNK N   1      33.479  15.239   9.702  0.00  0.00    -0.353 OA
ENDROOT
BRANCH   1   6
HETATM    6  C   UNK N   1      34.702  13.787  11.180  0.00  0.00     0.215 C 
BRANCH   6   7
HETATM    7  O   UNK N   1      34.928  14.256  12.467  0.00  0.00    -0.294 OA
BRANCH   7   8
HETATM    8  P   UNK N   1      36.257  13.272  12.997  0.00  0.00     0.401 P 
HETATM    9  O   UNK N   1      37.296  13.258  11.844  0.00  0.00    -0.631 OA
BRANCH   8  10
HETATM   10  O   UNK N   1      37.075  13.914  14.393  0.00  0.00    -0.307 OA
HETATM   11  H   UNK N   1      37.412  14.770  14.699  0.00  0.00     0.222 HD
ENDBRANCH   8  10
BRANCH   8  12
HETATM   12  O   UNK N   1      35.776  11.627  13.238  0.00  0.00    -0.195 OA
BRANCH  12  13
HETATM   13  P   UNK N   1      34.870  11.577  14.727  0.00  0.00     0.407 P 
HETATM   14  O   UNK N   1      33.722  10.540  14.590  0.00  0.00    -0.631 OA
BRANCH  13  15
HETATM   15  O   UNK N   1      34.176  13.109  15.154  0.00  0.00    -0.307 OA
HETATM   16  H   UNK N   1      34.453  14.008  14.915  0.00  0.00     0.222 HD
ENDBRANCH  13  15
BRANCH  13  17
HETATM   17  O   UNK N   1      35.881  11.075  16.024  0.00  0.00    -0.254 OA
BRANCH  17  18
HETATM   18  C   UNK N   1      35.621  11.374  17.317  0.00  0.00     0.081 A 
HETATM   19  C   UNK N   1      35.420  12.710  17.673  0.00  0.00     0.037 A 
HETATM   20  C   UNK N   1      35.208  13.058  19.010  0.00  0.00     0.003 A 
HETATM   21  C   UNK N   1      35.176  12.068  19.996  0.00  0.00     0.000 A 
HETATM   22  C   UNK N   1      35.350  10.727  19.645  0.00  0.00     0.003 A 
HETATM   23  C   UNK N   1      35.577  10.382  18.311  0.00  0.00     0.037 A 
ENDBRANCH  17  18
ENDBRANCH  13  17
ENDBRANCH  12  13
ENDBRANCH   8  12
ENDBRANCH   7   8
ENDBRANCH   6   7
ENDBRANCH   1   6
BRANCH   2  24
HETATM   24  O   UNK N   1      36.791  16.070  10.745  0.00  0.00    -0.390 OA
HETATM   25  H   UNK N   1      37.314  16.319  11.522  0.00  0.00     0.210 HD
ENDBRANCH   2  24
BRANCH   3  26
HETATM   26  O   UNK N   1      35.269  18.306   9.342  0.00  0.00    -0.388 OA
HETATM   27  H   UNK N   1      35.663  19.007   9.885  0.00  0.00     0.210 HD
ENDBRANCH   3  26
BRANCH   4  28
HETATM   28  N   UNK N   1      33.156  16.293   7.634  0.00  0.00    -0.280 N 
HETATM   29  C   UNK N   1      32.225  15.305   7.475  0.00  0.00     0.103 A 
HETATM   30  C   UNK N   1      31.774  14.924   6.219  0.00  0.00     0.073 A 
HETATM   31  C   UNK N   1      32.284  15.567   5.105  0.00  0.00     0.144 A 
HETATM   32  N   UNK N   1      33.178  16.575   5.257  0.00  0.00    -0.289 N 
HETATM   33  C   UNK N   1      33.617  16.955   6.498  0.00  0.00     0.330 A 
ATOM     34  HN  UNK N   1      33.529  17.060   4.432  1.00  0.00     0.172 HD
HETATM   35  O   UNK N   1      34.416  17.869   6.573  0.00  0.00    -0.246 OA
BRANCH  31  36
HETATM   36  O   UNK N   1      31.898  15.191   3.876  0.00  0.00    -0.346 OA
HETATM   37  H   UNK N   1      32.450  15.278   3.123  0.00  0.00     0.219 HD
ENDBRANCH  31  36
ENDBRANCH   4  28
TORSDOF 13
ENDMDL
MODEL 9
REMARK VINA RESULT:      -7.1      7.407     11.054
REMARK  13 active torsions:
REMARK  status: ('A' for Active; 'I' for Inactive)
REMARK    1  A    between atoms: C_10  and  C_8 
REMARK    2  A    between atoms: O_27  and  C_8 
REMARK    3  A    between atoms: O_29  and  C_9 
REMARK    4  A    between atoms: O_19  and  C_11 
REMARK    5  A    between atoms: C_12  and  O_20 
REMARK    6  A    between atoms: C_13  and  O_21 
REMARK    7  A    between atoms: C_14  and  N_18 
REMARK    8  A    between atoms: P_31  and  O_23 
REMARK    9  A    between atoms: P_32  and  O_25 
REMARK   10  A    between atoms: P_31  and  O_27 
REMARK   11  A    between atoms: P_32  and  O_29 
REMARK   12  A    between atoms: P_31  and  O_30 
REMARK   13  A    between atoms: P_32  and  O_30 
ROOT
HETATM    1  C   UNK N   1      22.378  19.372   3.956  0.00  0.00     0.180 C 
HETATM    2  C   UNK N   1      22.725  20.249   2.764  0.00  0.00     0.182 C 
HETATM    3  C   UNK N   1      24.157  20.498   3.146  0.00  0.00     0.198 C 
HETATM    4  C   UNK N   1      24.577  19.069   3.584  0.00  0.00     0.263 C 
HETATM    5  O   UNK N   1      23.385  18.401   3.981  0.00  0.00    -0.353 OA
ENDROOT
BRANCH   1   6
HETATM    6  C   UNK N   1      21.003  18.738   3.981  0.00  0.00     0.215 C 
BRANCH   6   7
HETATM    7  O   UNK N   1      20.864  17.699   3.070  0.00  0.00    -0.294 OA
BRANCH   7   8
HETATM    8  P   UNK N   1      20.686  16.316   4.104  0.00  0.00     0.401 P 
HETATM    9  O   UNK N   1      19.638  15.385   3.437  0.00  0.00    -0.631 OA
BRANCH   8  10
HETATM   10  O   UNK N   1      22.147  15.383   4.263  0.00  0.00    -0.307 OA
HETATM   11  H   UNK N   1      22.622  14.699   3.765  0.00  0.00     0.222 HD
ENDBRANCH   8  10
BRANCH   8  12
HETATM   12  O   UNK N   1      20.036  16.753   5.648  0.00  0.00    -0.195 OA
BRANCH  12  13
HETATM   13  P   UNK N   1      21.232  16.321   6.842  0.00  0.00     0.407 P 
HETATM   14  O   UNK N   1      20.841  16.952   8.205  0.00  0.00    -0.631 OA
BRANCH  13  15
HETATM   15  O   UNK N   1      22.830  16.854   6.429  0.00  0.00    -0.307 OA
HETATM   16  H   UNK N   1      23.181  17.753   6.326  0.00  0.00     0.222 HD
ENDBRANCH  13  15
BRANCH  13  17
HETATM   17  O   UNK N   1      21.281  14.613   7.046  0.00  0.00    -0.254 OA
BRANCH  17  18
HETATM   18  C   UNK N   1      21.822  14.019   8.133  0.00  0.00     0.081 A 
HETATM   19  C   UNK N   1      23.182  13.698   8.118  0.00  0.00     0.037 A 
HETATM   20  C   UNK N   1      23.759  13.029   9.201  0.00  0.00     0.003 A 
HETATM   21  C   UNK N   1      22.982  12.695  10.315  0.00  0.00     0.000 A 
HETATM   22  C   UNK N   1      21.627  13.036  10.348  0.00  0.00     0.003 A 
HETATM   23  C   UNK N   1      21.049  13.691   9.260  0.00  0.00     0.037 A 
ENDBRANCH  17  18
ENDBRANCH  13  17
ENDBRANCH  12  13
ENDBRANCH   8  12
ENDBRANCH   7   8
ENDBRANCH   6   7
ENDBRANCH   1   6
BRANCH   2  24
HETATM   24  O   UNK N   1      21.973  21.424   2.714  0.00  0.00    -0.390 OA
HETATM   25  H   UNK N   1      21.019  21.542   2.586  0.00  0.00     0.210 HD
ENDBRANCH   2  24
BRANCH   3  26
HETATM   26  O   UNK N   1      24.929  21.013   2.102  0.00  0.00    -0.388 OA
HETATM   27  H   UNK N   1      25.672  21.604   1.902  0.00  0.00     0.210 HD
ENDBRANCH   3  26
BRANCH   4  28
HETATM   28  N   UNK N   1      25.553  18.935   4.696  0.00  0.00    -0.280 N 
HETATM   29  C   UNK N   1      25.928  20.116   5.274  0.00  0.00     0.103 A 
HETATM   30  C   UNK N   1      26.923  20.170   6.241  0.00  0.00     0.073 A 
HETATM   31  C   UNK N   1      27.544  18.994   6.623  0.00  0.00     0.144 A 
HETATM   32  N   UNK N   1      27.149  17.815   6.083  0.00  0.00    -0.289 N 
HETATM   33  C   UNK N   1      26.161  17.761   5.135  0.00  0.00     0.330 A 
ATOM     34  HN  UNK N   1      27.595  16.951   6.390  1.00  0.00     0.172 HD
HETATM   35  O   UNK N   1      25.846  16.675   4.689  0.00  0.00    -0.246 OA
BRANCH  31  36
HETATM   36  O   UNK N   1      28.538  19.020   7.524  0.00  0.00    -0.346 OA
HETATM   37  H   UNK N   1      29.046  18.262   7.740  0.00  0.00     0.219 HD
ENDBRANCH  31  36
ENDBRANCH   4  28
TORSDOF 13
ENDMDL
