MODEL 1
REMARK VINA RESULT:      -6.5      0.000      0.000
REMARK  14 active torsions:
REMARK  status: ('A' for Active; 'I' for Inactive)
REMARK    1  A    between atoms: C_2  and  C_1 
REMARK    2  A    between atoms: C_3  and  C_1 
REMARK    3  A    between atoms: C_4  and  C_2 
REMARK    4  A    between atoms: C_6  and  C_3 
REMARK    5  A    between atoms: C_11  and  C_4 
REMARK    6  A    between atoms: C_5  and  C_7 
REMARK    7  A    between atoms: N_19  and  C_6 
REMARK    8  A    between atoms: N_20  and  C_7 
REMARK    9  A    between atoms: C_12  and  C_8 
REMARK   10  A    between atoms: S_32  and  C_8 
REMARK   11  A    between atoms: S_32  and  C_11 
REMARK   12  A    between atoms: C_14  and  O_29 
REMARK   13  A    between atoms: N_21  and  C_16 
REMARK   14  A    between atoms: C_18  and  N_28 
ROOT
HETATM    1  C   UNK N   1      36.518  13.442  11.953  0.00  0.00     0.165 C 
HETATM    2  C   UNK N   1      35.977  14.620  12.760  0.00  0.00     0.180 C 
HETATM    3  C   UNK N   1      35.664  15.578  11.637  0.00  0.00     0.198 C 
HETATM    4  C   UNK N   1      34.995  14.578  10.696  0.00  0.00     0.262 C 
HETATM    5  O   UNK N   1      36.844  16.075  11.068  0.00  0.00    -0.388 OA
HETATM    6  O   UNK N   1      35.732  13.369  10.781  0.00  0.00    -0.355 OA
HETATM    7  H   UNK N   1      37.651  16.498  10.735  0.00  0.00     0.210 HD
ENDROOT
BRANCH   2   8
HETATM    8  O   UNK N   1      36.899  15.134  13.676  0.00  0.00    -0.390 OA
HETATM    9  H   UNK N   1      37.725  14.740  13.996  0.00  0.00     0.210 HD
ENDBRANCH   2   8
BRANCH   4  10
HETATM   10  N   UNK N   1      34.921  15.010   9.297  0.00  0.00    -0.297 N 
HETATM   11  C   UNK N   1      35.636  14.468   8.275  0.00  0.00     0.188 A 
HETATM   12  N   UNK N   1      35.317  15.038   7.082  0.00  0.00    -0.346 N 
HETATM   13  C   UNK N   1      34.388  15.956   7.394  0.00  0.00     0.122 A 
ATOM     14  HN  UNK N   1      35.697  14.819   6.161  1.00  0.00     0.167 HD
HETATM   15  C   UNK N   1      33.710  16.837   6.571  0.00  0.00     0.131 A 
HETATM   16  C   UNK N   1      34.147  15.942   8.721  0.00  0.00     0.142 A 
HETATM   17  N   UNK N   1      32.812  17.689   7.150  0.00  0.00    -0.337 N 
HETATM   18  C   UNK N   1      32.587  17.663   8.507  0.00  0.00     0.183 A 
ATOM     19  HN  UNK N   1      32.303  18.353   6.568  1.00  0.00     0.168 HD
HETATM   20  N   UNK N   1      33.257  16.774   9.309  0.00  0.00    -0.336 N 
ATOM     21  HN  UNK N   1      33.089  16.743  10.314  1.00  0.00     0.168 HD
BRANCH  15  22
HETATM   22  N   UNK N   1      33.935  16.859   5.179  0.00  0.00    -0.383 N 
HETATM   23  H   UNK N   1      33.242  16.676   4.505  0.00  0.00     0.157 HD
HETATM   24  H   UNK N   1      34.842  17.070   4.863  0.00  0.00     0.157 HD
ENDBRANCH  15  22
ENDBRANCH   4  10
BRANCH   1  25
HETATM   25  C   UNK N   1      36.425  12.079  12.638  0.00  0.00     0.114 C 
BRANCH  25  26
HETATM   26  S   UNK N   1      34.831  11.216  12.512  0.00  0.00    -0.132 SA
BRANCH  26  27
HETATM   27  C   UNK N   1      34.732  10.727  14.244  0.00  0.00    -0.024 C 
HETATM   28  C   UNK N   1      35.151   9.528  14.674  0.00  0.00     0.006 C 
BRANCH  27  29
HETATM   29  C   UNK N   1      34.155  11.693  15.230  0.00  0.00     0.045 C 
BRANCH  29  30
HETATM   30  C   UNK N   1      35.102  11.985  16.396  0.00  0.00     0.005 C 
BRANCH  30  31
HETATM   31  C   UNK N   1      35.419  13.467  16.588  0.00  0.00     0.002 C 
BRANCH  31  32
HETATM   32  C   UNK N   1      35.257  13.895  18.045  0.00  0.00     0.019 C 
BRANCH  32  33
HETATM   33  C   UNK N   1      35.230  12.707  18.991  0.00  0.00     0.111 C 
BRANCH  33  34
HETATM   34  N   UNK N   1      34.882  13.144  20.332  0.00  0.00    -0.430 N 
HETATM   35  H   UNK N   1      34.262  13.878  20.675  0.00  0.00     0.149 HD
HETATM   36  H   UNK N   1      35.347  12.617  21.072  0.00  0.00     0.149 HD
ENDBRANCH  33  34
ENDBRANCH  32  33
ENDBRANCH  31  32
ENDBRANCH  30  31
ENDBRANCH  29  30
ENDBRANCH  27  29
BRANCH  28  37
HETATM   37  C   UNK N   1      35.720   8.495  13.755  0.00  0.00     0.139 C 
BRANCH  37  38
HETATM   38  N   UNK N   1      37.162   8.446  13.914  0.00  0.00    -0.427 N 
HETATM   39  H   UNK N   1      37.779   9.189  13.583  0.00  0.00     0.150 HD
HETATM   40  H   UNK N   1      37.577   7.636  14.375  0.00  0.00     0.150 HD
ENDBRANCH  37  38
ENDBRANCH  28  37
ENDBRANCH  26  27
ENDBRANCH  25  26
ENDBRANCH   1  25
TORSDOF 14
ENDMDL
MODEL 2
REMARK VINA RESULT:      -6.5      6.309     10.064
REMARK  14 active torsions:
REMARK  status: ('A' for Active; 'I' for Inactive)
REMARK    1  A    between atoms: C_2  and  C_1 
REMARK    2  A    between atoms: C_3  and  C_1 
REMARK    3  A    between atoms: C_4  and  C_2 
REMARK    4  A    between atoms: C_6  and  C_3 
REMARK    5  A    between atoms: C_11  and  C_4 
REMARK    6  A    between atoms: C_5  and  C_7 
REMARK    7  A    between atoms: N_19  and  C_6 
REMARK    8  A    between atoms: N_20  and  C_7 
REMARK    9  A    between atoms: C_12  and  C_8 
REMARK   10  A    between atoms: S_32  and  C_8 
REMARK   11  A    between atoms: S_32  and  C_11 
REMARK   12  A    between atoms: C_14  and  O_29 
REMARK   13  A    between atoms: N_21  and  C_16 
REMARK   14  A    between atoms: C_18  and  N_28 
ROOT
HETATM    1  C   UNK N   1      30.195  18.169   8.591  0.00  0.00     0.165 C 
HETATM    2  C   UNK N   1      29.472  17.303   9.621  0.00  0.00     0.180 C 
HETATM    3  C   UNK N   1      28.086  17.298   9.025  0.00  0.00     0.198 C 
HETATM    4  C   UNK N   1      28.490  17.053   7.572  0.00  0.00     0.262 C 
HETATM    5  O   UNK N   1      27.485  18.556   9.162  0.00  0.00    -0.388 OA
HETATM    6  O   UNK N   1      29.662  17.815   7.332  0.00  0.00    -0.355 OA
HETATM    7  H   UNK N   1      27.025  19.391   9.341  0.00  0.00     0.210 HD
ENDROOT
BRANCH   2   8
HETATM    8  O   UNK N   1      29.510  17.834  10.914  0.00  0.00    -0.390 OA
HETATM    9  H   UNK N   1      28.949  17.624  11.676  0.00  0.00     0.210 HD
ENDBRANCH   2   8
BRANCH   4  10
HETATM   10  N   UNK N   1      27.465  17.403   6.585  0.00  0.00    -0.297 N 
HETATM   11  C   UNK N   1      26.543  16.541   6.079  0.00  0.00     0.188 A 
HETATM   12  N   UNK N   1      25.690  17.164   5.222  0.00  0.00    -0.346 N 
HETATM   13  C   UNK N   1      26.114  18.438   5.205  0.00  0.00     0.122 A 
ATOM     14  HN  UNK N   1      24.907  16.757   4.710  1.00  0.00     0.167 HD
HETATM   15  C   UNK N   1      25.618  19.521   4.502  0.00  0.00     0.131 A 
HETATM   16  C   UNK N   1      27.178  18.586   6.021  0.00  0.00     0.142 A 
HETATM   17  N   UNK N   1      26.249  20.723   4.653  0.00  0.00    -0.337 N 
HETATM   18  C   UNK N   1      27.338  20.851   5.485  0.00  0.00     0.183 A 
ATOM     19  HN  UNK N   1      25.909  21.537   4.142  1.00  0.00     0.168 HD
HETATM   20  N   UNK N   1      27.810  19.771   6.187  0.00  0.00    -0.336 N 
ATOM     21  HN  UNK N   1      28.611  19.858   6.812  1.00  0.00     0.168 HD
BRANCH  15  22
HETATM   22  N   UNK N   1      24.498  19.393   3.655  0.00  0.00    -0.383 N 
HETATM   23  H   UNK N   1      24.122  20.130   3.122  0.00  0.00     0.157 HD
HETATM   24  H   UNK N   1      24.066  18.511   3.594  0.00  0.00     0.157 HD
ENDBRANCH  15  22
ENDBRANCH   4  10
BRANCH   1  25
HETATM   25  C   UNK N   1      31.708  17.965   8.508  0.00  0.00     0.114 C 
BRANCH  25  26
HETATM   26  S   UNK N   1      32.301  16.251   8.596  0.00  0.00    -0.132 SA
BRANCH  26  27
HETATM   27  C   UNK N   1      33.592  16.423   7.349  0.00  0.00    -0.024 C 
HETATM   28  C   UNK N   1      34.657  15.611   7.305  0.00  0.00     0.006 C 
BRANCH  27  29
HETATM   29  C   UNK N   1      33.467  17.515   6.334  0.00  0.00     0.045 C 
BRANCH  29  30
HETATM   30  C   UNK N   1      33.602  17.007   4.897  0.00  0.00     0.005 C 
BRANCH  30  31
HETATM   31  C   UNK N   1      32.645  17.668   3.907  0.00  0.00     0.002 C 
BRANCH  31  32
HETATM   32  C   UNK N   1      31.901  16.634   3.065  0.00  0.00     0.019 C 
BRANCH  32  33
HETATM   33  C   UNK N   1      30.427  16.557   3.424  0.00  0.00     0.111 C 
BRANCH  33  34
HETATM   34  N   UNK N   1      30.052  17.693   4.247  0.00  0.00    -0.430 N 
HETATM   35  H   UNK N   1      30.600  18.441   4.672  0.00  0.00     0.149 HD
HETATM   36  H   UNK N   1      29.051  17.753   4.438  0.00  0.00     0.149 HD
ENDBRANCH  33  34
ENDBRANCH  32  33
ENDBRANCH  31  32
ENDBRANCH  30  31
ENDBRANCH  29  30
ENDBRANCH  27  29
BRANCH  28  37
HETATM   37  C   UNK N   1      34.872  14.508   8.293  0.00  0.00     0.139 C 
BRANCH  37  38
HETATM   38  N   UNK N   1      35.775  14.959   9.335  0.00  0.00    -0.427 N 
HETATM   39  H   UNK N   1      35.485  15.069  10.307  0.00  0.00     0.150 HD
HETATM   40  H   UNK N   1      36.741  15.176   9.086  0.00  0.00     0.150 HD
ENDBRANCH  37  38
ENDBRANCH  28  37
ENDBRANCH  26  27
ENDBRANCH  25  26
ENDBRANCH   1  25
TORSDOF 14
ENDMDL
MODEL 3
REMARK VINA RESULT:      -6.5      2.989      8.451
REMARK  14 active torsions:
REMARK  status: ('A' for Active; 'I' for Inactive)
REMARK    1  A    between atoms: C_2  and  C_1 
REMARK    2  A    between atoms: C_3  and  C_1 
REMARK    3  A    between atoms: C_4  and  C_2 
REMARK    4  A    between atoms: C_6  and  C_3 
REMARK    5  A    between atoms: C_11  and  C_4 
REMARK    6  A    between atoms: C_5  and  C_7 
REMARK    7  A    between atoms: N_19  and  C_6 
REMARK    8  A    between atoms: N_20  and  C_7 
REMARK    9  A    between atoms: C_12  and  C_8 
REMARK   10  A    between atoms: S_32  and  C_8 
REMARK   11  A    between atoms: S_32  and  C_11 
REMARK   12  A    between atoms: C_14  and  O_29 
REMARK   13  A    between atoms: N_21  and  C_16 
REMARK   14  A    between atoms: C_18  and  N_28 
ROOT
HETATM    1  C   UNK N   1      35.671  15.235  11.406  0.00  0.00     0.165 C 
HETATM    2  C   UNK N   1      36.612  14.432  10.510  0.00  0.00     0.180 C 
HETATM    3  C   UNK N   1      36.717  13.163  11.320  0.00  0.00     0.198 C 
HETATM    4  C   UNK N   1      35.235  13.013  11.657  0.00  0.00     0.262 C 
HETATM    5  O   UNK N   1      37.466  13.381  12.483  0.00  0.00    -0.388 OA
HETATM    6  O   UNK N   1      34.735  14.313  11.925  0.00  0.00    -0.355 OA
HETATM    7  H   UNK N   1      38.065  13.496  13.238  0.00  0.00     0.210 HD
ENDROOT
BRANCH   2   8
HETATM    8  O   UNK N   1      37.847  15.055  10.305  0.00  0.00    -0.390 OA
HETATM    9  H   UNK N   1      38.220  15.415   9.487  0.00  0.00     0.210 HD
ENDBRANCH   2   8
BRANCH   4  10
HETATM   10  N   UNK N   1      34.952  12.134  12.795  0.00  0.00    -0.297 N 
HETATM   11  C   UNK N   1      34.469  10.866  12.699  0.00  0.00     0.188 A 
HETATM   12  N   UNK N   1      34.358  10.278  13.921  0.00  0.00    -0.346 N 
HETATM   13  C   UNK N   1      34.780  11.220  14.779  0.00  0.00     0.122 A 
ATOM     14  HN  UNK N   1      34.030   9.336  14.135  1.00  0.00     0.167 HD
HETATM   15  C   UNK N   1      34.878  11.174  16.158  0.00  0.00     0.131 A 
HETATM   16  C   UNK N   1      35.137  12.334  14.108  0.00  0.00     0.142 A 
HETATM   17  N   UNK N   1      35.331  12.290  16.803  0.00  0.00    -0.337 N 
HETATM   18  C   UNK N   1      35.683  13.419  16.100  0.00  0.00     0.183 A 
ATOM     19  HN  UNK N   1      35.407  12.286  17.820  1.00  0.00     0.168 HD
HETATM   20  N   UNK N   1      35.593  13.445  14.732  0.00  0.00    -0.336 N 
ATOM     21  HN  UNK N   1      35.861  14.275  14.202  1.00  0.00     0.168 HD
BRANCH  15  22
HETATM   22  N   UNK N   1      34.525  10.015  16.878  0.00  0.00    -0.383 N 
HETATM   23  H   UNK N   1      35.173   9.362  17.226  0.00  0.00     0.157 HD
HETATM   24  H   UNK N   1      33.568   9.850  17.043  0.00  0.00     0.157 HD
ENDBRANCH  15  22
ENDBRANCH   4  10
BRANCH   1  25
HETATM   25  C   UNK N   1      34.873  16.333  10.704  0.00  0.00     0.114 C 
BRANCH  25  26
HETATM   26  S   UNK N   1      34.850  16.283   8.889  0.00  0.00    -0.132 SA
BRANCH  26  27
HETATM   27  C   UNK N   1      33.069  16.062   8.718  0.00  0.00    -0.024 C 
HETATM   28  C   UNK N   1      32.500  14.849   8.663  0.00  0.00     0.006 C 
BRANCH  27  29
HETATM   29  C   UNK N   1      32.201  17.277   8.629  0.00  0.00     0.045 C 
BRANCH  29  30
HETATM   30  C   UNK N   1      30.727  16.937   8.397  0.00  0.00     0.005 C 
BRANCH  30  31
HETATM   31  C   UNK N   1      30.217  17.289   7.001  0.00  0.00     0.002 C 
BRANCH  31  32
HETATM   32  C   UNK N   1      28.827  17.920   7.051  0.00  0.00     0.019 C 
BRANCH  32  33
HETATM   33  C   UNK N   1      28.018  17.431   8.240  0.00  0.00     0.111 C 
BRANCH  33  34
HETATM   34  N   UNK N   1      27.582  18.559   9.047  0.00  0.00    -0.430 N 
HETATM   35  H   UNK N   1      27.283  18.630  10.019  0.00  0.00     0.149 HD
HETATM   36  H   UNK N   1      27.573  19.447   8.545  0.00  0.00     0.149 HD
ENDBRANCH  33  34
ENDBRANCH  32  33
ENDBRANCH  31  32
ENDBRANCH  30  31
ENDBRANCH  29  30
ENDBRANCH  27  29
BRANCH  28  37
HETATM   37  C   UNK N   1      33.294  13.583   8.723  0.00  0.00     0.139 C 
BRANCH  37  38
HETATM   38  N   UNK N   1      32.473  12.522   9.279  0.00  0.00    -0.427 N 
HETATM   39  H   UNK N   1      32.867  11.661   9.659  0.00  0.00     0.150 HD
HETATM   40  H   UNK N   1      31.460  12.643   9.291  0.00  0.00     0.150 HD
ENDBRANCH  37  38
ENDBRANCH  28  37
ENDBRANCH  26  27
ENDBRANCH  25  26
ENDBRANCH   1  25
TORSDOF 14
ENDMDL
MODEL 4
REMARK VINA RESULT:      -6.4      2.588      8.811
REMARK  14 active torsions:
REMARK  status: ('A' for Active; 'I' for Inactive)
REMARK    1  A    between atoms: C_2  and  C_1 
REMARK    2  A    between atoms: C_3  and  C_1 
REMARK    3  A    between atoms: C_4  and  C_2 
REMARK    4  A    between atoms: C_6  and  C_3 
REMARK    5  A    between atoms: C_11  and  C_4 
REMARK    6  A    between atoms: C_5  and  C_7 
REMARK    7  A    between atoms: N_19  and  C_6 
REMARK    8  A    between atoms: N_20  and  C_7 
REMARK    9  A    between atoms: C_12  and  C_8 
REMARK   10  A    between atoms: S_32  and  C_8 
REMARK   11  A    between atoms: S_32  and  C_11 
REMARK   12  A    between atoms: C_14  and  O_29 
REMARK   13  A    between atoms: N_21  and  C_16 
REMARK   14  A    between atoms: C_18  and  N_28 
ROOT
HETATM    1  C   UNK N   1      35.628  13.635  12.986  0.00  0.00     0.165 C 
HETATM    2  C   UNK N   1      36.662  12.614  12.513  0.00  0.00     0.180 C 
HETATM    3  C   UNK N   1      36.941  11.909  13.817  0.00  0.00     0.198 C 
HETATM    4  C   UNK N   1      35.494  11.771  14.288  0.00  0.00     0.262 C 
HETATM    5  O   UNK N   1      37.662  12.741  14.683  0.00  0.00    -0.388 OA
HETATM    6  O   UNK N   1      34.827  12.974  13.943  0.00  0.00    -0.355 OA
HETATM    7  H   UNK N   1      38.245  13.271  15.250  0.00  0.00     0.210 HD
ENDROOT
BRANCH   2   8
HETATM    8  O   UNK N   1      37.801  13.199  11.952  0.00  0.00    -0.390 OA
HETATM    9  H   UNK N   1      38.725  12.911  12.008  0.00  0.00     0.210 HD
ENDBRANCH   2   8
BRANCH   4  10
HETATM   10  N   UNK N   1      35.340  11.518  15.724  0.00  0.00    -0.297 N 
HETATM   11  C   UNK N   1      35.183  10.289  16.286  0.00  0.00     0.188 A 
HETATM   12  N   UNK N   1      35.118  10.363  17.643  0.00  0.00    -0.346 N 
HETATM   13  C   UNK N   1      35.232  11.675  17.907  0.00  0.00     0.122 A 
ATOM     14  HN  UNK N   1      35.008   9.597  18.307  1.00  0.00     0.167 HD
HETATM   15  C   UNK N   1      35.227  12.332  19.124  0.00  0.00     0.131 A 
HETATM   16  C   UNK N   1      35.365  12.370  16.758  0.00  0.00     0.142 A 
HETATM   17  N   UNK N   1      35.346  13.692  19.115  0.00  0.00    -0.337 N 
HETATM   18  C   UNK N   1      35.474  14.384  17.933  0.00  0.00     0.183 A 
ATOM     19  HN  UNK N   1      35.340  14.202  19.998  1.00  0.00     0.168 HD
HETATM   20  N   UNK N   1      35.490  13.718  16.734  0.00  0.00    -0.336 N 
ATOM     21  HN  UNK N   1      35.594  14.222  15.853  1.00  0.00     0.168 HD
BRANCH  15  22
HETATM   22  N   UNK N   1      35.104  11.623  20.337  0.00  0.00    -0.383 N 
HETATM   23  H   UNK N   1      35.288  12.009  21.223  0.00  0.00     0.157 HD
HETATM   24  H   UNK N   1      34.815  10.683  20.293  0.00  0.00     0.157 HD
ENDBRANCH  15  22
ENDBRANCH   4  10
BRANCH   1  25
HETATM   25  C   UNK N   1      34.686  14.164  11.905  0.00  0.00     0.114 C 
BRANCH  25  26
HETATM   26  S   UNK N   1      35.195  15.691  11.063  0.00  0.00    -0.132 SA
BRANCH  26  27
HETATM   27  C   UNK N   1      34.505  15.269   9.451  0.00  0.00    -0.024 C 
HETATM   28  C   UNK N   1      35.212  14.614   8.519  0.00  0.00     0.006 C 
BRANCH  27  29
HETATM   29  C   UNK N   1      33.096  15.671   9.147  0.00  0.00     0.045 C 
BRANCH  29  30
HETATM   30  C   UNK N   1      32.987  17.112   8.645  0.00  0.00     0.005 C 
BRANCH  30  31
HETATM   31  C   UNK N   1      31.657  17.440   7.970  0.00  0.00     0.002 C 
BRANCH  31  32
HETATM   32  C   UNK N   1      30.765  18.298   8.864  0.00  0.00     0.019 C 
BRANCH  32  33
HETATM   33  C   UNK N   1      29.484  17.581   9.254  0.00  0.00     0.111 C 
BRANCH  33  34
HETATM   34  N   UNK N   1      29.662  16.891  10.520  0.00  0.00    -0.430 N 
HETATM   35  H   UNK N   1      30.193  16.059  10.778  0.00  0.00     0.149 HD
HETATM   36  H   UNK N   1      29.159  17.319  11.299  0.00  0.00     0.149 HD
ENDBRANCH  33  34
ENDBRANCH  32  33
ENDBRANCH  31  32
ENDBRANCH  30  31
ENDBRANCH  29  30
ENDBRANCH  27  29
BRANCH  28  37
HETATM   37  C   UNK N   1      36.632  14.194   8.731  0.00  0.00     0.139 C 
BRANCH  37  38
HETATM   38  N   UNK N   1      36.685  12.759   8.949  0.00  0.00    -0.427 N 
HETATM   39  H   UNK N   1      36.754  12.345   9.879  0.00  0.00     0.150 HD
HETATM   40  H   UNK N   1      36.652  12.140   8.140  0.00  0.00     0.150 HD
ENDBRANCH  37  38
ENDBRANCH  28  37
ENDBRANCH  26  27
ENDBRANCH  25  26
ENDBRANCH   1  25
TORSDOF 14
ENDMDL
MODEL 5
REMARK VINA RESULT:      -6.4      6.187     11.194
REMARK  14 active torsions:
REMARK  status: ('A' for Active; 'I' for Inactive)
REMARK    1  A    between atoms: C_2  and  C_1 
REMARK    2  A    between atoms: C_3  and  C_1 
REMARK    3  A    between atoms: C_4  and  C_2 
REMARK    4  A    between atoms: C_6  and  C_3 
REMARK    5  A    between atoms: C_11  and  C_4 
REMARK    6  A    between atoms: C_5  and  C_7 
REMARK    7  A    between atoms: N_19  and  C_6 
REMARK    8  A    between atoms: N_20  and  C_7 
REMARK    9  A    between atoms: C_12  and  C_8 
REMARK   10  A    between atoms: S_32  and  C_8 
REMARK   11  A    between atoms: S_32  and  C_11 
REMARK   12  A    between atoms: C_14  and  O_29 
REMARK   13  A    between atoms: N_21  and  C_16 
REMARK   14  A    between atoms: C_18  and  N_28 
ROOT
HETATM    1  C   UNK N   1      30.712  17.306   4.439  0.00  0.00     0.165 C 
HETATM    2  C   UNK N   1      31.805  16.599   3.639  0.00  0.00     0.180 C 
HETATM    3  C   UNK N   1      32.938  16.672   4.634  0.00  0.00     0.198 C 
HETATM    4  C   UNK N   1      32.145  16.270   5.876  0.00  0.00     0.262 C 
HETATM    5  O   UNK N   1      33.406  17.986   4.753  0.00  0.00    -0.388 OA
HETATM    6  O   UNK N   1      30.877  16.898   5.782  0.00  0.00    -0.355 OA
HETATM    7  H   UNK N   1      33.801  18.872   4.769  0.00  0.00     0.210 HD
ENDROOT
BRANCH   2   8
HETATM    8  O   UNK N   1      32.099  17.230   2.427  0.00  0.00    -0.390 OA
HETATM    9  H   UNK N   1      32.959  17.514   2.080  0.00  0.00     0.210 HD
ENDBRANCH   2   8
BRANCH   4  10
HETATM   10  N   UNK N   1      32.778  16.629   7.148  0.00  0.00    -0.297 N 
HETATM   11  C   UNK N   1      32.383  17.651   7.954  0.00  0.00     0.188 A 
HETATM   12  N   UNK N   1      33.126  17.708   9.092  0.00  0.00    -0.346 N 
HETATM   13  C   UNK N   1      33.999  16.697   8.966  0.00  0.00     0.122 A 
ATOM     14  HN  UNK N   1      33.039  18.369   9.864  1.00  0.00     0.167 HD
HETATM   15  C   UNK N   1      35.000  16.285   9.827  0.00  0.00     0.131 A 
HETATM   16  C   UNK N   1      33.794  16.047   7.802  0.00  0.00     0.142 A 
HETATM   17  N   UNK N   1      35.769  15.221   9.451  0.00  0.00    -0.337 N 
HETATM   18  C   UNK N   1      35.548  14.576   8.255  0.00  0.00     0.183 A 
ATOM     19  HN  UNK N   1      36.518  14.901  10.064  1.00  0.00     0.168 HD
HETATM   20  N   UNK N   1      34.542  14.987   7.417  0.00  0.00    -0.336 N 
ATOM     21  HN  UNK N   1      34.366  14.510   6.533  1.00  0.00     0.168 HD
BRANCH  15  22
HETATM   22  N   UNK N   1      35.223  16.941  11.056  0.00  0.00    -0.383 N 
HETATM   23  H   UNK N   1      36.111  17.073  11.458  0.00  0.00     0.157 HD
HETATM   24  H   UNK N   1      34.440  17.287  11.541  0.00  0.00     0.157 HD
ENDBRANCH  15  22
ENDBRANCH   4  10
BRANCH   1  25
HETATM   25  C   UNK N   1      29.278  16.958   4.041  0.00  0.00     0.114 C 
BRANCH  25  26
HETATM   26  S   UNK N   1      28.041  16.971   5.370  0.00  0.00    -0.132 SA
BRANCH  26  27
HETATM   27  C   UNK N   1      28.090  18.748   5.671  0.00  0.00    -0.024 C 
HETATM   28  C   UNK N   1      28.348  19.263   6.882  0.00  0.00     0.006 C 
BRANCH  27  29
HETATM   29  C   UNK N   1      27.827  19.676   4.527  0.00  0.00     0.045 C 
BRANCH  29  30
HETATM   30  C   UNK N   1      26.709  20.679   4.822  0.00  0.00     0.005 C 
BRANCH  30  31
HETATM   31  C   UNK N   1      25.301  20.103   4.683  0.00  0.00     0.002 C 
BRANCH  31  32
HETATM   32  C   UNK N   1      25.198  19.142   3.501  0.00  0.00     0.019 C 
BRANCH  32  33
HETATM   33  C   UNK N   1      24.589  17.808   3.898  0.00  0.00     0.111 C 
BRANCH  33  34
HETATM   34  N   UNK N   1      24.368  17.767   5.334  0.00  0.00    -0.430 N 
HETATM   35  H   UNK N   1      23.518  17.712   5.895  0.00  0.00     0.149 HD
HETATM   36  H   UNK N   1      25.226  17.799   5.885  0.00  0.00     0.149 HD
ENDBRANCH  33  34
ENDBRANCH  32  33
ENDBRANCH  31  32
ENDBRANCH  30  31
ENDBRANCH  29  30
ENDBRANCH  27  29
BRANCH  28  37
HETATM   37  C   UNK N   1      28.601  18.409   8.083  0.00  0.00     0.139 C 
BRANCH  37  38
HETATM   38  N   UNK N   1      27.500  18.550   9.019  0.00  0.00    -0.427 N 
HETATM   39  H   UNK N   1      26.533  18.339   8.768  0.00  0.00     0.150 HD
HETATM   40  H   UNK N   1      27.700  18.872   9.965  0.00  0.00     0.150 HD
ENDBRANCH  37  38
ENDBRANCH  28  37
ENDBRANCH  26  27
ENDBRANCH  25  26
ENDBRANCH   1  25
TORSDOF 14
ENDMDL
MODEL 6
REMARK VINA RESULT:      -6.4      3.421      9.259
REMARK  14 active torsions:
REMARK  status: ('A' for Active; 'I' for Inactive)
REMARK    1  A    between atoms: C_2  and  C_1 
REMARK    2  A    between atoms: C_3  and  C_1 
REMARK    3  A    between atoms: C_4  and  C_2 
REMARK    4  A    between atoms: C_6  and  C_3 
REMARK    5  A    between atoms: C_11  and  C_4 
REMARK    6  A    between atoms: C_5  and  C_7 
REMARK    7  A    between atoms: N_19  and  C_6 
REMARK    8  A    between atoms: N_20  and  C_7 
REMARK    9  A    between atoms: C_12  and  C_8 
REMARK   10  A    between atoms: S_32  and  C_8 
REMARK   11  A    between atoms: S_32  and  C_11 
REMARK   12  A    between atoms: C_14  and  O_29 
REMARK   13  A    between atoms: N_21  and  C_16 
REMARK   14  A    between atoms: C_18  and  N_28 
ROOT
HETATM    1  C   UNK N   1      33.317  15.174   9.251  0.00  0.00     0.165 C 
HETATM    2  C   UNK N   1      34.103  16.459   8.994  0.00  0.00     0.180 C 
HETATM    3  C   UNK N   1      35.306  16.204   9.867  0.00  0.00     0.198 C 
HETATM    4  C   UNK N   1      35.546  14.750   9.464  0.00  0.00     0.262 C 
HETATM    5  O   UNK N   1      34.960  16.287  11.222  0.00  0.00    -0.388 OA
HETATM    6  O   UNK N   1      34.272  14.137   9.339  0.00  0.00    -0.355 OA
HETATM    7  H   UNK N   1      34.752  16.440  12.157  0.00  0.00     0.210 HD
ENDROOT
BRANCH   2   8
HETATM    8  O   UNK N   1      33.403  17.616   9.351  0.00  0.00    -0.390 OA
HETATM    9  H   UNK N   1      33.341  18.461   8.880  0.00  0.00     0.210 HD
ENDBRANCH   2   8
BRANCH   4  10
HETATM   10  N   UNK N   1      36.370  13.983  10.402  0.00  0.00    -0.297 N 
HETATM   11  C   UNK N   1      37.718  13.824  10.306  0.00  0.00     0.188 A 
HETATM   12  N   UNK N   1      38.214  13.106  11.349  0.00  0.00    -0.346 N 
HETATM   13  C   UNK N   1      37.134  12.817  12.093  0.00  0.00     0.122 A 
ATOM     14  HN  UNK N   1      39.184  12.847  11.526  1.00  0.00     0.167 HD
HETATM   15  C   UNK N   1      37.044  12.101  13.273  0.00  0.00     0.131 A 
HETATM   16  C   UNK N   1      36.027  13.341  11.528  0.00  0.00     0.142 A 
HETATM   17  N   UNK N   1      35.806  11.937  13.826  0.00  0.00    -0.337 N 
HETATM   18  C   UNK N   1      34.687  12.474  13.231  0.00  0.00     0.183 A 
ATOM     19  HN  UNK N   1      35.710  11.409  14.693  1.00  0.00     0.168 HD
HETATM   20  N   UNK N   1      34.794  13.193  12.067  0.00  0.00    -0.336 N 
ATOM     21  HN  UNK N   1      33.972  13.601  11.624  1.00  0.00     0.168 HD
BRANCH  15  22
HETATM   22  N   UNK N   1      38.190  11.557  13.888  0.00  0.00    -0.383 N 
HETATM   23  H   UNK N   1      39.008  12.069  14.081  0.00  0.00     0.157 HD
HETATM   24  H   UNK N   1      38.170  10.606  14.140  0.00  0.00     0.157 HD
ENDBRANCH  15  22
ENDBRANCH   4  10
BRANCH   1  25
HETATM   25  C   UNK N   1      32.329  14.779   8.154  0.00  0.00     0.114 C 
BRANCH  25  26
HETATM   26  S   UNK N   1      32.762  15.266   6.459  0.00  0.00    -0.132 SA
BRANCH  26  27
HETATM   27  C   UNK N   1      31.438  16.473   6.255  0.00  0.00    -0.024 C 
HETATM   28  C   UNK N   1      31.399  17.324   5.220  0.00  0.00     0.006 C 
BRANCH  27  29
HETATM   29  C   UNK N   1      30.352  16.527   7.282  0.00  0.00     0.045 C 
BRANCH  29  30
HETATM   30  C   UNK N   1      30.312  17.859   8.034  0.00  0.00     0.005 C 
BRANCH  30  31
HETATM   31  C   UNK N   1      28.909  18.437   8.208  0.00  0.00     0.002 C 
BRANCH  31  32
HETATM   32  C   UNK N   1      28.170  18.533   6.875  0.00  0.00     0.019 C 
BRANCH  32  33
HETATM   33  C   UNK N   1      27.654  19.937   6.606  0.00  0.00     0.111 C 
BRANCH  33  34
HETATM   34  N   UNK N   1      26.251  19.892   6.235  0.00  0.00    -0.430 N 
HETATM   35  H   UNK N   1      25.765  20.110   5.365  0.00  0.00     0.149 HD
HETATM   36  H   UNK N   1      25.634  19.586   6.988  0.00  0.00     0.149 HD
ENDBRANCH  33  34
ENDBRANCH  32  33
ENDBRANCH  31  32
ENDBRANCH  30  31
ENDBRANCH  29  30
ENDBRANCH  27  29
BRANCH  28  37
HETATM   37  C   UNK N   1      32.453  17.353   4.160  0.00  0.00     0.139 C 
BRANCH  37  38
HETATM   38  N   UNK N   1      31.825  17.356   2.851  0.00  0.00    -0.427 N 
HETATM   39  H   UNK N   1      31.624  18.214   2.337  0.00  0.00     0.150 HD
HETATM   40  H   UNK N   1      31.574  16.463   2.427  0.00  0.00     0.150 HD
ENDBRANCH  37  38
ENDBRANCH  28  37
ENDBRANCH  26  27
ENDBRANCH  25  26
ENDBRANCH   1  25
TORSDOF 14
ENDMDL
MODEL 7
REMARK VINA RESULT:      -6.4      7.067     12.481
REMARK  14 active torsions:
REMARK  status: ('A' for Active; 'I' for Inactive)
REMARK    1  A    between atoms: C_2  and  C_1 
REMARK    2  A    between atoms: C_3  and  C_1 
REMARK    3  A    between atoms: C_4  and  C_2 
REMARK    4  A    between atoms: C_6  and  C_3 
REMARK    5  A    between atoms: C_11  and  C_4 
REMARK    6  A    between atoms: C_5  and  C_7 
REMARK    7  A    between atoms: N_19  and  C_6 
REMARK    8  A    between atoms: N_20  and  C_7 
REMARK    9  A    between atoms: C_12  and  C_8 
REMARK   10  A    between atoms: S_32  and  C_8 
REMARK   11  A    between atoms: S_32  and  C_11 
REMARK   12  A    between atoms: C_14  and  O_29 
REMARK   13  A    between atoms: N_21  and  C_16 
REMARK   14  A    between atoms: C_18  and  N_28 
ROOT
HETATM    1  C   UNK N   1      28.562  17.390   7.393  0.00  0.00     0.165 C 
HETATM    2  C   UNK N   1      28.553  18.444   8.499  0.00  0.00     0.180 C 
HETATM    3  C   UNK N   1      29.905  18.182   9.115  0.00  0.00     0.198 C 
HETATM    4  C   UNK N   1      30.700  18.056   7.816  0.00  0.00     0.262 C 
HETATM    5  O   UNK N   1      29.903  16.966   9.810  0.00  0.00    -0.388 OA
HETATM    6  O   UNK N   1      29.884  17.349   6.896  0.00  0.00    -0.355 OA
HETATM    7  H   UNK N   1      29.883  16.177  10.375  0.00  0.00     0.210 HD
ENDROOT
BRANCH   2   8
HETATM    8  O   UNK N   1      27.499  18.287   9.404  0.00  0.00    -0.390 OA
HETATM    9  H   UNK N   1      27.533  18.057  10.345  0.00  0.00     0.210 HD
ENDBRANCH   2   8
BRANCH   4  10
HETATM   10  N   UNK N   1      31.990  17.375   7.953  0.00  0.00    -0.297 N 
HETATM   11  C   UNK N   1      33.083  17.893   8.574  0.00  0.00     0.188 A 
HETATM   12  N   UNK N   1      34.117  17.009   8.590  0.00  0.00    -0.346 N 
HETATM   13  C   UNK N   1      33.637  15.929   7.953  0.00  0.00     0.122 A 
ATOM     14  HN  UNK N   1      35.045  17.138   8.994  1.00  0.00     0.167 HD
HETATM   15  C   UNK N   1      34.256  14.725   7.673  0.00  0.00     0.131 A 
HETATM   16  C   UNK N   1      32.362  16.144   7.570  0.00  0.00     0.142 A 
HETATM   17  N   UNK N   1      33.541  13.783   6.991  0.00  0.00    -0.337 N 
HETATM   18  C   UNK N   1      32.243  14.025   6.602  0.00  0.00     0.183 A 
ATOM     19  HN  UNK N   1      33.975  12.888   6.765  1.00  0.00     0.168 HD
HETATM   20  N   UNK N   1      31.637  15.219   6.899  0.00  0.00    -0.336 N 
ATOM     21  HN  UNK N   1      30.673  15.403   6.622  1.00  0.00     0.168 HD
BRANCH  15  22
HETATM   22  N   UNK N   1      35.584  14.473   8.078  0.00  0.00    -0.383 N 
HETATM   23  H   UNK N   1      36.197  15.163   8.420  0.00  0.00     0.157 HD
HETATM   24  H   UNK N   1      35.917  13.550   8.014  0.00  0.00     0.157 HD
ENDBRANCH  15  22
ENDBRANCH   4  10
BRANCH   1  25
HETATM   25  C   UNK N   1      27.647  17.678   6.204  0.00  0.00     0.114 C 
BRANCH  25  26
HETATM   26  S   UNK N   1      28.201  18.965   5.048  0.00  0.00    -0.132 SA
BRANCH  26  27
HETATM   27  C   UNK N   1      26.573  19.677   4.746  0.00  0.00    -0.024 C 
HETATM   28  C   UNK N   1      26.061  20.647   5.518  0.00  0.00     0.006 C 
BRANCH  27  29
HETATM   29  C   UNK N   1      25.765  19.159   3.598  0.00  0.00     0.045 C 
BRANCH  29  30
HETATM   30  C   UNK N   1      24.357  19.756   3.546  0.00  0.00     0.005 C 
BRANCH  30  31
HETATM   31  C   UNK N   1      23.248  18.776   3.920  0.00  0.00     0.002 C 
BRANCH  31  32
HETATM   32  C   UNK N   1      21.864  19.345   3.613  0.00  0.00     0.019 C 
BRANCH  32  33
HETATM   33  C   UNK N   1      21.922  20.475   2.599  0.00  0.00     0.111 C 
BRANCH  33  34
HETATM   34  N   UNK N   1      21.049  20.184   1.475  0.00  0.00    -0.430 N 
HETATM   35  H   UNK N   1      20.203  19.619   1.392  0.00  0.00     0.149 HD
HETATM   36  H   UNK N   1      21.337  20.627   0.602  0.00  0.00     0.149 HD
ENDBRANCH  33  34
ENDBRANCH  32  33
ENDBRANCH  31  32
ENDBRANCH  30  31
ENDBRANCH  29  30
ENDBRANCH  27  29
BRANCH  28  37
HETATM   37  C   UNK N   1      26.790  21.208   6.697  0.00  0.00     0.139 C 
BRANCH  37  38
HETATM   38  N   UNK N   1      26.094  20.839   7.917  0.00  0.00    -0.427 N 
HETATM   39  H   UNK N   1      26.080  19.885   8.277  0.00  0.00     0.150 HD
HETATM   40  H   UNK N   1      25.597  21.565   8.435  0.00  0.00     0.150 HD
ENDBRANCH  37  38
ENDBRANCH  28  37
ENDBRANCH  26  27
ENDBRANCH  25  26
ENDBRANCH   1  25
TORSDOF 14
ENDMDL
MODEL 8
REMARK VINA RESULT:      -6.4      6.040     11.098
REMARK  14 active torsions:
REMARK  status: ('A' for Active; 'I' for Inactive)
REMARK    1  A    between atoms: C_2  and  C_1 
REMARK    2  A    between atoms: C_3  and  C_1 
REMARK    3  A    between atoms: C_4  and  C_2 
REMARK    4  A    between atoms: C_6  and  C_3 
REMARK    5  A    between atoms: C_11  and  C_4 
REMARK    6  A    between atoms: C_5  and  C_7 
REMARK    7  A    between atoms: N_19  and  C_6 
REMARK    8  A    between atoms: N_20  and  C_7 
REMARK    9  A    between atoms: C_12  and  C_8 
REMARK   10  A    between atoms: S_32  and  C_8 
REMARK   11  A    between atoms: S_32  and  C_11 
REMARK   12  A    between atoms: C_14  and  O_29 
REMARK   13  A    between atoms: N_21  and  C_16 
REMARK   14  A    between atoms: C_18  and  N_28 
ROOT
HETATM    1  C   UNK N   1      29.067  16.974   7.401  0.00  0.00     0.165 C 
HETATM    2  C   UNK N   1      28.846  18.307   8.114  0.00  0.00     0.180 C 
HETATM    3  C   UNK N   1      30.127  18.388   8.908  0.00  0.00     0.198 C 
HETATM    4  C   UNK N   1      31.083  17.958   7.797  0.00  0.00     0.262 C 
HETATM    5  O   UNK N   1      30.125  17.448   9.946  0.00  0.00    -0.388 OA
HETATM    6  O   UNK N   1      30.439  16.924   7.071  0.00  0.00    -0.355 OA
HETATM    7  H   UNK N   1      30.091  16.870  10.725  0.00  0.00     0.210 HD
ENDROOT
BRANCH   2   8
HETATM    8  O   UNK N   1      27.702  18.322   8.918  0.00  0.00    -0.390 OA
HETATM    9  H   UNK N   1      27.574  18.727   9.789  0.00  0.00     0.210 HD
ENDBRANCH   2   8
BRANCH   4  10
HETATM   10  N   UNK N   1      32.391  17.490   8.263  0.00  0.00    -0.297 N 
HETATM   11  C   UNK N   1      33.474  18.286   8.476  0.00  0.00     0.188 A 
HETATM   12  N   UNK N   1      34.530  17.578   8.958  0.00  0.00    -0.346 N 
HETATM   13  C   UNK N   1      34.076  16.317   9.031  0.00  0.00     0.122 A 
ATOM     14  HN  UNK N   1      35.456  17.926   9.206  1.00  0.00     0.167 HD
HETATM   15  C   UNK N   1      34.725  15.170   9.450  0.00  0.00     0.131 A 
HETATM   16  C   UNK N   1      32.793  16.260   8.616  0.00  0.00     0.142 A 
HETATM   17  N   UNK N   1      34.031  13.994   9.413  0.00  0.00    -0.337 N 
HETATM   18  C   UNK N   1      32.725  13.956   8.979  0.00  0.00     0.183 A 
ATOM     19  HN  UNK N   1      34.487  13.132   9.711  1.00  0.00     0.168 HD
HETATM   20  N   UNK N   1      32.090  15.105   8.579  0.00  0.00    -0.336 N 
ATOM     21  HN  UNK N   1      31.120  15.087   8.264  1.00  0.00     0.168 HD
BRANCH  15  22
HETATM   22  N   UNK N   1      36.060  15.209   9.902  0.00  0.00    -0.383 N 
HETATM   23  H   UNK N   1      36.328  15.483  10.808  0.00  0.00     0.157 HD
HETATM   24  H   UNK N   1      36.767  14.945   9.271  0.00  0.00     0.157 HD
ENDBRANCH  15  22
ENDBRANCH   4  10
BRANCH   1  25
HETATM   25  C   UNK N   1      28.288  16.790   6.099  0.00  0.00     0.114 C 
BRANCH  25  26
HETATM   26  S   UNK N   1      26.560  16.251   6.258  0.00  0.00    -0.132 SA
BRANCH  26  27
HETATM   27  C   UNK N   1      25.934  17.172   4.841  0.00  0.00    -0.024 C 
HETATM   28  C   UNK N   1      24.638  17.164   4.498  0.00  0.00     0.006 C 
BRANCH  27  29
HETATM   29  C   UNK N   1      26.898  17.966   4.018  0.00  0.00     0.045 C 
BRANCH  29  30
HETATM   30  C   UNK N   1      26.662  19.475   4.119  0.00  0.00     0.005 C 
BRANCH  30  31
HETATM   31  C   UNK N   1      27.887  20.270   4.567  0.00  0.00     0.002 C 
BRANCH  31  32
HETATM   32  C   UNK N   1      27.665  20.932   5.925  0.00  0.00     0.019 C 
BRANCH  32  33
HETATM   33  C   UNK N   1      26.215  20.849   6.373  0.00  0.00     0.111 C 
BRANCH  33  34
HETATM   34  N   UNK N   1      26.143  20.760   7.821  0.00  0.00    -0.430 N 
HETATM   35  H   UNK N   1      25.415  20.423   8.451  0.00  0.00     0.149 HD
HETATM   36  H   UNK N   1      26.979  21.100   8.298  0.00  0.00     0.149 HD
ENDBRANCH  33  34
ENDBRANCH  32  33
ENDBRANCH  31  32
ENDBRANCH  30  31
ENDBRANCH  29  30
ENDBRANCH  27  29
BRANCH  28  37
HETATM   37  C   UNK N   1      23.609  16.381   5.251  0.00  0.00     0.139 C 
BRANCH  37  38
HETATM   38  N   UNK N   1      22.783  17.288   6.027  0.00  0.00    -0.427 N 
HETATM   39  H   UNK N   1      23.136  17.801   6.835  0.00  0.00     0.150 HD
HETATM   40  H   UNK N   1      21.808  17.417   5.754  0.00  0.00     0.150 HD
ENDBRANCH  37  38
ENDBRANCH  28  37
ENDBRANCH  26  27
ENDBRANCH  25  26
ENDBRANCH   1  25
TORSDOF 14
ENDMDL
MODEL 9
REMARK VINA RESULT:      -6.4      1.808      2.456
REMARK  14 active torsions:
REMARK  status: ('A' for Active; 'I' for Inactive)
REMARK    1  A    between atoms: C_2  and  C_1 
REMARK    2  A    between atoms: C_3  and  C_1 
REMARK    3  A    between atoms: C_4  and  C_2 
REMARK    4  A    between atoms: C_6  and  C_3 
REMARK    5  A    between atoms: C_11  and  C_4 
REMARK    6  A    between atoms: C_5  and  C_7 
REMARK    7  A    between atoms: N_19  and  C_6 
REMARK    8  A    between atoms: N_20  and  C_7 
REMARK    9  A    between atoms: C_12  and  C_8 
REMARK   10  A    between atoms: S_32  and  C_8 
REMARK   11  A    between atoms: S_32  and  C_11 
REMARK   12  A    between atoms: C_14  and  O_29 
REMARK   13  A    between atoms: N_21  and  C_16 
REMARK   14  A    between atoms: C_18  and  N_28 
ROOT
HETATM    1  C   UNK N   1      36.457  13.460  11.580  0.00  0.00     0.165 C 
HETATM    2  C   UNK N   1      35.893  14.561  12.476  0.00  0.00     0.180 C 
HETATM    3  C   UNK N   1      35.527  15.583  11.428  0.00  0.00     0.198 C 
HETATM    4  C   UNK N   1      34.873  14.627  10.431  0.00  0.00     0.262 C 
HETATM    5  O   UNK N   1      36.678  16.157  10.875  0.00  0.00    -0.388 OA
HETATM    6  O   UNK N   1      35.651  13.441  10.420  0.00  0.00    -0.355 OA
HETATM    7  H   UNK N   1      37.464  16.630  10.558  0.00  0.00     0.210 HD
ENDROOT
BRANCH   2   8
HETATM    8  O   UNK N   1      36.816  15.042  13.410  0.00  0.00    -0.390 OA
HETATM    9  H   UNK N   1      37.782  14.970  13.405  0.00  0.00     0.210 HD
ENDBRANCH   2   8
BRANCH   4  10
HETATM   10  N   UNK N   1      34.757  15.151   9.068  0.00  0.00    -0.297 N 
HETATM   11  C   UNK N   1      35.518  14.753   8.012  0.00  0.00     0.188 A 
HETATM   12  N   UNK N   1      35.146  15.377   6.862  0.00  0.00    -0.346 N 
HETATM   13  C   UNK N   1      34.137  16.181   7.235  0.00  0.00     0.122 A 
ATOM     14  HN  UNK N   1      35.543  15.261   5.930  1.00  0.00     0.167 HD
HETATM   15  C   UNK N   1      33.379  17.054   6.476  0.00  0.00     0.131 A 
HETATM   16  C   UNK N   1      33.901  16.047   8.557  0.00  0.00     0.142 A 
HETATM   17  N   UNK N   1      32.409  17.775   7.111  0.00  0.00    -0.337 N 
HETATM   18  C   UNK N   1      32.189  17.630   8.461  0.00  0.00     0.183 A 
ATOM     19  HN  UNK N   1      31.840  18.431   6.576  1.00  0.00     0.168 HD
HETATM   20  N   UNK N   1      32.939  16.750   9.199  0.00  0.00    -0.336 N 
ATOM     21  HN  UNK N   1      32.776  16.630  10.199  1.00  0.00     0.168 HD
BRANCH  15  22
HETATM   22  N   UNK N   1      33.599  17.197   5.090  0.00  0.00    -0.383 N 
HETATM   23  H   UNK N   1      34.490  17.238   4.674  0.00  0.00     0.157 HD
HETATM   24  H   UNK N   1      32.812  17.261   4.504  0.00  0.00     0.157 HD
ENDBRANCH  15  22
ENDBRANCH   4  10
BRANCH   1  25
HETATM   25  C   UNK N   1      36.423  12.051  12.171  0.00  0.00     0.114 C 
BRANCH  25  26
HETATM   26  S   UNK N   1      36.076  10.695  11.013  0.00  0.00    -0.132 SA
BRANCH  26  27
HETATM   27  C   UNK N   1      34.598  10.092  11.849  0.00  0.00    -0.024 C 
HETATM   28  C   UNK N   1      33.427   9.940  11.213  0.00  0.00     0.006 C 
BRANCH  27  29
HETATM   29  C   UNK N   1      34.683   9.755  13.304  0.00  0.00     0.045 C 
BRANCH  29  30
HETATM   30  C   UNK N   1      33.704  10.564  14.158  0.00  0.00     0.005 C 
BRANCH  30  31
HETATM   31  C   UNK N   1      34.098  10.669  15.630  0.00  0.00     0.002 C 
BRANCH  31  32
HETATM   32  C   UNK N   1      35.533  11.167  15.796  0.00  0.00     0.019 C 
BRANCH  32  33
HETATM   33  C   UNK N   1      35.588  12.624  16.223  0.00  0.00     0.111 C 
BRANCH  33  34
HETATM   34  N   UNK N   1      36.744  13.275  15.631  0.00  0.00    -0.430 N 
HETATM   35  H   UNK N   1      37.628  13.595  16.027  0.00  0.00     0.149 HD
HETATM   36  H   UNK N   1      36.655  13.445  14.629  0.00  0.00     0.149 HD
ENDBRANCH  33  34
ENDBRANCH  32  33
ENDBRANCH  31  32
ENDBRANCH  30  31
ENDBRANCH  29  30
ENDBRANCH  27  29
BRANCH  28  37
HETATM   37  C   UNK N   1      33.247  10.272   9.766  0.00  0.00     0.139 C 
BRANCH  37  38
HETATM   38  N   UNK N   1      32.601  11.566   9.642  0.00  0.00    -0.427 N 
HETATM   39  H   UNK N   1      31.667  11.681   9.247  0.00  0.00     0.150 HD
HETATM   40  H   UNK N   1      33.100  12.396   9.964  0.00  0.00     0.150 HD
ENDBRANCH  37  38
ENDBRANCH  28  37
ENDBRANCH  26  27
ENDBRANCH  25  26
ENDBRANCH   1  25
TORSDOF 14
ENDMDL
