MODEL 1
REMARK VINA RESULT:      -6.4      0.000      0.000
REMARK  11 active torsions:
REMARK  status: ('A' for Active; 'I' for Inactive)
REMARK    1  A    between atoms: C_4  and  C_3 
REMARK    2  A    between atoms: C_5  and  C_3 
REMARK    3  A    between atoms: C_6  and  C_4 
REMARK    4  A    between atoms: C_7  and  C_5 
REMARK    5  A    between atoms: C_12  and  C_6 
REMARK    6  A    between atoms: C_15  and  C_7 
REMARK    7  A    between atoms: N_17  and  C_12 
REMARK    8  A    between atoms: C_16  and  C_13 
REMARK    9  A    between atoms: N_20  and  C_14 
REMARK   10  A    between atoms: O_21  and  C_15 
REMARK       I    between atoms: N_17  and  C_16 
REMARK   11  A    between atoms: N_18  and  O_23 
ROOT
HETATM    1  C   UNK N   1      27.796  20.204   7.124  0.00  0.00     0.123 C 
ENDROOT
BRANCH   1   2
HETATM    2  C   UNK N   1      26.862  20.093   5.936  0.00  0.00     0.020 C 
BRANCH   2   3
HETATM    3  C   UNK N   1      27.662  19.911   4.663  0.00  0.00     0.002 C 
BRANCH   3   4
HETATM    4  C   UNK N   1      26.721  19.724   3.487  0.00  0.00     0.000 C 
BRANCH   4   5
HETATM    5  C   UNK N   1      25.307  20.098   3.890  0.00  0.00     0.008 C 
BRANCH   5   6
HETATM    6  C   UNK N   1      24.525  20.613   2.694  0.00  0.00     0.086 C 
BRANCH   6   7
HETATM    7  C   UNK N   1      23.060  20.522   2.963  0.00  0.00     0.135 C 
HETATM    8  N   UNK N   1      22.558  19.424   3.402  0.00  0.00    -0.251 N 
ATOM      9  HN  UNK N   1      23.166  18.621   3.563  1.00  0.00     0.196 HD
BRANCH   8  10
HETATM   10  O   UNK N   1      21.268  19.323   3.650  0.00  0.00    -0.288 OA
HETATM   11  H   UNK N   1      20.638  19.811   3.159  0.00  0.00     0.244 HD
ENDBRANCH   8  10
BRANCH   7  12
HETATM   12  O   UNK N   1      22.272  21.596   2.750  0.00  0.00    -0.348 OA
HETATM   13  H   UNK N   1      21.877  21.734   1.912  0.00  0.00     0.219 HD
ENDBRANCH   7  12
ENDBRANCH   6   7
ENDBRANCH   5   6
ENDBRANCH   4   5
ENDBRANCH   3   4
ENDBRANCH   2   3
ENDBRANCH   1   2
BRANCH   1  14
HETATM   14  N   UNK N   1      27.388  19.281   8.155  0.00  0.00    -0.357 N 
HETATM   15  C   UNK N   1      28.151  18.258   8.637  0.00  0.00     0.251 C 
HETATM   16  O   UNK N   1      27.706  17.592   9.558  0.00  0.00    -0.268 OA
HETATM   17  H   UNK N   1      26.489  19.398   8.540  0.00  0.00     0.162 HD
BRANCH  15  18
HETATM   18  C   UNK N   1      29.501  17.907   8.089  0.00  0.00     0.032 A 
HETATM   19  C   UNK N   1      30.647  18.200   8.846  0.00  0.00     0.019 A 
HETATM   20  C   UNK N   1      31.920  17.874   8.367  0.00  0.00     0.030 A 
HETATM   21  C   UNK N   1      32.073  17.238   7.124  0.00  0.00     0.029 A 
HETATM   22  C   UNK N   1      30.929  16.940   6.372  0.00  0.00     0.030 A 
HETATM   23  C   UNK N   1      29.662  17.274   6.849  0.00  0.00     0.019 A 
BRANCH  21  24
HETATM   24  N   UNK N   1      33.370  16.897   6.633  0.00  0.00    -0.390 N 
HETATM   25  C   UNK N   1      34.472  16.689   7.538  0.00  0.00     0.149 C 
HETATM   26  C   UNK N   1      33.611  16.756   5.219  0.00  0.00     0.149 C 
ENDBRANCH  21  24
ENDBRANCH  15  18
ENDBRANCH   1  14
TORSDOF 11
ENDMDL
MODEL 2
REMARK VINA RESULT:      -6.3      2.842      5.128
REMARK  11 active torsions:
REMARK  status: ('A' for Active; 'I' for Inactive)
REMARK    1  A    between atoms: C_4  and  C_3 
REMARK    2  A    between atoms: C_5  and  C_3 
REMARK    3  A    between atoms: C_6  and  C_4 
REMARK    4  A    between atoms: C_7  and  C_5 
REMARK    5  A    between atoms: C_12  and  C_6 
REMARK    6  A    between atoms: C_15  and  C_7 
REMARK    7  A    between atoms: N_17  and  C_12 
REMARK    8  A    between atoms: C_16  and  C_13 
REMARK    9  A    between atoms: N_20  and  C_14 
REMARK   10  A    between atoms: O_21  and  C_15 
REMARK       I    between atoms: N_17  and  C_16 
REMARK   11  A    between atoms: N_18  and  O_23 
ROOT
HETATM    1  C   UNK N   1      23.363  18.665   4.663  0.00  0.00     0.123 C 
ENDROOT
BRANCH   1   2
HETATM    2  C   UNK N   1      22.974  17.311   4.104  0.00  0.00     0.020 C 
BRANCH   2   3
HETATM    3  C   UNK N   1      21.786  17.456   3.177  0.00  0.00     0.002 C 
BRANCH   3   4
HETATM    4  C   UNK N   1      20.623  18.080   3.926  0.00  0.00     0.000 C 
BRANCH   4   5
HETATM    5  C   UNK N   1      19.813  18.955   2.988  0.00  0.00     0.008 C 
BRANCH   5   6
HETATM    6  C   UNK N   1      20.619  19.311   1.751  0.00  0.00     0.086 C 
BRANCH   6   7
HETATM    7  C   UNK N   1      20.791  20.790   1.660  0.00  0.00     0.135 C 
HETATM    8  N   UNK N   1      20.295  21.431   0.664  0.00  0.00    -0.251 N 
ATOM      9  HN  UNK N   1      19.788  20.923  -0.061  1.00  0.00     0.196 HD
BRANCH   8  10
HETATM   10  O   UNK N   1      20.432  22.738   0.566  0.00  0.00    -0.288 OA
HETATM   11  H   UNK N   1      19.695  23.296   0.420  0.00  0.00     0.244 HD
ENDBRANCH   8  10
BRANCH   7  12
HETATM   12  O   UNK N   1      21.460  21.447   2.630  0.00  0.00    -0.348 OA
HETATM   13  H   UNK N   1      22.394  21.506   2.603  0.00  0.00     0.219 HD
ENDBRANCH   7  12
ENDBRANCH   6   7
ENDBRANCH   5   6
ENDBRANCH   4   5
ENDBRANCH   3   4
ENDBRANCH   2   3
ENDBRANCH   1   2
BRANCH   1  14
HETATM   14  N   UNK N   1      23.680  19.568   3.584  0.00  0.00    -0.357 N 
HETATM   15  C   UNK N   1      24.937  19.817   3.116  0.00  0.00     0.251 C 
HETATM   16  O   UNK N   1      25.056  20.557   2.152  0.00  0.00    -0.268 OA
HETATM   17  H   UNK N   1      22.932  20.042   3.152  0.00  0.00     0.162 HD
BRANCH  15  18
HETATM   18  C   UNK N   1      26.176  19.237   3.729  0.00  0.00     0.032 A 
HETATM   19  C   UNK N   1      26.933  20.019   4.617  0.00  0.00     0.019 A 
HETATM   20  C   UNK N   1      28.088  19.503   5.214  0.00  0.00     0.030 A 
HETATM   21  C   UNK N   1      28.504  18.189   4.944  0.00  0.00     0.029 A 
HETATM   22  C   UNK N   1      27.744  17.407   4.063  0.00  0.00     0.030 A 
HETATM   23  C   UNK N   1      26.598  17.928   3.463  0.00  0.00     0.019 A 
BRANCH  21  24
HETATM   24  N   UNK N   1      29.678  17.655   5.556  0.00  0.00    -0.390 N 
HETATM   25  C   UNK N   1      29.725  17.409   6.975  0.00  0.00     0.149 C 
HETATM   26  C   UNK N   1      30.847  17.350   4.770  0.00  0.00     0.149 C 
ENDBRANCH  21  24
ENDBRANCH  15  18
ENDBRANCH   1  14
TORSDOF 11
ENDMDL
MODEL 3
REMARK VINA RESULT:      -6.2     10.694     14.573
REMARK  11 active torsions:
REMARK  status: ('A' for Active; 'I' for Inactive)
REMARK    1  A    between atoms: C_4  and  C_3 
REMARK    2  A    between atoms: C_5  and  C_3 
REMARK    3  A    between atoms: C_6  and  C_4 
REMARK    4  A    between atoms: C_7  and  C_5 
REMARK    5  A    between atoms: C_12  and  C_6 
REMARK    6  A    between atoms: C_15  and  C_7 
REMARK    7  A    between atoms: N_17  and  C_12 
REMARK    8  A    between atoms: C_16  and  C_13 
REMARK    9  A    between atoms: N_20  and  C_14 
REMARK   10  A    between atoms: O_21  and  C_15 
REMARK       I    between atoms: N_17  and  C_16 
REMARK   11  A    between atoms: N_18  and  O_23 
ROOT
HETATM    1  C   UNK N   1      28.827  28.027  -4.305  0.00  0.00     0.123 C 
ENDROOT
BRANCH   1   2
HETATM    2  C   UNK N   1      29.566  26.780  -3.860  0.00  0.00     0.020 C 
BRANCH   2   3
HETATM    3  C   UNK N   1      29.956  25.951  -5.065  0.00  0.00     0.002 C 
BRANCH   3   4
HETATM    4  C   UNK N   1      30.506  24.612  -4.611  0.00  0.00     0.000 C 
BRANCH   4   5
HETATM    5  C   UNK N   1      29.421  23.815  -3.913  0.00  0.00     0.008 C 
BRANCH   5   6
HETATM    6  C   UNK N   1      29.818  22.354  -3.791  0.00  0.00     0.086 C 
BRANCH   6   7
HETATM    7  C   UNK N   1      30.836  22.189  -2.712  0.00  0.00     0.135 C 
HETATM    8  N   UNK N   1      31.829  21.394  -2.886  0.00  0.00    -0.251 N 
ATOM      9  HN  UNK N   1      31.914  20.878  -3.762  1.00  0.00     0.196 HD
BRANCH   8  10
HETATM   10  O   UNK N   1      32.741  21.237  -1.949  0.00  0.00    -0.288 OA
HETATM   11  H   UNK N   1      33.440  21.850  -1.841  0.00  0.00     0.244 HD
ENDBRANCH   8  10
BRANCH   7  12
HETATM   12  O   UNK N   1      30.711  22.884  -1.562  0.00  0.00    -0.348 OA
HETATM   13  H   UNK N   1      31.470  23.119  -1.066  0.00  0.00     0.219 HD
ENDBRANCH   7  12
ENDBRANCH   6   7
ENDBRANCH   5   6
ENDBRANCH   4   5
ENDBRANCH   3   4
ENDBRANCH   2   3
ENDBRANCH   1   2
BRANCH   1  14
HETATM   14  N   UNK N   1      27.626  28.190  -3.522  0.00  0.00    -0.357 N 
HETATM   15  C   UNK N   1      26.442  27.558  -3.765  0.00  0.00     0.251 C 
HETATM   16  O   UNK N   1      25.523  27.739  -2.982  0.00  0.00    -0.268 OA
HETATM   17  H   UNK N   1      27.665  28.806  -2.755  0.00  0.00     0.162 HD
BRANCH  15  18
HETATM   18  C   UNK N   1      26.211  26.662  -4.944  0.00  0.00     0.032 A 
HETATM   19  C   UNK N   1      26.136  25.273  -4.746  0.00  0.00     0.019 A 
HETATM   20  C   UNK N   1      25.910  24.412  -5.824  0.00  0.00     0.030 A 
HETATM   21  C   UNK N   1      25.743  24.922  -7.122  0.00  0.00     0.029 A 
HETATM   22  C   UNK N   1      25.811  26.308  -7.318  0.00  0.00     0.030 A 
HETATM   23  C   UNK N   1      26.045  27.163  -6.241  0.00  0.00     0.019 A 
BRANCH  21  24
HETATM   24  N   UNK N   1      25.506  24.047  -8.226  0.00  0.00    -0.390 N 
HETATM   25  C   UNK N   1      25.271  22.641  -8.016  0.00  0.00     0.149 C 
HETATM   26  C   UNK N   1      25.498  24.548  -9.577  0.00  0.00     0.149 C 
ENDBRANCH  21  24
ENDBRANCH  15  18
ENDBRANCH   1  14
TORSDOF 11
ENDMDL
MODEL 4
REMARK VINA RESULT:      -6.2     11.002     13.220
REMARK  11 active torsions:
REMARK  status: ('A' for Active; 'I' for Inactive)
REMARK    1  A    between atoms: C_4  and  C_3 
REMARK    2  A    between atoms: C_5  and  C_3 
REMARK    3  A    between atoms: C_6  and  C_4 
REMARK    4  A    between atoms: C_7  and  C_5 
REMARK    5  A    between atoms: C_12  and  C_6 
REMARK    6  A    between atoms: C_15  and  C_7 
REMARK    7  A    between atoms: N_17  and  C_12 
REMARK    8  A    between atoms: C_16  and  C_13 
REMARK    9  A    between atoms: N_20  and  C_14 
REMARK   10  A    between atoms: O_21  and  C_15 
REMARK       I    between atoms: N_17  and  C_16 
REMARK   11  A    between atoms: N_18  and  O_23 
ROOT
HETATM    1  C   UNK N   1      31.037  22.370  -5.235  0.00  0.00     0.123 C 
ENDROOT
BRANCH   1   2
HETATM    2  C   UNK N   1      30.227  21.149  -5.624  0.00  0.00     0.020 C 
BRANCH   2   3
HETATM    3  C   UNK N   1      29.326  21.477  -6.795  0.00  0.00     0.002 C 
BRANCH   3   4
HETATM    4  C   UNK N   1      29.184  22.981  -6.929  0.00  0.00     0.000 C 
BRANCH   4   5
HETATM    5  C   UNK N   1      27.721  23.373  -6.850  0.00  0.00     0.008 C 
BRANCH   5   6
HETATM    6  C   UNK N   1      26.827  22.154  -7.001  0.00  0.00     0.086 C 
BRANCH   6   7
HETATM    7  C   UNK N   1      25.503  22.556  -7.561  0.00  0.00     0.135 C 
HETATM    8  N   UNK N   1      24.554  21.695  -7.640  0.00  0.00    -0.251 N 
ATOM      9  HN  UNK N   1      24.713  20.739  -7.321  1.00  0.00     0.196 HD
BRANCH   8  10
HETATM   10  O   UNK N   1      23.377  22.030  -8.127  0.00  0.00    -0.288 OA
HETATM   11  H   UNK N   1      23.270  22.264  -9.027  0.00  0.00     0.244 HD
ENDBRANCH   8  10
BRANCH   7  12
HETATM   12  O   UNK N   1      25.310  23.826  -7.973  0.00  0.00    -0.348 OA
HETATM   13  H   UNK N   1      24.647  24.022  -8.605  0.00  0.00     0.219 HD
ENDBRANCH   7  12
ENDBRANCH   6   7
ENDBRANCH   5   6
ENDBRANCH   4   5
ENDBRANCH   3   4
ENDBRANCH   2   3
ENDBRANCH   1   2
BRANCH   1  14
HETATM   14  N   UNK N   1      31.266  22.372  -3.810  0.00  0.00    -0.357 N 
HETATM   15  C   UNK N   1      30.525  23.066  -2.899  0.00  0.00     0.251 C 
HETATM   16  O   UNK N   1      30.789  22.926  -1.716  0.00  0.00    -0.268 OA
HETATM   17  H   UNK N   1      32.015  21.832  -3.470  0.00  0.00     0.162 HD
BRANCH  15  18
HETATM   18  C   UNK N   1      29.411  23.995  -3.278  0.00  0.00     0.032 A 
HETATM   19  C   UNK N   1      28.081  23.588  -3.082  0.00  0.00     0.019 A 
HETATM   20  C   UNK N   1      27.020  24.436  -3.414  0.00  0.00     0.030 A 
HETATM   21  C   UNK N   1      27.267  25.715  -3.939  0.00  0.00     0.029 A 
HETATM   22  C   UNK N   1      28.595  26.124  -4.129  0.00  0.00     0.030 A 
HETATM   23  C   UNK N   1      29.649  25.271  -3.804  0.00  0.00     0.019 A 
BRANCH  21  24
HETATM   24  N   UNK N   1      26.187  26.588  -4.275  0.00  0.00    -0.390 N 
HETATM   25  C   UNK N   1      25.390  26.358  -5.453  0.00  0.00     0.149 C 
HETATM   26  C   UNK N   1      25.869  27.723  -3.445  0.00  0.00     0.149 C 
ENDBRANCH  21  24
ENDBRANCH  15  18
ENDBRANCH   1  14
TORSDOF 11
ENDMDL
MODEL 5
REMARK VINA RESULT:      -6.2     10.847     14.753
REMARK  11 active torsions:
REMARK  status: ('A' for Active; 'I' for Inactive)
REMARK    1  A    between atoms: C_4  and  C_3 
REMARK    2  A    between atoms: C_5  and  C_3 
REMARK    3  A    between atoms: C_6  and  C_4 
REMARK    4  A    between atoms: C_7  and  C_5 
REMARK    5  A    between atoms: C_12  and  C_6 
REMARK    6  A    between atoms: C_15  and  C_7 
REMARK    7  A    between atoms: N_17  and  C_12 
REMARK    8  A    between atoms: C_16  and  C_13 
REMARK    9  A    between atoms: N_20  and  C_14 
REMARK   10  A    between atoms: O_21  and  C_15 
REMARK       I    between atoms: N_17  and  C_16 
REMARK   11  A    between atoms: N_18  and  O_23 
ROOT
HETATM    1  C   UNK N   1      27.653  22.385  -9.011  0.00  0.00     0.123 C 
ENDROOT
BRANCH   1   2
HETATM    2  C   UNK N   1      28.417  21.293  -8.289  0.00  0.00     0.020 C 
BRANCH   2   3
HETATM    3  C   UNK N   1      29.399  21.907  -7.313  0.00  0.00     0.002 C 
BRANCH   3   4
HETATM    4  C   UNK N   1      29.660  20.941  -6.171  0.00  0.00     0.000 C 
BRANCH   4   5
HETATM    5  C   UNK N   1      30.734  21.499  -5.257  0.00  0.00     0.008 C 
BRANCH   5   6
HETATM    6  C   UNK N   1      30.114  22.159  -4.037  0.00  0.00     0.086 C 
BRANCH   6   7
HETATM    7  C   UNK N   1      31.052  22.076  -2.879  0.00  0.00     0.135 C 
HETATM    8  N   UNK N   1      32.018  21.230  -2.897  0.00  0.00    -0.251 N 
ATOM      9  HN  UNK N   1      32.136  20.618  -3.705  1.00  0.00     0.196 HD
BRANCH   8  10
HETATM   10  O   UNK N   1      32.858  21.144  -1.887  0.00  0.00    -0.288 OA
HETATM   11  H   UNK N   1      33.080  20.318  -1.506  0.00  0.00     0.244 HD
ENDBRANCH   8  10
BRANCH   7  12
HETATM   12  O   UNK N   1      30.883  22.898  -1.822  0.00  0.00    -0.348 OA
HETATM   13  H   UNK N   1      31.415  23.663  -1.728  0.00  0.00     0.219 HD
ENDBRANCH   7  12
ENDBRANCH   6   7
ENDBRANCH   5   6
ENDBRANCH   4   5
ENDBRANCH   3   4
ENDBRANCH   2   3
ENDBRANCH   1   2
BRANCH   1  14
HETATM   14  N   UNK N   1      26.236  22.126  -8.930  0.00  0.00    -0.357 N 
HETATM   15  C   UNK N   1      25.366  22.783  -8.109  0.00  0.00     0.251 C 
HETATM   16  O   UNK N   1      24.180  22.507  -8.190  0.00  0.00    -0.268 OA
HETATM   17  H   UNK N   1      25.869  21.421  -9.511  0.00  0.00     0.162 HD
BRANCH  15  18
HETATM   18  C   UNK N   1      25.794  23.816  -7.112  0.00  0.00     0.032 A 
HETATM   19  C   UNK N   1      25.829  25.167  -7.495  0.00  0.00     0.019 A 
HETATM   20  C   UNK N   1      26.213  26.157  -6.584  0.00  0.00     0.030 A 
HETATM   21  C   UNK N   1      26.558  25.817  -5.266  0.00  0.00     0.029 A 
HETATM   22  C   UNK N   1      26.516  24.469  -4.881  0.00  0.00     0.030 A 
HETATM   23  C   UNK N   1      26.141  23.485  -5.796  0.00  0.00     0.019 A 
BRANCH  21  24
HETATM   24  N   UNK N   1      26.945  26.823  -4.329  0.00  0.00    -0.390 N 
HETATM   25  C   UNK N   1      26.012  27.314  -3.345  0.00  0.00     0.149 C 
HETATM   26  C   UNK N   1      28.276  27.376  -4.345  0.00  0.00     0.149 C 
ENDBRANCH  21  24
ENDBRANCH  15  18
ENDBRANCH   1  14
TORSDOF 11
ENDMDL
MODEL 6
REMARK VINA RESULT:      -6.0     11.010     13.838
REMARK  11 active torsions:
REMARK  status: ('A' for Active; 'I' for Inactive)
REMARK    1  A    between atoms: C_4  and  C_3 
REMARK    2  A    between atoms: C_5  and  C_3 
REMARK    3  A    between atoms: C_6  and  C_4 
REMARK    4  A    between atoms: C_7  and  C_5 
REMARK    5  A    between atoms: C_12  and  C_6 
REMARK    6  A    between atoms: C_15  and  C_7 
REMARK    7  A    between atoms: N_17  and  C_12 
REMARK    8  A    between atoms: C_16  and  C_13 
REMARK    9  A    between atoms: N_20  and  C_14 
REMARK   10  A    between atoms: O_21  and  C_15 
REMARK       I    between atoms: N_17  and  C_16 
REMARK   11  A    between atoms: N_18  and  O_23 
ROOT
HETATM    1  C   UNK N   1      26.163  24.735  -8.635  0.00  0.00     0.123 C 
ENDROOT
BRANCH   1   2
HETATM    2  C   UNK N   1      25.818  26.019  -7.906  0.00  0.00     0.020 C 
BRANCH   2   3
HETATM    3  C   UNK N   1      27.081  26.799  -7.606  0.00  0.00     0.002 C 
BRANCH   3   4
HETATM    4  C   UNK N   1      26.861  27.685  -6.394  0.00  0.00     0.000 C 
BRANCH   4   5
HETATM    5  C   UNK N   1      25.757  27.113  -5.527  0.00  0.00     0.008 C 
BRANCH   5   6
HETATM    6  C   UNK N   1      25.241  28.157  -4.552  0.00  0.00     0.086 C 
BRANCH   6   7
HETATM    7  C   UNK N   1      26.041  28.120  -3.292  0.00  0.00     0.135 C 
HETATM    8  N   UNK N   1      26.735  29.143  -2.946  0.00  0.00    -0.251 N 
ATOM      9  HN  UNK N   1      26.736  29.975  -3.537  1.00  0.00     0.196 HD
BRANCH   8  10
HETATM   10  O   UNK N   1      27.445  29.133  -1.837  0.00  0.00    -0.288 OA
HETATM   11  H   UNK N   1      27.051  29.298  -1.004  0.00  0.00     0.244 HD
ENDBRANCH   8  10
BRANCH   7  12
HETATM   12  O   UNK N   1      26.023  27.013  -2.521  0.00  0.00    -0.348 OA
HETATM   13  H   UNK N   1      25.351  26.370  -2.632  0.00  0.00     0.219 HD
ENDBRANCH   7  12
ENDBRANCH   6   7
ENDBRANCH   5   6
ENDBRANCH   4   5
ENDBRANCH   3   4
ENDBRANCH   2   3
ENDBRANCH   1   2
BRANCH   1  14
HETATM   14  N   UNK N   1      25.334  23.658  -8.150  0.00  0.00    -0.357 N 
HETATM   15  C   UNK N   1      25.508  23.010  -6.963  0.00  0.00     0.251 C 
HETATM   16  O   UNK N   1      24.691  22.159  -6.647  0.00  0.00    -0.268 OA
HETATM   17  H   UNK N   1      24.585  23.369  -8.721  0.00  0.00     0.162 HD
BRANCH  15  18
HETATM   18  C   UNK N   1      26.651  23.283  -6.034  0.00  0.00     0.032 A 
HETATM   19  C   UNK N   1      27.949  22.897  -6.409  0.00  0.00     0.019 A 
HETATM   20  C   UNK N   1      29.038  23.147  -5.569  0.00  0.00     0.030 A 
HETATM   21  C   UNK N   1      28.855  23.801  -4.339  0.00  0.00     0.029 A 
HETATM   22  C   UNK N   1      27.561  24.192  -3.968  0.00  0.00     0.030 A 
HETATM   23  C   UNK N   1      26.476  23.933  -4.805  0.00  0.00     0.019 A 
BRANCH  21  24
HETATM   24  N   UNK N   1      29.964  24.065  -3.480  0.00  0.00    -0.390 N 
HETATM   25  C   UNK N   1      30.391  23.093  -2.505  0.00  0.00     0.149 C 
HETATM   26  C   UNK N   1      30.684  25.311  -3.564  0.00  0.00     0.149 C 
ENDBRANCH  21  24
ENDBRANCH  15  18
ENDBRANCH   1  14
TORSDOF 11
ENDMDL
MODEL 7
REMARK VINA RESULT:      -5.9      6.103     11.461
REMARK  11 active torsions:
REMARK  status: ('A' for Active; 'I' for Inactive)
REMARK    1  A    between atoms: C_4  and  C_3 
REMARK    2  A    between atoms: C_5  and  C_3 
REMARK    3  A    between atoms: C_6  and  C_4 
REMARK    4  A    between atoms: C_7  and  C_5 
REMARK    5  A    between atoms: C_12  and  C_6 
REMARK    6  A    between atoms: C_15  and  C_7 
REMARK    7  A    between atoms: N_17  and  C_12 
REMARK    8  A    between atoms: C_16  and  C_13 
REMARK    9  A    between atoms: N_20  and  C_14 
REMARK   10  A    between atoms: O_21  and  C_15 
REMARK       I    between atoms: N_17  and  C_16 
REMARK   11  A    between atoms: N_18  and  O_23 
ROOT
HETATM    1  C   UNK N   1      34.430  15.958   9.649  0.00  0.00     0.123 C 
ENDROOT
BRANCH   1   2
HETATM    2  C   UNK N   1      35.522  14.930   9.430  0.00  0.00     0.020 C 
BRANCH   2   3
HETATM    3  C   UNK N   1      36.609  15.100  10.471  0.00  0.00     0.002 C 
BRANCH   3   4
HETATM    4  C   UNK N   1      37.188  13.745  10.835  0.00  0.00     0.000 C 
BRANCH   4   5
HETATM    5  C   UNK N   1      36.594  13.263  12.145  0.00  0.00     0.008 C 
BRANCH   5   6
HETATM    6  C   UNK N   1      36.074  14.432  12.964  0.00  0.00     0.086 C 
BRANCH   6   7
HETATM    7  C   UNK N   1      36.564  14.329  14.370  0.00  0.00     0.135 C 
HETATM    8  N   UNK N   1      37.253  15.286  14.878  0.00  0.00    -0.251 N 
ATOM      9  HN  UNK N   1      37.463  16.110  14.315  1.00  0.00     0.196 HD
BRANCH   8  10
HETATM   10  O   UNK N   1      37.692  15.217  16.118  0.00  0.00    -0.288 OA
HETATM   11  H   UNK N   1      38.594  15.055  16.308  0.00  0.00     0.244 HD
ENDBRANCH   8  10
BRANCH   7  12
HETATM   12  O   UNK N   1      36.272  13.233  15.101  0.00  0.00    -0.348 OA
HETATM   13  H   UNK N   1      35.751  13.307  15.876  0.00  0.00     0.219 HD
ENDBRANCH   7  12
ENDBRANCH   6   7
ENDBRANCH   5   6
ENDBRANCH   4   5
ENDBRANCH   3   4
ENDBRANCH   2   3
ENDBRANCH   1   2
BRANCH   1  14
HETATM   14  N   UNK N   1      34.946  17.282   9.399  0.00  0.00    -0.357 N 
HETATM   15  C   UNK N   1      34.501  18.124   8.423  0.00  0.00     0.251 C 
HETATM   16  O   UNK N   1      34.983  19.244   8.364  0.00  0.00    -0.268 OA
HETATM   17  H   UNK N   1      35.676  17.602   9.977  0.00  0.00     0.162 HD
BRANCH  15  18
HETATM   18  C   UNK N   1      33.458  17.742   7.417  0.00  0.00     0.032 A 
HETATM   19  C   UNK N   1      33.852  17.423   6.107  0.00  0.00     0.019 A 
HETATM   20  C   UNK N   1      32.904  17.052   5.148  0.00  0.00     0.030 A 
HETATM   21  C   UNK N   1      31.541  16.982   5.482  0.00  0.00     0.029 A 
HETATM   22  C   UNK N   1      31.149  17.294   6.791  0.00  0.00     0.030 A 
HETATM   23  C   UNK N   1      32.097  17.672   7.742  0.00  0.00     0.019 A 
BRANCH  21  24
HETATM   24  N   UNK N   1      30.570  16.597   4.509  0.00  0.00    -0.390 N 
HETATM   25  C   UNK N   1      29.210  16.314   4.894  0.00  0.00     0.149 C 
HETATM   26  C   UNK N   1      30.924  16.481   3.116  0.00  0.00     0.149 C 
ENDBRANCH  21  24
ENDBRANCH  15  18
ENDBRANCH   1  14
TORSDOF 11
ENDMDL
MODEL 8
REMARK VINA RESULT:      -5.9      7.611      8.406
REMARK  11 active torsions:
REMARK  status: ('A' for Active; 'I' for Inactive)
REMARK    1  A    between atoms: C_4  and  C_3 
REMARK    2  A    between atoms: C_5  and  C_3 
REMARK    3  A    between atoms: C_6  and  C_4 
REMARK    4  A    between atoms: C_7  and  C_5 
REMARK    5  A    between atoms: C_12  and  C_6 
REMARK    6  A    between atoms: C_15  and  C_7 
REMARK    7  A    between atoms: N_17  and  C_12 
REMARK    8  A    between atoms: C_16  and  C_13 
REMARK    9  A    between atoms: N_20  and  C_14 
REMARK   10  A    between atoms: O_21  and  C_15 
REMARK       I    between atoms: N_17  and  C_16 
REMARK   11  A    between atoms: N_18  and  O_23 
ROOT
HETATM    1  C   UNK N   1      19.449  15.311   5.583  0.00  0.00     0.123 C 
ENDROOT
BRANCH   1   2
HETATM    2  C   UNK N   1      20.432  15.393   4.432  0.00  0.00     0.020 C 
BRANCH   2   3
HETATM    3  C   UNK N   1      20.267  16.709   3.703  0.00  0.00     0.002 C 
BRANCH   3   4
HETATM    4  C   UNK N   1      21.626  17.344   3.473  0.00  0.00     0.000 C 
BRANCH   4   5
HETATM    5  C   UNK N   1      21.505  18.855   3.506  0.00  0.00     0.008 C 
BRANCH   5   6
HETATM    6  C   UNK N   1      20.399  19.328   2.577  0.00  0.00     0.086 C 
BRANCH   6   7
HETATM    7  C   UNK N   1      20.770  20.637   1.966  0.00  0.00     0.135 C 
HETATM    8  N   UNK N   1      20.369  20.926   0.780  0.00  0.00    -0.251 N 
ATOM      9  HN  UNK N   1      19.800  20.255   0.264  1.00  0.00     0.196 HD
BRANCH   8  10
HETATM   10  O   UNK N   1      20.682  22.078   0.224  0.00  0.00    -0.288 OA
HETATM   11  H   UNK N   1      21.473  22.528   0.444  0.00  0.00     0.244 HD
ENDBRANCH   8  10
BRANCH   7  12
HETATM   12  O   UNK N   1      21.520  21.514   2.666  0.00  0.00    -0.348 OA
HETATM   13  H   UNK N   1      22.348  21.253   3.017  0.00  0.00     0.219 HD
ENDBRANCH   7  12
ENDBRANCH   6   7
ENDBRANCH   5   6
ENDBRANCH   4   5
ENDBRANCH   3   4
ENDBRANCH   2   3
ENDBRANCH   1   2
BRANCH   1  14
HETATM   14  N   UNK N   1      19.585  16.474   6.427  0.00  0.00    -0.357 N 
HETATM   15  C   UNK N   1      20.345  16.536   7.558  0.00  0.00     0.251 C 
HETATM   16  O   UNK N   1      20.421  17.605   8.142  0.00  0.00    -0.268 OA
HETATM   17  H   UNK N   1      19.089  17.284   6.167  0.00  0.00     0.162 HD
BRANCH  15  18
HETATM   18  C   UNK N   1      21.083  15.359   8.121  0.00  0.00     0.032 A 
HETATM   19  C   UNK N   1      20.576  14.712   9.260  0.00  0.00     0.019 A 
HETATM   20  C   UNK N   1      21.235  13.605   9.804  0.00  0.00     0.030 A 
HETATM   21  C   UNK N   1      22.411  13.114   9.212  0.00  0.00     0.029 A 
HETATM   22  C   UNK N   1      22.913  13.756   8.072  0.00  0.00     0.030 A 
HETATM   23  C   UNK N   1      22.257  14.865   7.538  0.00  0.00     0.019 A 
BRANCH  21  24
HETATM   24  N   UNK N   1      23.085  11.980   9.759  0.00  0.00    -0.390 N 
HETATM   25  C   UNK N   1      23.253  11.837  11.183  0.00  0.00     0.149 C 
HETATM   26  C   UNK N   1      23.616  10.951   8.901  0.00  0.00     0.149 C 
ENDBRANCH  21  24
ENDBRANCH  15  18
ENDBRANCH   1  14
TORSDOF 11
ENDMDL
MODEL 9
REMARK VINA RESULT:      -5.7      2.553      3.679
REMARK  11 active torsions:
REMARK  status: ('A' for Active; 'I' for Inactive)
REMARK    1  A    between atoms: C_4  and  C_3 
REMARK    2  A    between atoms: C_5  and  C_3 
REMARK    3  A    between atoms: C_6  and  C_4 
REMARK    4  A    between atoms: C_7  and  C_5 
REMARK    5  A    between atoms: C_12  and  C_6 
REMARK    6  A    between atoms: C_15  and  C_7 
REMARK    7  A    between atoms: N_17  and  C_12 
REMARK    8  A    between atoms: C_16  and  C_13 
REMARK    9  A    between atoms: N_20  and  C_14 
REMARK   10  A    between atoms: O_21  and  C_15 
REMARK       I    between atoms: N_17  and  C_16 
REMARK   11  A    between atoms: N_18  and  O_23 
ROOT
HETATM    1  C   UNK N   1      25.370  17.816   4.820  0.00  0.00     0.123 C 
ENDROOT
BRANCH   1   2
HETATM    2  C   UNK N   1      24.081  17.648   4.041  0.00  0.00     0.020 C 
BRANCH   2   3
HETATM    3  C   UNK N   1      22.899  18.033   4.905  0.00  0.00     0.002 C 
BRANCH   3   4
HETATM    4  C   UNK N   1      21.608  17.806   4.141  0.00  0.00     0.000 C 
BRANCH   4   5
HETATM    5  C   UNK N   1      20.965  19.137   3.804  0.00  0.00     0.008 C 
BRANCH   5   6
HETATM    6  C   UNK N   1      20.853  19.316   2.299  0.00  0.00     0.086 C 
BRANCH   6   7
HETATM    7  C   UNK N   1      20.958  20.762   1.947  0.00  0.00     0.135 C 
HETATM    8  N   UNK N   1      20.337  21.217   0.919  0.00  0.00    -0.251 N 
ATOM      9  HN  UNK N   1      19.775  20.585   0.349  1.00  0.00     0.196 HD
BRANCH   8  10
HETATM   10  O   UNK N   1      20.414  22.491   0.593  0.00  0.00    -0.288 OA
HETATM   11  H   UNK N   1      21.015  23.068   1.020  0.00  0.00     0.244 HD
ENDBRANCH   8  10
BRANCH   7  12
HETATM   12  O   UNK N   1      21.702  21.585   2.715  0.00  0.00    -0.348 OA
HETATM   13  H   UNK N   1      21.292  22.260   3.219  0.00  0.00     0.219 HD
ENDBRANCH   7  12
ENDBRANCH   6   7
ENDBRANCH   5   6
ENDBRANCH   4   5
ENDBRANCH   3   4
ENDBRANCH   2   3
ENDBRANCH   1   2
BRANCH   1  14
HETATM   14  N   UNK N   1      25.738  19.211   4.865  0.00  0.00    -0.357 N 
HETATM   15  C   UNK N   1      26.952  19.687   5.265  0.00  0.00     0.251 C 
HETATM   16  O   UNK N   1      27.150  20.890   5.191  0.00  0.00    -0.268 OA
HETATM   17  H   UNK N   1      25.060  19.868   4.586  0.00  0.00     0.162 HD
BRANCH  15  18
HETATM   18  C   UNK N   1      28.047  18.814   5.796  0.00  0.00     0.032 A 
HETATM   19  C   UNK N   1      28.931  18.197   4.895  0.00  0.00     0.019 A 
HETATM   20  C   UNK N   1      29.971  17.385   5.360  0.00  0.00     0.030 A 
HETATM   21  C   UNK N   1      30.155  17.181   6.737  0.00  0.00     0.029 A 
HETATM   22  C   UNK N   1      29.277  17.802   7.636  0.00  0.00     0.030 A 
HETATM   23  C   UNK N   1      28.237  18.604   7.168  0.00  0.00     0.019 A 
BRANCH  21  24
HETATM   24  N   UNK N   1      31.219  16.358   7.218  0.00  0.00    -0.390 N 
HETATM   25  C   UNK N   1      31.633  16.418   8.597  0.00  0.00     0.149 C 
HETATM   26  C   UNK N   1      31.906  15.449   6.336  0.00  0.00     0.149 C 
ENDBRANCH  21  24
ENDBRANCH  15  18
ENDBRANCH   1  14
TORSDOF 11
ENDMDL
