MODEL 1
REMARK VINA RESULT:      -6.2      0.000      0.000
REMARK  5 active torsions:
REMARK  status: ('A' for Active; 'I' for Inactive)
REMARK    1  A    between atoms: C_9  and  C_5 
REMARK    2  A    between atoms: O_16  and  C_5 
REMARK    3  A    between atoms: C_10  and  C_6 
REMARK    4  A    between atoms: C_7  and  O_16 
REMARK    5  A    between atoms: C_8  and  O_11 
ROOT
HETATM    1  C   UNK N   1      32.579  17.401   5.232  0.00  0.00    -0.001 C 
HETATM    2  C   UNK N   1      33.661  17.636   6.220  0.00  0.00     0.016 C 
HETATM    3  C   UNK N   1      31.359  17.030   5.642  0.00  0.00     0.008 C 
HETATM    4  C   UNK N   1      33.393  17.698   7.543  0.00  0.00     0.050 C 
HETATM    5  C   UNK N   1      31.153  16.618   7.078  0.00  0.00     0.185 C 
HETATM    6  C   UNK N   1      31.953  17.538   8.020  0.00  0.00     0.191 C 
ENDROOT
BRANCH   5   7
HETATM    7  O   UNK N   1      29.820  16.635   7.462  0.00  0.00    -0.333 OA
BRANCH   7   8
HETATM    8  C   UNK N   1      29.062  17.730   7.764  0.00  0.00     0.136 C 
HETATM    9  C   UNK N   1      28.697  18.612   6.828  0.00  0.00     0.058 C 
BRANCH   8  10
HETATM   10  C   UNK N   1      28.639  17.916   9.166  0.00  0.00     0.233 C 
HETATM   11  O   UNK N   1      27.637  17.355   9.595  0.00  0.00    -0.642 OA
HETATM   12  O   UNK N   1      29.369  18.688   9.990  0.00  0.00    -0.642 OA
ENDBRANCH   8  10
ENDBRANCH   7   8
ENDBRANCH   5   7
BRANCH   6  13
HETATM   13  O   UNK N   1      31.913  16.996   9.308  0.00  0.00    -0.388 OA
HETATM   14  H   UNK N   1      32.222  16.154   9.678  0.00  0.00     0.210 HD
ENDBRANCH   6  13
BRANCH   4  15
HETATM   15  C   UNK N   1      34.466  18.121   8.481  0.00  0.00     0.207 C 
HETATM   16  O   UNK N   1      34.764  17.371   9.560  0.00  0.00    -0.644 OA
HETATM   17  O   UNK N   1      35.067  19.170   8.300  0.00  0.00    -0.644 OA
ENDBRANCH   4  15
TORSDOF 5
ENDMDL
MODEL 2
REMARK VINA RESULT:      -5.7      1.490      5.146
REMARK  5 active torsions:
REMARK  status: ('A' for Active; 'I' for Inactive)
REMARK    1  A    between atoms: C_9  and  C_5 
REMARK    2  A    between atoms: O_16  and  C_5 
REMARK    3  A    between atoms: C_10  and  C_6 
REMARK    4  A    between atoms: C_7  and  O_16 
REMARK    5  A    between atoms: C_8  and  O_11 
ROOT
HETATM    1  C   UNK N   1      30.447  16.066   6.134  0.00  0.00    -0.001 C 
HETATM    2  C   UNK N   1      29.355  16.958   6.595  0.00  0.00     0.016 C 
HETATM    3  C   UNK N   1      31.587  15.978   6.832  0.00  0.00     0.008 C 
HETATM    4  C   UNK N   1      29.389  17.523   7.821  0.00  0.00     0.050 C 
HETATM    5  C   UNK N   1      31.853  16.961   7.944  0.00  0.00     0.185 C 
HETATM    6  C   UNK N   1      30.564  17.225   8.747  0.00  0.00     0.191 C 
ENDROOT
BRANCH   5   7
HETATM    7  O   UNK N   1      32.845  16.539   8.816  0.00  0.00    -0.333 OA
BRANCH   7   8
HETATM    8  C   UNK N   1      34.134  16.987   8.881  0.00  0.00     0.136 C 
HETATM    9  C   UNK N   1      35.010  16.482   9.755  0.00  0.00     0.058 C 
BRANCH   8  10
HETATM   10  C   UNK N   1      34.548  18.050   7.943  0.00  0.00     0.233 C 
HETATM   11  O   UNK N   1      34.537  17.852   6.733  0.00  0.00    -0.642 OA
HETATM   12  O   UNK N   1      34.918  19.253   8.414  0.00  0.00    -0.642 OA
ENDBRANCH   8  10
ENDBRANCH   7   8
ENDBRANCH   5   7
BRANCH   6  13
HETATM   13  O   UNK N   1      30.796  18.293   9.617  0.00  0.00    -0.388 OA
HETATM   14  H   UNK N   1      31.264  19.137   9.516  0.00  0.00     0.210 HD
ENDBRANCH   6  13
BRANCH   4  15
HETATM   15  C   UNK N   1      28.193  18.254   8.317  0.00  0.00     0.207 C 
HETATM   16  O   UNK N   1      27.712  19.314   7.639  0.00  0.00    -0.644 OA
HETATM   17  O   UNK N   1      27.654  17.920   9.361  0.00  0.00    -0.644 OA
ENDBRANCH   4  15
TORSDOF 5
ENDMDL
MODEL 3
REMARK VINA RESULT:      -5.7      2.920      4.835
REMARK  5 active torsions:
REMARK  status: ('A' for Active; 'I' for Inactive)
REMARK    1  A    between atoms: C_9  and  C_5 
REMARK    2  A    between atoms: O_16  and  C_5 
REMARK    3  A    between atoms: C_10  and  C_6 
REMARK    4  A    between atoms: C_7  and  O_16 
REMARK    5  A    between atoms: C_8  and  O_11 
ROOT
HETATM    1  C   UNK N   1      31.001  17.470   7.972  0.00  0.00    -0.001 C 
HETATM    2  C   UNK N   1      32.253  18.033   8.535  0.00  0.00     0.016 C 
HETATM    3  C   UNK N   1      31.018  16.826   6.797  0.00  0.00     0.008 C 
HETATM    4  C   UNK N   1      33.455  17.727   8.000  0.00  0.00     0.050 C 
HETATM    5  C   UNK N   1      32.255  16.888   5.937  0.00  0.00     0.185 C 
HETATM    6  C   UNK N   1      33.521  16.776   6.809  0.00  0.00     0.191 C 
ENDROOT
BRANCH   5   7
HETATM    7  O   UNK N   1      32.292  15.896   4.968  0.00  0.00    -0.333 OA
BRANCH   7   8
HETATM    8  C   UNK N   1      32.687  16.027   3.667  0.00  0.00     0.136 C 
HETATM    9  C   UNK N   1      32.126  16.923   2.849  0.00  0.00     0.058 C 
BRANCH   8  10
HETATM   10  C   UNK N   1      33.770  15.150   3.179  0.00  0.00     0.233 C 
HETATM   11  O   UNK N   1      33.957  15.001   1.977  0.00  0.00    -0.642 OA
HETATM   12  O   UNK N   1      34.575  14.525   4.057  0.00  0.00    -0.642 OA
ENDBRANCH   8  10
ENDBRANCH   7   8
ENDBRANCH   5   7
BRANCH   6  13
HETATM   13  O   UNK N   1      34.634  17.055   6.011  0.00  0.00    -0.388 OA
HETATM   14  H   UNK N   1      34.993  17.878   5.644  0.00  0.00     0.210 HD
ENDBRANCH   6  13
BRANCH   4  15
HETATM   15  C   UNK N   1      34.693  18.157   8.704  0.00  0.00     0.207 C 
HETATM   16  O   UNK N   1      35.174  17.439   9.737  0.00  0.00    -0.644 OA
HETATM   17  O   UNK N   1      35.266  19.184   8.372  0.00  0.00    -0.644 OA
ENDBRANCH   4  15
TORSDOF 5
ENDMDL
MODEL 4
REMARK VINA RESULT:      -5.7      4.159      6.489
REMARK  5 active torsions:
REMARK  status: ('A' for Active; 'I' for Inactive)
REMARK    1  A    between atoms: C_9  and  C_5 
REMARK    2  A    between atoms: O_16  and  C_5 
REMARK    3  A    between atoms: C_10  and  C_6 
REMARK    4  A    between atoms: C_7  and  O_16 
REMARK    5  A    between atoms: C_8  and  O_11 
ROOT
HETATM    1  C   UNK N   1      33.740  14.409   8.606  0.00  0.00    -0.001 C 
HETATM    2  C   UNK N   1      34.001  15.707   7.936  0.00  0.00     0.016 C 
HETATM    3  C   UNK N   1      34.224  14.173   9.833  0.00  0.00     0.008 C 
HETATM    4  C   UNK N   1      34.534  16.746   8.616  0.00  0.00     0.050 C 
HETATM    5  C   UNK N   1      35.232  15.123  10.427  0.00  0.00     0.185 C 
HETATM    6  C   UNK N   1      34.854  16.581  10.098  0.00  0.00     0.191 C 
ENDROOT
BRANCH   5   7
HETATM    7  O   UNK N   1      35.355  14.993  11.803  0.00  0.00    -0.333 OA
BRANCH   7   8
HETATM    8  C   UNK N   1      36.105  14.076  12.482  0.00  0.00     0.136 C 
HETATM    9  C   UNK N   1      37.042  13.344  11.872  0.00  0.00     0.058 C 
BRANCH   8  10
HETATM   10  C   UNK N   1      35.860  13.914  13.929  0.00  0.00     0.233 C 
HETATM   11  O   UNK N   1      34.820  13.405  14.332  0.00  0.00    -0.642 OA
HETATM   12  O   UNK N   1      36.792  14.305  14.816  0.00  0.00    -0.642 OA
ENDBRANCH   8  10
ENDBRANCH   7   8
ENDBRANCH   5   7
BRANCH   6  13
HETATM   13  O   UNK N   1      35.916  17.408  10.473  0.00  0.00    -0.388 OA
HETATM   14  H   UNK N   1      36.840  17.229  10.711  0.00  0.00     0.210 HD
ENDBRANCH   6  13
BRANCH   4  15
HETATM   15  C   UNK N   1      34.605  18.080   7.963  0.00  0.00     0.207 C 
HETATM   16  O   UNK N   1      35.240  19.102   8.568  0.00  0.00    -0.644 OA
HETATM   17  O   UNK N   1      34.060  18.270   6.886  0.00  0.00    -0.644 OA
ENDBRANCH   4  15
TORSDOF 5
ENDMDL
MODEL 5
REMARK VINA RESULT:      -5.6     13.419     15.000
REMARK  5 active torsions:
REMARK  status: ('A' for Active; 'I' for Inactive)
REMARK    1  A    between atoms: C_9  and  C_5 
REMARK    2  A    between atoms: O_16  and  C_5 
REMARK    3  A    between atoms: C_10  and  C_6 
REMARK    4  A    between atoms: C_7  and  O_16 
REMARK    5  A    between atoms: C_8  and  O_11 
ROOT
HETATM    1  C   UNK N   1      28.931  26.755  -5.966  0.00  0.00    -0.001 C 
HETATM    2  C   UNK N   1      27.808  27.476  -5.318  0.00  0.00     0.016 C 
HETATM    3  C   UNK N   1      29.225  25.499  -5.606  0.00  0.00     0.008 C 
HETATM    4  C   UNK N   1      26.931  26.826  -4.524  0.00  0.00     0.050 C 
HETATM    5  C   UNK N   1      28.575  24.909  -4.380  0.00  0.00     0.185 C 
HETATM    6  C   UNK N   1      27.093  25.325  -4.306  0.00  0.00     0.191 C 
ENDROOT
BRANCH   5   7
HETATM    7  O   UNK N   1      28.653  23.525  -4.337  0.00  0.00    -0.333 OA
BRANCH   7   8
HETATM    8  C   UNK N   1      29.454  22.767  -3.532  0.00  0.00     0.136 C 
HETATM    9  C   UNK N   1      30.325  21.886  -4.036  0.00  0.00     0.058 C 
BRANCH   8  10
HETATM   10  C   UNK N   1      29.343  22.950  -2.071  0.00  0.00     0.233 C 
HETATM   11  O   UNK N   1      28.244  23.010  -1.532  0.00  0.00    -0.642 OA
HETATM   12  O   UNK N   1      30.454  23.031  -1.318  0.00  0.00    -0.642 OA
ENDBRANCH   8  10
ENDBRANCH   7   8
ENDBRANCH   5   7
BRANCH   6  13
HETATM   13  O   UNK N   1      26.589  24.946  -3.058  0.00  0.00    -0.388 OA
HETATM   14  H   UNK N   1      26.057  24.190  -2.764  0.00  0.00     0.210 HD
ENDBRANCH   6  13
BRANCH   4  15
HETATM   15  C   UNK N   1      25.716  27.540  -4.048  0.00  0.00     0.207 C 
HETATM   16  O   UNK N   1      25.526  27.760  -2.732  0.00  0.00    -0.644 OA
HETATM   17  O   UNK N   1      24.863  27.905  -4.843  0.00  0.00    -0.644 OA
ENDBRANCH   4  15
TORSDOF 5
ENDMDL
MODEL 6
REMARK VINA RESULT:      -5.6      8.685     10.962
REMARK  5 active torsions:
REMARK  status: ('A' for Active; 'I' for Inactive)
REMARK    1  A    between atoms: C_9  and  C_5 
REMARK    2  A    between atoms: O_16  and  C_5 
REMARK    3  A    between atoms: C_10  and  C_6 
REMARK    4  A    between atoms: C_7  and  O_16 
REMARK    5  A    between atoms: C_8  and  O_11 
ROOT
HETATM    1  C   UNK N   1      21.210  13.051  10.219  0.00  0.00    -0.001 C 
HETATM    2  C   UNK N   1      22.505  13.067   9.495  0.00  0.00     0.016 C 
HETATM    3  C   UNK N   1      20.263  13.953   9.928  0.00  0.00     0.008 C 
HETATM    4  C   UNK N   1      22.678  13.833   8.395  0.00  0.00     0.050 C 
HETATM    5  C   UNK N   1      20.603  15.127   9.045  0.00  0.00     0.185 C 
HETATM    6  C   UNK N   1      21.515  14.679   7.886  0.00  0.00     0.191 C 
ENDROOT
BRANCH   5   7
HETATM    7  O   UNK N   1      19.483  15.751   8.516  0.00  0.00    -0.333 OA
BRANCH   7   8
HETATM    8  C   UNK N   1      18.962  16.960   8.880  0.00  0.00     0.136 C 
HETATM    9  C   UNK N   1      17.697  17.084   9.294  0.00  0.00     0.058 C 
BRANCH   8  10
HETATM   10  C   UNK N   1      19.843  18.143   8.814  0.00  0.00     0.233 C 
HETATM   11  O   UNK N   1      20.528  18.355   7.820  0.00  0.00    -0.642 OA
HETATM   12  O   UNK N   1      19.879  19.011   9.840  0.00  0.00    -0.642 OA
ENDBRANCH   8  10
ENDBRANCH   7   8
ENDBRANCH   5   7
BRANCH   6  13
HETATM   13  O   UNK N   1      21.982  15.819   7.225  0.00  0.00    -0.388 OA
HETATM   14  H   UNK N   1      22.357  15.962   6.342  0.00  0.00     0.210 HD
ENDBRANCH   6  13
BRANCH   4  15
HETATM   15  C   UNK N   1      23.920  13.679   7.593  0.00  0.00     0.207 C 
HETATM   16  O   UNK N   1      23.878  13.759   6.249  0.00  0.00    -0.644 OA
HETATM   17  O   UNK N   1      24.986  13.445   8.143  0.00  0.00    -0.644 OA
ENDBRANCH   4  15
TORSDOF 5
ENDMDL
MODEL 7
REMARK VINA RESULT:      -5.5      1.523      1.998
REMARK  5 active torsions:
REMARK  status: ('A' for Active; 'I' for Inactive)
REMARK    1  A    between atoms: C_9  and  C_5 
REMARK    2  A    between atoms: O_16  and  C_5 
REMARK    3  A    between atoms: C_10  and  C_6 
REMARK    4  A    between atoms: C_7  and  O_16 
REMARK    5  A    between atoms: C_8  and  O_11 
ROOT
HETATM    1  C   UNK N   1      32.855  17.413   5.186  0.00  0.00    -0.001 C 
HETATM    2  C   UNK N   1      33.881  17.599   6.241  0.00  0.00     0.016 C 
HETATM    3  C   UNK N   1      31.580  17.170   5.519  0.00  0.00     0.008 C 
HETATM    4  C   UNK N   1      33.527  17.746   7.537  0.00  0.00     0.050 C 
HETATM    5  C   UNK N   1      31.237  16.845   6.951  0.00  0.00     0.185 C 
HETATM    6  C   UNK N   1      32.049  17.735   7.912  0.00  0.00     0.191 C 
ENDROOT
BRANCH   5   7
HETATM    7  O   UNK N   1      29.888  16.996   7.233  0.00  0.00    -0.333 OA
BRANCH   7   8
HETATM    8  C   UNK N   1      28.844  16.897   6.358  0.00  0.00     0.136 C 
HETATM    9  C   UNK N   1      28.515  15.734   5.786  0.00  0.00     0.058 C 
BRANCH   8  10
HETATM   10  C   UNK N   1      28.069  18.118   6.060  0.00  0.00     0.233 C 
HETATM   11  O   UNK N   1      28.164  19.107   6.779  0.00  0.00    -0.642 OA
HETATM   12  O   UNK N   1      27.269  18.158   4.981  0.00  0.00    -0.642 OA
ENDBRANCH   8  10
ENDBRANCH   7   8
ENDBRANCH   5   7
BRANCH   6  13
HETATM   13  O   UNK N   1      31.869  17.259   9.214  0.00  0.00    -0.388 OA
HETATM   14  H   UNK N   1      31.100  16.901   9.685  0.00  0.00     0.210 HD
ENDBRANCH   6  13
BRANCH   4  15
HETATM   15  C   UNK N   1      34.566  18.117   8.535  0.00  0.00     0.207 C 
HETATM   16  O   UNK N   1      34.760  17.359   9.631  0.00  0.00    -0.644 OA
HETATM   17  O   UNK N   1      35.230  19.132   8.385  0.00  0.00    -0.644 OA
ENDBRANCH   4  15
TORSDOF 5
ENDMDL
MODEL 8
REMARK VINA RESULT:      -5.5      1.679      5.062
REMARK  5 active torsions:
REMARK  status: ('A' for Active; 'I' for Inactive)
REMARK    1  A    between atoms: C_9  and  C_5 
REMARK    2  A    between atoms: O_16  and  C_5 
REMARK    3  A    between atoms: C_10  and  C_6 
REMARK    4  A    between atoms: C_7  and  O_16 
REMARK    5  A    between atoms: C_8  and  O_11 
ROOT
HETATM    1  C   UNK N   1      28.261  17.631   5.371  0.00  0.00    -0.001 C 
HETATM    2  C   UNK N   1      28.098  18.056   6.783  0.00  0.00     0.016 C 
HETATM    3  C   UNK N   1      29.435  17.151   4.940  0.00  0.00     0.008 C 
HETATM    4  C   UNK N   1      29.041  17.771   7.708  0.00  0.00     0.050 C 
HETATM    5  C   UNK N   1      30.653  17.272   5.822  0.00  0.00     0.185 C 
HETATM    6  C   UNK N   1      30.281  16.987   7.291  0.00  0.00     0.191 C 
ENDROOT
BRANCH   5   7
HETATM    7  O   UNK N   1      31.681  16.420   5.448  0.00  0.00    -0.333 OA
BRANCH   7   8
HETATM    8  C   UNK N   1      32.875  16.765   4.882  0.00  0.00     0.136 C 
HETATM    9  C   UNK N   1      32.996  16.970   3.567  0.00  0.00     0.058 C 
BRANCH   8  10
HETATM   10  C   UNK N   1      34.045  16.916   5.770  0.00  0.00     0.233 C 
HETATM   11  O   UNK N   1      34.954  16.094   5.748  0.00  0.00    -0.642 OA
HETATM   12  O   UNK N   1      34.130  17.975   6.593  0.00  0.00    -0.642 OA
ENDBRANCH   8  10
ENDBRANCH   7   8
ENDBRANCH   5   7
BRANCH   6  13
HETATM   13  O   UNK N   1      31.374  17.320   8.096  0.00  0.00    -0.388 OA
HETATM   14  H   UNK N   1      32.328  17.372   7.925  0.00  0.00     0.210 HD
ENDBRANCH   6  13
BRANCH   4  15
HETATM   15  C   UNK N   1      28.757  18.046   9.141  0.00  0.00     0.207 C 
HETATM   16  O   UNK N   1      29.626  18.758   9.884  0.00  0.00    -0.644 OA
HETATM   17  O   UNK N   1      27.748  17.600   9.667  0.00  0.00    -0.644 OA
ENDBRANCH   4  15
TORSDOF 5
ENDMDL
MODEL 9
REMARK VINA RESULT:      -5.3      6.290      9.509
REMARK  5 active torsions:
REMARK  status: ('A' for Active; 'I' for Inactive)
REMARK    1  A    between atoms: C_9  and  C_5 
REMARK    2  A    between atoms: O_16  and  C_5 
REMARK    3  A    between atoms: C_10  and  C_6 
REMARK    4  A    between atoms: C_7  and  O_16 
REMARK    5  A    between atoms: C_8  and  O_11 
ROOT
HETATM    1  C   UNK N   1      23.658  17.844   4.703  0.00  0.00    -0.001 C 
HETATM    2  C   UNK N   1      22.594  18.547   3.944  0.00  0.00     0.016 C 
HETATM    3  C   UNK N   1      24.940  18.203   4.559  0.00  0.00     0.008 C 
HETATM    4  C   UNK N   1      22.859  19.688   3.271  0.00  0.00     0.050 C 
HETATM    5  C   UNK N   1      25.325  19.149   3.450  0.00  0.00     0.185 C 
HETATM    6  C   UNK N   1      24.270  20.265   3.308  0.00  0.00     0.191 C 
ENDROOT
BRANCH   5   7
HETATM    7  O   UNK N   1      26.569  19.732   3.640  0.00  0.00    -0.333 OA
BRANCH   7   8
HETATM    8  C   UNK N   1      27.187  19.990   4.830  0.00  0.00     0.136 C 
HETATM    9  C   UNK N   1      26.973  21.126   5.501  0.00  0.00     0.058 C 
BRANCH   8  10
HETATM   10  C   UNK N   1      28.103  18.967   5.373  0.00  0.00     0.233 C 
HETATM   11  O   UNK N   1      28.746  18.244   4.620  0.00  0.00    -0.642 OA
HETATM   12  O   UNK N   1      28.255  18.839   6.702  0.00  0.00    -0.642 OA
ENDBRANCH   8  10
ENDBRANCH   7   8
ENDBRANCH   5   7
BRANCH   6  13
HETATM   13  O   UNK N   1      24.544  20.986   2.142  0.00  0.00    -0.388 OA
HETATM   14  H   UNK N   1      24.526  21.933   1.933  0.00  0.00     0.210 HD
ENDBRANCH   6  13
BRANCH   4  15
HETATM   15  C   UNK N   1      21.733  20.460   2.683  0.00  0.00     0.207 C 
HETATM   16  O   UNK N   1      21.742  20.792   1.377  0.00  0.00    -0.644 OA
HETATM   17  O   UNK N   1      20.804  20.830   3.386  0.00  0.00    -0.644 OA
ENDBRANCH   4  15
TORSDOF 5
ENDMDL
