MODEL 1
REMARK VINA RESULT:      -5.4      0.000      0.000
REMARK  7 active torsions:
REMARK  status: ('A' for Active; 'I' for Inactive)
REMARK    1  A    between atoms: C_2  and  C_1 
REMARK    2  A    between atoms: O_13  and  C_1 
REMARK    3  A    between atoms: C_3  and  O_14 
REMARK    4  A    between atoms: C_4  and  O_15 
REMARK    5  A    between atoms: C_5  and  O_16 
REMARK    6  A    between atoms: O_17  and  C_6 
REMARK    7  A    between atoms: S_19  and  C_7 
ROOT
HETATM    1  C   UNK N   1      36.762  14.545  10.187  0.00  0.00     0.180 C 
HETATM    2  C   UNK N   1      36.199  13.567  11.262  0.00  0.00     0.180 C 
HETATM    3  C   UNK N   1      34.653  13.541  11.246  0.00  0.00     0.183 C 
HETATM    4  C   UNK N   1      34.155  14.961  10.977  0.00  0.00     0.213 C 
HETATM    5  C   UNK N   1      34.856  16.938   9.518  0.00  0.00     0.178 A 
HETATM    6  C   UNK N   1      33.325  16.458   8.101  0.00  0.00     0.141 A 
HETATM    7  C   UNK N   1      34.674  15.431   9.574  0.00  0.00     0.232 A 
HETATM    8  N   UNK N   1      34.073  17.482   8.677  0.00  0.00    -0.317 N 
ATOM      9  HN  UNK N   1      34.006  18.478   8.465  1.00  0.00     0.170 HD
HETATM   10  N   UNK N   1      33.630  15.300   8.566  0.00  0.00    -0.330 N 
ATOM     11  HN  UNK N   1      33.205  14.420   8.272  1.00  0.00     0.165 HD
HETATM   12  O   UNK N   1      35.843  14.730   9.127  0.00  0.00    -0.341 OA
ENDROOT
BRANCH   4  13
HETATM   13  O   UNK N   1      32.759  15.027  11.058  0.00  0.00    -0.387 OA
HETATM   14  H   UNK N   1      32.220  14.271  10.777  0.00  0.00     0.210 HD
ENDBRANCH   4  13
BRANCH   5  15
HETATM   15  O   UNK N   1      35.729  17.644  10.260  0.00  0.00    -0.345 OA
HETATM   16  H   UNK N   1      35.822  18.193  11.014  0.00  0.00     0.219 HD
ENDBRANCH   5  15
BRANCH   3  17
HETATM   17  O   UNK N   1      34.194  12.691  10.232  0.00  0.00    -0.390 OA
HETATM   18  H   UNK N   1      33.678  12.061   9.706  0.00  0.00     0.210 HD
ENDBRANCH   3  17
BRANCH   6  19
HETATM   19  S   UNK N   1      32.054  16.735   6.876  0.00  0.00    -0.107 SA
HETATM   20  H   UNK N   1      31.126  15.872   6.385  0.00  0.00     0.110 HD
ENDBRANCH   6  19
BRANCH   1  21
HETATM   21  C   UNK N   1      38.114  14.115   9.627  0.00  0.00     0.198 C 
BRANCH  21  22
HETATM   22  O   UNK N   1      38.958  13.682  10.651  0.00  0.00    -0.398 OA
HETATM   23  H   UNK N   1      39.897  13.811  10.853  0.00  0.00     0.209 HD
ENDBRANCH  21  22
ENDBRANCH   1  21
BRANCH   2  24
HETATM   24  O   UNK N   1      36.682  12.263  11.107  0.00  0.00    -0.390 OA
HETATM   25  H   UNK N   1      36.530  11.440  11.596  0.00  0.00     0.210 HD
ENDBRANCH   2  24
TORSDOF 7
ENDMDL
MODEL 2
REMARK VINA RESULT:      -5.4      6.005      7.956
REMARK  7 active torsions:
REMARK  status: ('A' for Active; 'I' for Inactive)
REMARK    1  A    between atoms: C_2  and  C_1 
REMARK    2  A    between atoms: O_13  and  C_1 
REMARK    3  A    between atoms: C_3  and  O_14 
REMARK    4  A    between atoms: C_4  and  O_15 
REMARK    5  A    between atoms: C_5  and  O_16 
REMARK    6  A    between atoms: O_17  and  C_6 
REMARK    7  A    between atoms: S_19  and  C_7 
ROOT
HETATM    1  C   UNK N   1      30.192  17.509   7.796  0.00  0.00     0.180 C 
HETATM    2  C   UNK N   1      29.802  18.599   8.840  0.00  0.00     0.180 C 
HETATM    3  C   UNK N   1      28.339  19.062   8.650  0.00  0.00     0.183 C 
HETATM    4  C   UNK N   1      28.044  19.109   7.151  0.00  0.00     0.213 C 
HETATM    5  C   UNK N   1      28.629  17.715   5.091  0.00  0.00     0.178 A 
HETATM    6  C   UNK N   1      26.693  16.805   5.136  0.00  0.00     0.141 A 
HETATM    7  C   UNK N   1      28.207  17.670   6.549  0.00  0.00     0.232 A 
HETATM    8  N   UNK N   1      27.744  17.221   4.323  0.00  0.00    -0.317 N 
ATOM      9  HN  UNK N   1      27.796  17.143   3.307  1.00  0.00     0.170 HD
HETATM   10  N   UNK N   1      26.909  17.030   6.381  0.00  0.00    -0.330 N 
ATOM     11  HN  UNK N   1      26.269  16.794   7.140  1.00  0.00     0.165 HD
HETATM   12  O   UNK N   1      29.053  16.813   7.328  0.00  0.00    -0.341 OA
ENDROOT
BRANCH   4  13
HETATM   13  O   UNK N   1      26.766  19.627   6.907  0.00  0.00    -0.387 OA
HETATM   14  H   UNK N   1      26.236  19.284   6.172  0.00  0.00     0.210 HD
ENDBRANCH   4  13
BRANCH   5  15
HETATM   15  O   UNK N   1      29.790  18.217   4.632  0.00  0.00    -0.345 OA
HETATM   16  H   UNK N   1      30.724  18.128   4.655  0.00  0.00     0.219 HD
ENDBRANCH   5  15
BRANCH   3  17
HETATM   17  O   UNK N   1      27.463  18.160   9.266  0.00  0.00    -0.390 OA
HETATM   18  H   UNK N   1      27.021  17.575   9.900  0.00  0.00     0.210 HD
ENDBRANCH   3  17
BRANCH   6  19
HETATM   19  S   UNK N   1      25.190  16.071   4.504  0.00  0.00    -0.107 SA
HETATM   20  H   UNK N   1      25.033  15.077   3.591  0.00  0.00     0.110 HD
ENDBRANCH   6  19
BRANCH   1  21
HETATM   21  C   UNK N   1      31.225  16.514   8.318  0.00  0.00     0.198 C 
BRANCH  21  22
HETATM   22  O   UNK N   1      32.268  17.180   8.963  0.00  0.00    -0.398 OA
HETATM   23  H   UNK N   1      32.958  16.910   9.589  0.00  0.00     0.209 HD
ENDBRANCH  21  22
ENDBRANCH   1  21
BRANCH   2  24
HETATM   24  O   UNK N   1      29.981  18.169  10.158  0.00  0.00    -0.390 OA
HETATM   25  H   UNK N   1      30.769  17.971  10.688  0.00  0.00     0.210 HD
ENDBRANCH   2  24
TORSDOF 7
ENDMDL
MODEL 3
REMARK VINA RESULT:      -5.4      3.009      4.640
REMARK  7 active torsions:
REMARK  status: ('A' for Active; 'I' for Inactive)
REMARK    1  A    between atoms: C_2  and  C_1 
REMARK    2  A    between atoms: O_13  and  C_1 
REMARK    3  A    between atoms: C_3  and  O_14 
REMARK    4  A    between atoms: C_4  and  O_15 
REMARK    5  A    between atoms: C_5  and  O_16 
REMARK    6  A    between atoms: O_17  and  C_6 
REMARK    7  A    between atoms: S_19  and  C_7 
ROOT
HETATM    1  C   UNK N   1      34.549  16.465   8.744  0.00  0.00     0.180 C 
HETATM    2  C   UNK N   1      33.224  15.785   8.283  0.00  0.00     0.180 C 
HETATM    3  C   UNK N   1      32.830  14.624   9.225  0.00  0.00     0.183 C 
HETATM    4  C   UNK N   1      34.107  13.901   9.651  0.00  0.00     0.213 C 
HETATM    5  C   UNK N   1      36.499  14.552  10.274  0.00  0.00     0.178 A 
HETATM    6  C   UNK N   1      36.038  14.324  12.351  0.00  0.00     0.141 A 
HETATM    7  C   UNK N   1      35.029  14.902  10.431  0.00  0.00     0.232 A 
HETATM    8  N   UNK N   1      37.033  14.226  11.381  0.00  0.00    -0.317 N 
ATOM      9  HN  UNK N   1      38.003  13.947  11.529  1.00  0.00     0.170 HD
HETATM   10  N   UNK N   1      34.910  14.701  11.869  0.00  0.00    -0.330 N 
ATOM     11  HN  UNK N   1      34.058  14.842  12.412  1.00  0.00     0.165 HD
HETATM   12  O   UNK N   1      34.769  16.280  10.129  0.00  0.00    -0.341 OA
ENDROOT
BRANCH   4  13
HETATM   13  O   UNK N   1      33.811  12.769  10.419  0.00  0.00    -0.387 OA
HETATM   14  H   UNK N   1      32.969  12.305  10.295  0.00  0.00     0.210 HD
ENDBRANCH   4  13
BRANCH   5  15
HETATM   15  O   UNK N   1      37.183  14.568   9.115  0.00  0.00    -0.345 OA
HETATM   16  H   UNK N   1      37.831  15.028   8.616  0.00  0.00     0.219 HD
ENDBRANCH   5  15
BRANCH   3  17
HETATM   17  O   UNK N   1      32.180  15.122  10.361  0.00  0.00    -0.390 OA
HETATM   18  H   UNK N   1      31.534  15.512  10.970  0.00  0.00     0.210 HD
ENDBRANCH   3  17
BRANCH   6  19
HETATM   19  S   UNK N   1      36.302  13.928  14.074  0.00  0.00    -0.107 SA
HETATM   20  H   UNK N   1      37.332  13.263  14.659  0.00  0.00     0.110 HD
ENDBRANCH   6  19
BRANCH   1  21
HETATM   21  C   UNK N   1      34.615  17.951   8.406  0.00  0.00     0.198 C 
BRANCH  21  22
HETATM   22  O   UNK N   1      34.513  18.149   7.028  0.00  0.00    -0.398 OA
HETATM   23  H   UNK N   1      34.183  18.872   6.471  0.00  0.00     0.209 HD
ENDBRANCH  21  22
ENDBRANCH   1  21
BRANCH   2  24
HETATM   24  O   UNK N   1      32.159  16.688   8.197  0.00  0.00    -0.390 OA
HETATM   25  H   UNK N   1      31.494  16.863   7.513  0.00  0.00     0.210 HD
ENDBRANCH   2  24
TORSDOF 7
ENDMDL
MODEL 4
REMARK VINA RESULT:      -5.2      2.998      5.312
REMARK  7 active torsions:
REMARK  status: ('A' for Active; 'I' for Inactive)
REMARK    1  A    between atoms: C_2  and  C_1 
REMARK    2  A    between atoms: O_13  and  C_1 
REMARK    3  A    between atoms: C_3  and  O_14 
REMARK    4  A    between atoms: C_4  and  O_15 
REMARK    5  A    between atoms: C_5  and  O_16 
REMARK    6  A    between atoms: O_17  and  C_6 
REMARK    7  A    between atoms: S_19  and  C_7 
ROOT
HETATM    1  C   UNK N   1      32.165  15.791   7.562  0.00  0.00     0.180 C 
HETATM    2  C   UNK N   1      32.311  17.288   7.151  0.00  0.00     0.180 C 
HETATM    3  C   UNK N   1      33.667  17.869   7.613  0.00  0.00     0.183 C 
HETATM    4  C   UNK N   1      33.998  17.279   8.983  0.00  0.00     0.213 C 
HETATM    5  C   UNK N   1      33.751  15.018  10.148  0.00  0.00     0.178 A 
HETATM    6  C   UNK N   1      35.820  14.594   9.803  0.00  0.00     0.141 A 
HETATM    7  C   UNK N   1      34.125  15.720   8.855  0.00  0.00     0.232 A 
HETATM    8  N   UNK N   1      34.737  14.396  10.656  0.00  0.00    -0.317 N 
ATOM      9  HN  UNK N   1      34.734  13.855  11.521  1.00  0.00     0.170 HD
HETATM   10  N   UNK N   1      35.525  15.319   8.787  0.00  0.00    -0.330 N 
ATOM     11  HN  UNK N   1      36.172  15.576   8.041  1.00  0.00     0.165 HD
HETATM   12  O   UNK N   1      33.428  15.176   7.725  0.00  0.00    -0.341 OA
ENDROOT
BRANCH   4  13
HETATM   13  O   UNK N   1      35.165  17.849   9.507  0.00  0.00    -0.387 OA
HETATM   14  H   UNK N   1      36.030  17.466   9.294  0.00  0.00     0.210 HD
ENDBRANCH   4  13
BRANCH   5  15
HETATM   15  O   UNK N   1      32.532  15.036  10.719  0.00  0.00    -0.345 OA
HETATM   16  H   UNK N   1      31.635  14.781  10.615  0.00  0.00     0.219 HD
ENDBRANCH   5  15
BRANCH   3  17
HETATM   17  O   UNK N   1      34.676  17.522   6.705  0.00  0.00    -0.390 OA
HETATM   18  H   UNK N   1      35.531  17.362   6.277  0.00  0.00     0.210 HD
ENDBRANCH   3  17
BRANCH   6  19
HETATM   19  S   UNK N   1      37.452  13.937  10.116  0.00  0.00    -0.107 SA
HETATM   20  H   UNK N   1      38.502  13.791   9.265  0.00  0.00     0.110 HD
ENDBRANCH   6  19
BRANCH   1  21
HETATM   21  C   UNK N   1      31.319  14.977   6.587  0.00  0.00     0.198 C 
BRANCH  21  22
HETATM   22  O   UNK N   1      31.780  13.662   6.512  0.00  0.00    -0.398 OA
HETATM   23  H   UNK N   1      31.483  12.819   6.887  0.00  0.00     0.209 HD
ENDBRANCH  21  22
ENDBRANCH   1  21
BRANCH   2  24
HETATM   24  O   UNK N   1      32.172  17.483   5.773  0.00  0.00    -0.390 OA
HETATM   25  H   UNK N   1      32.733  17.258   5.015  0.00  0.00     0.210 HD
ENDBRANCH   2  24
TORSDOF 7
ENDMDL
MODEL 5
REMARK VINA RESULT:      -5.2      2.364      3.583
REMARK  7 active torsions:
REMARK  status: ('A' for Active; 'I' for Inactive)
REMARK    1  A    between atoms: C_2  and  C_1 
REMARK    2  A    between atoms: O_13  and  C_1 
REMARK    3  A    between atoms: C_3  and  O_14 
REMARK    4  A    between atoms: C_4  and  O_15 
REMARK    5  A    between atoms: C_5  and  O_16 
REMARK    6  A    between atoms: O_17  and  C_6 
REMARK    7  A    between atoms: S_19  and  C_7 
ROOT
HETATM    1  C   UNK N   1      33.500  13.142   8.749  0.00  0.00     0.180 C 
HETATM    2  C   UNK N   1      34.544  13.432   9.870  0.00  0.00     0.180 C 
HETATM    3  C   UNK N   1      34.370  14.857  10.445  0.00  0.00     0.183 C 
HETATM    4  C   UNK N   1      34.006  15.794   9.295  0.00  0.00     0.213 C 
HETATM    5  C   UNK N   1      32.562  15.689   7.189  0.00  0.00     0.178 A 
HETATM    6  C   UNK N   1      31.014  16.789   8.174  0.00  0.00     0.141 A 
HETATM    7  C   UNK N   1      32.649  15.329   8.662  0.00  0.00     0.232 A 
HETATM    8  N   UNK N   1      31.629  16.520   6.954  0.00  0.00    -0.317 N 
ATOM      9  HN  UNK N   1      31.379  16.913   6.046  1.00  0.00     0.170 HD
HETATM   10  N   UNK N   1      31.544  16.145   9.150  0.00  0.00    -0.330 N 
ATOM     11  HN  UNK N   1      31.238  16.196  10.122  1.00  0.00     0.165 HD
HETATM   12  O   UNK N   1      32.347  13.947   8.897  0.00  0.00    -0.341 OA
ENDROOT
BRANCH   4  13
HETATM   13  O   UNK N   1      33.942  17.123   9.731  0.00  0.00    -0.387 OA
HETATM   14  H   UNK N   1      34.756  17.599   9.957  0.00  0.00     0.210 HD
ENDBRANCH   4  13
BRANCH   5  15
HETATM   15  O   UNK N   1      33.366  15.208   6.222  0.00  0.00    -0.345 OA
HETATM   16  H   UNK N   1      34.042  14.587   6.029  0.00  0.00     0.219 HD
ENDBRANCH   5  15
BRANCH   3  17
HETATM   17  O   UNK N   1      33.343  14.873  11.397  0.00  0.00    -0.390 OA
HETATM   18  H   UNK N   1      32.822  15.002  12.204  0.00  0.00     0.210 HD
ENDBRANCH   3  17
BRANCH   6  19
HETATM   19  S   UNK N   1      29.657  17.937   8.361  0.00  0.00    -0.107 SA
HETATM   20  H   UNK N   1      28.457  17.762   8.974  0.00  0.00     0.110 HD
ENDBRANCH   6  19
BRANCH   1  21
HETATM   21  C   UNK N   1      33.095  11.673   8.666  0.00  0.00     0.198 C 
BRANCH  21  22
HETATM   22  O   UNK N   1      32.097  11.383   9.598  0.00  0.00    -0.398 OA
HETATM   23  H   UNK N   1      32.011  10.740  10.319  0.00  0.00     0.209 HD
ENDBRANCH  21  22
ENDBRANCH   1  21
BRANCH   2  24
HETATM   24  O   UNK N   1      34.481  12.504  10.915  0.00  0.00    -0.390 OA
HETATM   25  H   UNK N   1      34.997  11.710  11.126  0.00  0.00     0.210 HD
ENDBRANCH   2  24
TORSDOF 7
ENDMDL
MODEL 6
REMARK VINA RESULT:      -5.1      2.315      2.994
REMARK  7 active torsions:
REMARK  status: ('A' for Active; 'I' for Inactive)
REMARK    1  A    between atoms: C_2  and  C_1 
REMARK    2  A    between atoms: O_13  and  C_1 
REMARK    3  A    between atoms: C_3  and  O_14 
REMARK    4  A    between atoms: C_4  and  O_15 
REMARK    5  A    between atoms: C_5  and  O_16 
REMARK    6  A    between atoms: O_17  and  C_6 
REMARK    7  A    between atoms: S_19  and  C_7 
ROOT
HETATM    1  C   UNK N   1      34.916  15.640   9.444  0.00  0.00     0.180 C 
HETATM    2  C   UNK N   1      33.707  15.378  10.393  0.00  0.00     0.180 C 
HETATM    3  C   UNK N   1      32.413  15.105   9.592  0.00  0.00     0.183 C 
HETATM    4  C   UNK N   1      32.409  16.017   8.367  0.00  0.00     0.213 C 
HETATM    5  C   UNK N   1      34.124  16.887   6.684  0.00  0.00     0.178 A 
HETATM    6  C   UNK N   1      33.463  15.451   5.241  0.00  0.00     0.141 A 
HETATM    7  C   UNK N   1      33.648  15.676   7.467  0.00  0.00     0.232 A 
HETATM    8  N   UNK N   1      33.999  16.723   5.429  0.00  0.00    -0.317 N 
ATOM      9  HN  UNK N   1      34.245  17.393   4.701  1.00  0.00     0.170 HD
HETATM   10  N   UNK N   1      33.256  14.832   6.346  0.00  0.00    -0.330 N 
ATOM     11  HN  UNK N   1      32.877  13.888   6.428  1.00  0.00     0.165 HD
HETATM   12  O   UNK N   1      34.719  15.040   8.179  0.00  0.00    -0.341 OA
ENDROOT
BRANCH   4  13
HETATM   13  O   UNK N   1      31.208  15.898   7.656  0.00  0.00    -0.387 OA
HETATM   14  H   UNK N   1      30.369  16.140   8.077  0.00  0.00     0.210 HD
ENDBRANCH   4  13
BRANCH   5  15
HETATM   15  O   UNK N   1      34.620  18.017   7.222  0.00  0.00    -0.345 OA
HETATM   16  H   UNK N   1      34.994  18.855   7.030  0.00  0.00     0.219 HD
ENDBRANCH   5  15
BRANCH   3  17
HETATM   17  O   UNK N   1      32.375  13.769   9.175  0.00  0.00    -0.390 OA
HETATM   18  H   UNK N   1      32.102  12.914   8.806  0.00  0.00     0.210 HD
ENDBRANCH   3  17
BRANCH   6  19
HETATM   19  S   UNK N   1      33.071  14.776   3.634  0.00  0.00    -0.107 SA
HETATM   20  H   UNK N   1      32.847  13.485   3.271  0.00  0.00     0.110 HD
ENDBRANCH   6  19
BRANCH   1  21
HETATM   21  C   UNK N   1      36.252  15.186  10.027  0.00  0.00     0.198 C 
BRANCH  21  22
HETATM   22  O   UNK N   1      36.725  16.112  10.958  0.00  0.00    -0.398 OA
HETATM   23  H   UNK N   1      36.463  17.011  11.210  0.00  0.00     0.209 HD
ENDBRANCH  21  22
ENDBRANCH   1  21
BRANCH   2  24
HETATM   24  O   UNK N   1      33.937  14.314  11.272  0.00  0.00    -0.390 OA
HETATM   25  H   UNK N   1      33.900  13.351  11.168  0.00  0.00     0.210 HD
ENDBRANCH   2  24
TORSDOF 7
ENDMDL
MODEL 7
REMARK VINA RESULT:      -5.1      8.440     10.138
REMARK  7 active torsions:
REMARK  status: ('A' for Active; 'I' for Inactive)
REMARK    1  A    between atoms: C_2  and  C_1 
REMARK    2  A    between atoms: O_13  and  C_1 
REMARK    3  A    between atoms: C_3  and  O_14 
REMARK    4  A    between atoms: C_4  and  O_15 
REMARK    5  A    between atoms: C_5  and  O_16 
REMARK    6  A    between atoms: O_17  and  C_6 
REMARK    7  A    between atoms: S_19  and  C_7 
ROOT
HETATM    1  C   UNK N   1      28.195  18.967   7.017  0.00  0.00     0.180 C 
HETATM    2  C   UNK N   1      27.346  20.269   6.895  0.00  0.00     0.180 C 
HETATM    3  C   UNK N   1      26.451  20.241   5.636  0.00  0.00     0.183 C 
HETATM    4  C   UNK N   1      27.235  19.573   4.507  0.00  0.00     0.213 C 
HETATM    5  C   UNK N   1      28.867  17.620   4.272  0.00  0.00     0.178 A 
HETATM    6  C   UNK N   1      27.300  16.379   3.508  0.00  0.00     0.141 A 
HETATM    7  C   UNK N   1      27.581  18.100   4.922  0.00  0.00     0.232 A 
HETATM    8  N   UNK N   1      28.666  16.650   3.476  0.00  0.00    -0.317 N 
ATOM      9  HN  UNK N   1      29.370  16.162   2.922  1.00  0.00     0.170 HD
HETATM   10  N   UNK N   1      26.659  17.158   4.302  0.00  0.00    -0.330 N 
ATOM     11  HN  UNK N   1      25.654  17.121   4.475  1.00  0.00     0.165 HD
HETATM   12  O   UNK N   1      27.582  17.887   6.341  0.00  0.00    -0.341 OA
ENDROOT
BRANCH   4  13
HETATM   13  O   UNK N   1      26.518  19.614   3.305  0.00  0.00    -0.387 OA
HETATM   14  H   UNK N   1      26.809  19.080   2.549  0.00  0.00     0.210 HD
ENDBRANCH   4  13
BRANCH   5  15
HETATM   15  O   UNK N   1      30.089  18.142   4.487  0.00  0.00    -0.345 OA
HETATM   16  H   UNK N   1      30.629  18.594   5.106  0.00  0.00     0.219 HD
ENDBRANCH   5  15
BRANCH   3  17
HETATM   17  O   UNK N   1      25.285  19.505   5.887  0.00  0.00    -0.390 OA
HETATM   18  H   UNK N   1      24.643  18.863   6.227  0.00  0.00     0.210 HD
ENDBRANCH   3  17
BRANCH   6  19
HETATM   19  S   UNK N   1      26.524  15.109   2.518  0.00  0.00    -0.107 SA
HETATM   20  H   UNK N   1      25.273  15.072   1.989  0.00  0.00     0.110 HD
ENDBRANCH   6  19
BRANCH   1  21
HETATM   21  C   UNK N   1      28.488  18.571   8.462  0.00  0.00     0.198 C 
BRANCH  21  22
HETATM   22  O   UNK N   1      27.325  18.140   9.101  0.00  0.00    -0.398 OA
HETATM   23  H   UNK N   1      26.855  17.294   9.151  0.00  0.00     0.209 HD
ENDBRANCH  21  22
ENDBRANCH   1  21
BRANCH   2  24
HETATM   24  O   UNK N   1      26.549  20.497   8.022  0.00  0.00    -0.390 OA
HETATM   25  H   UNK N   1      25.624  20.292   8.229  0.00  0.00     0.210 HD
ENDBRANCH   2  24
TORSDOF 7
ENDMDL
MODEL 8
REMARK VINA RESULT:      -5.0      3.098      4.676
REMARK  7 active torsions:
REMARK  status: ('A' for Active; 'I' for Inactive)
REMARK    1  A    between atoms: C_2  and  C_1 
REMARK    2  A    between atoms: O_13  and  C_1 
REMARK    3  A    between atoms: C_3  and  O_14 
REMARK    4  A    between atoms: C_4  and  O_15 
REMARK    5  A    between atoms: C_5  and  O_16 
REMARK    6  A    between atoms: O_17  and  C_6 
REMARK    7  A    between atoms: S_19  and  C_7 
ROOT
HETATM    1  C   UNK N   1      34.380  16.081   8.444  0.00  0.00     0.180 C 
HETATM    2  C   UNK N   1      34.587  17.098   9.607  0.00  0.00     0.180 C 
HETATM    3  C   UNK N   1      35.145  16.403  10.870  0.00  0.00     0.183 C 
HETATM    4  C   UNK N   1      34.489  15.028  10.988  0.00  0.00     0.213 C 
HETATM    5  C   UNK N   1      33.773  13.161   9.397  0.00  0.00     0.178 A 
HETATM    6  C   UNK N   1      35.520  12.034   9.907  0.00  0.00     0.141 A 
HETATM    7  C   UNK N   1      34.858  14.172   9.727  0.00  0.00     0.232 A 
HETATM    8  N   UNK N   1      34.185  11.964   9.515  0.00  0.00    -0.317 N 
ATOM      9  HN  UNK N   1      33.642  11.115   9.352  1.00  0.00     0.170 HD
HETATM   10  N   UNK N   1      35.937  13.241  10.032  0.00  0.00    -0.330 N 
ATOM     11  HN  UNK N   1      36.883  13.510  10.302  1.00  0.00     0.165 HD
HETATM   12  O   UNK N   1      35.227  14.957   8.585  0.00  0.00    -0.341 OA
ENDROOT
BRANCH   4  13
HETATM   13  O   UNK N   1      34.871  14.389  12.174  0.00  0.00    -0.387 OA
HETATM   14  H   UNK N   1      35.706  14.626  12.606  0.00  0.00     0.210 HD
ENDBRANCH   4  13
BRANCH   5  15
HETATM   15  O   UNK N   1      32.515  13.463   9.027  0.00  0.00    -0.345 OA
HETATM   16  H   UNK N   1      31.989  14.031   8.497  0.00  0.00     0.219 HD
ENDBRANCH   5  15
BRANCH   3  17
HETATM   17  O   UNK N   1      36.533  16.244  10.761  0.00  0.00    -0.390 OA
HETATM   18  H   UNK N   1      37.475  16.118  10.953  0.00  0.00     0.210 HD
ENDBRANCH   3  17
BRANCH   6  19
HETATM   19  S   UNK N   1      36.527  10.594  10.235  0.00  0.00    -0.107 SA
HETATM   20  H   UNK N   1      37.568  10.089   9.523  0.00  0.00     0.110 HD
ENDBRANCH   6  19
BRANCH   1  21
HETATM   21  C   UNK N   1      34.568  16.697   7.061  0.00  0.00     0.198 C 
BRANCH  21  22
HETATM   22  O   UNK N   1      33.847  17.888   6.950  0.00  0.00    -0.398 OA
HETATM   23  H   UNK N   1      32.914  18.126   7.065  0.00  0.00     0.209 HD
ENDBRANCH  21  22
ENDBRANCH   1  21
BRANCH   2  24
HETATM   24  O   UNK N   1      35.433  18.154   9.252  0.00  0.00    -0.390 OA
HETATM   25  H   UNK N   1      35.620  18.595   8.409  0.00  0.00     0.210 HD
ENDBRANCH   2  24
TORSDOF 7
ENDMDL
MODEL 9
REMARK VINA RESULT:      -5.0      1.671      3.221
REMARK  7 active torsions:
REMARK  status: ('A' for Active; 'I' for Inactive)
REMARK    1  A    between atoms: C_2  and  C_1 
REMARK    2  A    between atoms: O_13  and  C_1 
REMARK    3  A    between atoms: C_3  and  O_14 
REMARK    4  A    between atoms: C_4  and  O_15 
REMARK    5  A    between atoms: C_5  and  O_16 
REMARK    6  A    between atoms: O_17  and  C_6 
REMARK    7  A    between atoms: S_19  and  C_7 
ROOT
HETATM    1  C   UNK N   1      35.090  13.154  11.420  0.00  0.00     0.180 C 
HETATM    2  C   UNK N   1      36.583  13.242  10.980  0.00  0.00     0.180 C 
HETATM    3  C   UNK N   1      36.783  14.306   9.876  0.00  0.00     0.183 C 
HETATM    4  C   UNK N   1      35.574  14.257   8.942  0.00  0.00     0.213 C 
HETATM    5  C   UNK N   1      33.051  13.928   9.174  0.00  0.00     0.178 A 
HETATM    6  C   UNK N   1      32.739  16.036   8.973  0.00  0.00     0.141 A 
HETATM    7  C   UNK N   1      34.280  14.603   9.757  0.00  0.00     0.232 A 
HETATM    8  N   UNK N   1      32.206  14.771   8.737  0.00  0.00    -0.317 N 
ATOM      9  HN  UNK N   1      31.308  14.561   8.299  1.00  0.00     0.170 HD
HETATM   10  N   UNK N   1      33.889  15.990   9.543  0.00  0.00    -0.330 N 
ATOM     11  HN  UNK N   1      34.444  16.803   9.809  1.00  0.00     0.165 HD
HETATM   12  O   UNK N   1      34.406  14.366  11.166  0.00  0.00    -0.341 OA
ENDROOT
BRANCH   4  13
HETATM   13  O   UNK N   1      35.744  15.124   7.855  0.00  0.00    -0.387 OA
HETATM   14  H   UNK N   1      36.041  14.776   7.000  0.00  0.00     0.210 HD
ENDBRANCH   4  13
BRANCH   5  15
HETATM   15  O   UNK N   1      32.852  12.598   9.107  0.00  0.00    -0.345 OA
HETATM   16  H   UNK N   1      32.390  11.874   9.485  0.00  0.00     0.219 HD
ENDBRANCH   5  15
BRANCH   3  17
HETATM   17  O   UNK N   1      36.876  15.582  10.446  0.00  0.00    -0.390 OA
HETATM   18  H   UNK N   1      36.677  16.466  10.792  0.00  0.00     0.210 HD
ENDBRANCH   3  17
BRANCH   6  19
HETATM   19  S   UNK N   1      31.925  17.553   8.496  0.00  0.00    -0.107 SA
HETATM   20  H   UNK N   1      32.465  18.757   8.171  0.00  0.00     0.110 HD
ENDBRANCH   6  19
BRANCH   1  21
HETATM   21  C   UNK N   1      34.914  12.760  12.883  0.00  0.00     0.198 C 
BRANCH  21  22
HETATM   22  O   UNK N   1      35.148  13.852  13.721  0.00  0.00    -0.398 OA
HETATM   23  H   UNK N   1      35.938  14.354  13.972  0.00  0.00     0.209 HD
ENDBRANCH  21  22
ENDBRANCH   1  21
BRANCH   2  24
HETATM   24  O   UNK N   1      37.442  13.521  12.048  0.00  0.00    -0.390 OA
HETATM   25  H   UNK N   1      38.258  14.040  12.122  0.00  0.00     0.210 HD
ENDBRANCH   2  24
TORSDOF 7
ENDMDL
