MODEL 1
REMARK VINA RESULT:      -8.0      0.000      0.000
REMARK  30 active torsions:
REMARK  status: ('A' for Active; 'I' for Inactive)
REMARK    1  A    between atoms: C_4  and  C_60 
REMARK    2  A    between atoms: C_5  and  C_55 
REMARK    3  A    between atoms: C_6  and  C_21 
REMARK    4  A    between atoms: C_11  and  C_50 
REMARK    5  A    between atoms: C_22  and  C_30 
REMARK    6  A    between atoms: C_23  and  C_24 
REMARK    7  A    between atoms: C_24  and  C_25 
REMARK    8  A    between atoms: C_25  and  C_26 
REMARK       I    between atoms: C_26  and  N_28 
REMARK    9  A    between atoms: C_30  and  C_31 
REMARK       I    between atoms: C_31  and  N_33 
REMARK   10  A    between atoms: C_36  and  C_44 
REMARK   11  A    between atoms: C_37  and  C_38 
REMARK   12  A    between atoms: C_38  and  C_39 
REMARK   13  A    between atoms: C_39  and  C_40 
REMARK       I    between atoms: C_40  and  N_42 
REMARK   14  A    between atoms: C_44  and  C_45 
REMARK       I    between atoms: C_45  and  N_47 
REMARK   15  A    between atoms: C_50  and  C_51 
REMARK   16  A    between atoms: C_51  and  C_52 
REMARK       I    between atoms: C_52  and  N_54 
REMARK   17  A    between atoms: C_55  and  C_56 
REMARK       I    between atoms: C_56  and  N_58 
REMARK   18  A    between atoms: C_60  and  C_61 
REMARK   19  A    between atoms: C_61  and  C_62 
REMARK       I    between atoms: C_62  and  N_64 
REMARK   20  A    between atoms: N_64  and  C_65 
REMARK   21  A    between atoms: C_65  and  C_66 
REMARK   22  A    between atoms: C_66  and  O_68 
REMARK   23  A    between atoms: P_69  and  O_68 
REMARK   24  A    between atoms: P_69  and  O_72 
REMARK   25  A    between atoms: C_73  and  O_72 
REMARK   26  A    between atoms: C_74  and  C_91 
REMARK   27  A    between atoms: C_76  and  N_79 
REMARK   28  A    between atoms: C_77  and  O_78 
REMARK   29  A    between atoms: C_87  and  O_89 
REMARK   30  A    between atoms: C_91  and  O_92 
ROOT
HETATM    1  C   UNK N   1      26.748  13.203   6.014  0.00  0.00     0.022 C 
HETATM    2  C   UNK N   1      26.796  14.467   5.202  0.00  0.00     0.078 C 
HETATM    3  C   UNK N   1      27.686  15.396   5.553  0.00  0.00     0.031 C 
HETATM    4  C   UNK N   1      27.761  16.782   5.133  0.00  0.00     0.007 C 
HETATM    5  C   UNK N   1      28.787  17.036   6.390  0.00  0.00     0.059 C 
HETATM    6  C   UNK N   1      29.669  15.916   6.166  0.00  0.00     0.049 C 
HETATM    7  N   UNK N   1      28.969  15.103   5.522  0.00  0.00    -0.262 N 
HETATM    8 Co   UNK N   1      29.687  14.193   4.145  0.00  0.00     0.000 Co
HETATM    9  N   UNK N   1      27.975  13.757   3.381  0.00  0.00    -0.260 N 
HETATM   10  C   UNK N   1      26.854  14.113   3.853  0.00  0.00     0.027 C 
HETATM   11  C   UNK N   1      25.666  13.718   3.031  0.00  0.00     0.048 C 
HETATM   12  C   UNK N   1      26.334  12.683   2.124  0.00  0.00     0.006 C 
HETATM   13  C   UNK N   1      27.780  13.128   2.176  0.00  0.00     0.045 C 
HETATM   14  C   UNK N   1      28.787  12.625   1.446  0.00  0.00     0.055 C 
HETATM   15  C   UNK N   1      30.216  12.645   1.873  0.00  0.00     0.041 C 
HETATM   16  N   UNK N   1      30.627  13.254   2.910  0.00  0.00    -0.260 N 
HETATM   17  C   UNK N   1      31.872  12.770   3.298  0.00  0.00     0.031 C 
HETATM   18  C   UNK N   1      32.810  13.531   3.769  0.00  0.00     0.078 C 
HETATM   19  C   UNK N   1      32.415  14.474   4.768  0.00  0.00     0.022 C 
HETATM   20  N   UNK N   1      31.236  14.776   4.980  0.00  0.00    -0.280 N 
HETATM   21  C   UNK N   1      31.095  15.974   5.780  0.00  0.00     0.099 C 
HETATM   22  C   UNK N   1      32.402  16.003   6.611  0.00  0.00     0.005 C 
HETATM   23  C   UNK N   1      33.315  15.162   5.669  0.00  0.00     0.046 C 
HETATM   24  C   UNK N   1      32.131  15.466   8.013  0.00  0.00     0.019 C 
HETATM   25  C   UNK N   1      31.181  17.211   4.836  0.00  0.00     0.048 C 
HETATM   26  C   UNK N   1      33.482  14.257   2.641  0.00  0.00     0.022 C 
HETATM   27  C   UNK N   1      32.041  11.397   2.806  0.00  0.00     0.015 C 
HETATM   28  C   UNK N   1      31.268  11.611   1.453  0.00  0.00     0.052 C 
HETATM   29  C   UNK N   1      31.233  10.568   3.812  0.00  0.00     0.023 C 
HETATM   30  C   UNK N   1      26.197  11.447   2.997  0.00  0.00     0.022 C 
HETATM   31  C   UNK N   1      25.684  12.372   0.792  0.00  0.00     0.022 C 
HETATM   32  C   UNK N   1      28.552  16.979   3.814  0.00  0.00     0.022 C 
ENDROOT
BRANCH   4  33
HETATM   33  C   UNK N   1      26.431  17.129   4.503  0.00  0.00     0.025 C 
BRANCH  33  34
HETATM   34  C   UNK N   1      26.221  18.467   3.870  0.00  0.00     0.104 C 
BRANCH  34  35
HETATM   35  C   UNK N   1      25.470  19.404   4.744  0.00  0.00     0.217 C 
HETATM   36  O   UNK N   1      26.119  20.152   5.459  0.00  0.00    -0.274 OA
HETATM   37  N   UNK N   1      24.108  19.480   4.760  0.00  0.00    -0.359 N 
HETATM   38  H   UNK N   1      23.763  20.152   5.392  0.00  0.00     0.162 HD
BRANCH  37  39
HETATM   39  C   UNK N   1      23.042  18.763   4.028  0.00  0.00     0.154 C 
BRANCH  39  40
HETATM   40  C   UNK N   1      21.486  18.722   4.374  0.00  0.00     0.148 C 
HETATM   41  C   UNK N   1      20.672  19.760   3.627  0.00  0.00     0.042 C 
BRANCH  40  42
HETATM   42  O   UNK N   1      21.056  18.709   5.711  0.00  0.00    -0.283 OA
BRANCH  42  43
HETATM   43  P   UNK N   1      20.858  17.078   6.212  0.00  0.00     0.409 P 
HETATM   44  O   UNK N   1      19.355  16.776   6.097  0.00  0.00    -0.624 OA
HETATM   45  O   UNK N   1      21.103  16.817   7.912  0.00  0.00    -0.624 OA
BRANCH  43  46
HETATM   46  O   UNK N   1      21.511  15.861   5.156  0.00  0.00    -0.279 OA
BRANCH  46  47
HETATM   47  C   UNK N   1      21.726  14.704   5.942  0.00  0.00     0.198 C 
HETATM   48  C   UNK N   1      21.222  13.412   5.276  0.00  0.00     0.180 C 
HETATM   49  O   UNK N   1      22.054  12.317   5.597  0.00  0.00    -0.353 OA
HETATM   50  C   UNK N   1      23.028  12.838   6.492  0.00  0.00     0.261 C 
HETATM   51  C   UNK N   1      23.187  14.282   6.099  0.00  0.00     0.199 C 
BRANCH  48  52
HETATM   52  C   UNK N   1      19.735  13.131   4.969  0.00  0.00     0.198 C 
BRANCH  52  53
HETATM   53  O   UNK N   1      19.092  14.226   4.378  0.00  0.00    -0.398 OA
HETATM   54  H   UNK N   1      18.903  14.614   3.509  0.00  0.00     0.209 HD
ENDBRANCH  52  53
ENDBRANCH  48  52
BRANCH  50  55
HETATM   55  N   UNK N   1      22.495  12.886   7.841  0.00  0.00    -0.311 N 
HETATM   56  C   UNK N   1      21.180  12.962   8.144  0.00  0.00     0.186 A 
HETATM   57  N   UNK N   1      20.968  12.749   9.463  0.00  0.00    -0.350 N 
HETATM   58  C   UNK N   1      22.194  12.542   9.970  0.00  0.00     0.062 A 
ATOM     59  HN  UNK N   1      20.077  12.746   9.960  1.00  0.00     0.166 HD
HETATM   60  C   UNK N   1      23.123  12.647   9.000  0.00  0.00     0.064 A 
HETATM   61  C   UNK N   1      22.531  12.253  11.279  0.00  0.00     0.068 A 
HETATM   62  C   UNK N   1      24.479  12.462   9.258  0.00  0.00     0.035 A 
HETATM   63  C   UNK N   1      24.871  12.187  10.566  0.00  0.00     0.039 A 
HETATM   64  C   UNK N   1      23.895  12.096  11.588  0.00  0.00     0.070 A 
BRANCH  64  65
HETATM   65  O   UNK N   1      24.251  11.939  12.877  0.00  0.00    -0.356 OA
HETATM   66  C   UNK N   1      23.407  12.270  13.911  0.00  0.00     0.210 C 
ENDBRANCH  64  65
ENDBRANCH  50  55
BRANCH  51  67
HETATM   67  O   UNK N   1      23.994  15.081   6.913  0.00  0.00    -0.388 OA
HETATM   68  H   UNK N   1      23.775  15.962   7.255  0.00  0.00     0.210 HD
ENDBRANCH  51  67
ENDBRANCH  46  47
ENDBRANCH  43  46
ENDBRANCH  42  43
ENDBRANCH  40  42
ENDBRANCH  39  40
ENDBRANCH  37  39
ENDBRANCH  34  35
ENDBRANCH  33  34
ENDBRANCH   4  33
BRANCH   5  69
HETATM   69  C   UNK N   1      29.209  17.909   7.563  0.00  0.00     0.114 C 
BRANCH  69  70
HETATM   70  C   UNK N   1      28.059  18.268   8.424  0.00  0.00     0.216 C 
HETATM   71  O   UNK N   1      27.776  17.588   9.397  0.00  0.00    -0.274 OA
HETATM   72  N   UNK N   1      27.352  19.377   8.147  0.00  0.00    -0.370 N 
HETATM   73  H   UNK N   1      26.591  19.354   7.523  0.00  0.00     0.159 HD
HETATM   74  H   UNK N   1      27.600  20.228   8.575  0.00  0.00     0.159 HD
ENDBRANCH  69  70
ENDBRANCH   5  69
BRANCH  11  75
HETATM   75  C   UNK N   1      25.099  14.948   2.309  0.00  0.00     0.021 C 
BRANCH  75  76
HETATM   76  C   UNK N   1      23.689  15.277   2.800  0.00  0.00     0.103 C 
BRANCH  76  77
HETATM   77  C   UNK N   1      22.646  14.846   1.814  0.00  0.00     0.215 C 
HETATM   78  O   UNK N   1      22.966  14.530   0.680  0.00  0.00    -0.274 OA
HETATM   79  N   UNK N   1      21.345  14.865   2.165  0.00  0.00    -0.370 N 
HETATM   80  H   UNK N   1      20.725  14.122   1.986  0.00  0.00     0.159 HD
HETATM   81  H   UNK N   1      20.998  15.664   2.625  0.00  0.00     0.159 HD
ENDBRANCH  76  77
ENDBRANCH  75  76
ENDBRANCH  11  75
BRANCH  28  82
HETATM   82  C   UNK N   1      30.800  10.379   0.662  0.00  0.00     0.021 C 
BRANCH  82  83
HETATM   83  C   UNK N   1      30.921  10.475  -0.857  0.00  0.00     0.103 C 
BRANCH  83  84
HETATM   84  C   UNK N   1      32.097   9.728  -1.369  0.00  0.00     0.215 C 
HETATM   85  O   UNK N   1      32.539   9.971  -2.480  0.00  0.00    -0.274 OA
HETATM   86  N   UNK N   1      32.617   8.725  -0.634  0.00  0.00    -0.370 N 
HETATM   87  H   UNK N   1      32.513   8.340   0.266  0.00  0.00     0.159 HD
HETATM   88  H   UNK N   1      33.298   8.233  -1.147  0.00  0.00     0.159 HD
ENDBRANCH  83  84
ENDBRANCH  82  83
ENDBRANCH  28  82
BRANCH  27  89
HETATM   89  C   UNK N   1      33.394  10.698   2.970  0.00  0.00     0.118 C 
BRANCH  89  90
HETATM   90  C   UNK N   1      34.350  10.471   1.856  0.00  0.00     0.216 C 
HETATM   91  O   UNK N   1      34.795   9.361   1.623  0.00  0.00    -0.274 OA
HETATM   92  N   UNK N   1      34.528  11.452   0.962  0.00  0.00    -0.370 N 
HETATM   93  H   UNK N   1      34.598  12.401   1.215  0.00  0.00     0.159 HD
HETATM   94  H   UNK N   1      34.592  11.213   0.008  0.00  0.00     0.159 HD
ENDBRANCH  89  90
ENDBRANCH  27  89
BRANCH  23  95
HETATM   95  C   UNK N   1      34.396  14.302   6.294  0.00  0.00     0.020 C 
BRANCH  95  96
HETATM   96  C   UNK N   1      35.733  14.705   5.688  0.00  0.00     0.103 C 
BRANCH  96  97
HETATM   97  C   UNK N   1      36.479  13.517   5.138  0.00  0.00     0.215 C 
HETATM   98  O   UNK N   1      36.696  13.430   3.941  0.00  0.00    -0.274 OA
HETATM   99  N   UNK N   1      36.927  12.555   5.969  0.00  0.00    -0.370 N 
HETATM  100  H   UNK N   1      36.645  11.612   5.989  0.00  0.00     0.159 HD
HETATM  101  H   UNK N   1      37.609  12.825   6.626  0.00  0.00     0.159 HD
ENDBRANCH  96  97
ENDBRANCH  95  96
ENDBRANCH  23  95
BRANCH  22 102
HETATM  102  C   UNK N   1      33.271  17.268   6.612  0.00  0.00     0.115 C 
BRANCH 102 103
HETATM  103  C   UNK N   1      33.453  18.134   7.784  0.00  0.00     0.216 C 
HETATM  104  O   UNK N   1      32.506  18.667   8.315  0.00  0.00    -0.274 OA
HETATM  105  N   UNK N   1      34.686  18.272   8.306  0.00  0.00    -0.370 N 
HETATM  106  H   UNK N   1      35.558  17.875   8.078  0.00  0.00     0.159 HD
HETATM  107  H   UNK N   1      34.724  18.892   9.070  0.00  0.00     0.159 HD
ENDBRANCH 102 103
ENDBRANCH  22 102
TORSDOF 30
ENDMDL
MODEL 2
REMARK VINA RESULT:      -7.5      2.103      5.376
REMARK  30 active torsions:
REMARK  status: ('A' for Active; 'I' for Inactive)
REMARK    1  A    between atoms: C_4  and  C_60 
REMARK    2  A    between atoms: C_5  and  C_55 
REMARK    3  A    between atoms: C_6  and  C_21 
REMARK    4  A    between atoms: C_11  and  C_50 
REMARK    5  A    between atoms: C_22  and  C_30 
REMARK    6  A    between atoms: C_23  and  C_24 
REMARK    7  A    between atoms: C_24  and  C_25 
REMARK    8  A    between atoms: C_25  and  C_26 
REMARK       I    between atoms: C_26  and  N_28 
REMARK    9  A    between atoms: C_30  and  C_31 
REMARK       I    between atoms: C_31  and  N_33 
REMARK   10  A    between atoms: C_36  and  C_44 
REMARK   11  A    between atoms: C_37  and  C_38 
REMARK   12  A    between atoms: C_38  and  C_39 
REMARK   13  A    between atoms: C_39  and  C_40 
REMARK       I    between atoms: C_40  and  N_42 
REMARK   14  A    between atoms: C_44  and  C_45 
REMARK       I    between atoms: C_45  and  N_47 
REMARK   15  A    between atoms: C_50  and  C_51 
REMARK   16  A    between atoms: C_51  and  C_52 
REMARK       I    between atoms: C_52  and  N_54 
REMARK   17  A    between atoms: C_55  and  C_56 
REMARK       I    between atoms: C_56  and  N_58 
REMARK   18  A    between atoms: C_60  and  C_61 
REMARK   19  A    between atoms: C_61  and  C_62 
REMARK       I    between atoms: C_62  and  N_64 
REMARK   20  A    between atoms: N_64  and  C_65 
REMARK   21  A    between atoms: C_65  and  C_66 
REMARK   22  A    between atoms: C_66  and  O_68 
REMARK   23  A    between atoms: P_69  and  O_68 
REMARK   24  A    between atoms: P_69  and  O_72 
REMARK   25  A    between atoms: C_73  and  O_72 
REMARK   26  A    between atoms: C_74  and  C_91 
REMARK   27  A    between atoms: C_76  and  N_79 
REMARK   28  A    between atoms: C_77  and  O_78 
REMARK   29  A    between atoms: C_87  and  O_89 
REMARK   30  A    between atoms: C_91  and  O_92 
ROOT
HETATM    1  C   UNK N   1      29.181  10.940   4.911  0.00  0.00     0.022 C 
HETATM    2  C   UNK N   1      28.917  11.890   3.776  0.00  0.00     0.078 C 
HETATM    3  C   UNK N   1      28.506  13.122   4.082  0.00  0.00     0.031 C 
HETATM    4  C   UNK N   1      27.929  14.126   3.210  0.00  0.00     0.007 C 
HETATM    5  C   UNK N   1      27.435  14.917   4.561  0.00  0.00     0.059 C 
HETATM    6  C   UNK N   1      28.679  14.880   5.290  0.00  0.00     0.049 C 
HETATM    7  N   UNK N   1      29.286  13.901   4.803  0.00  0.00    -0.262 N 
HETATM    8 Co   UNK N   1      31.054  14.009   4.480  0.00  0.00     0.000 Co
HETATM    9  N   UNK N   1      31.045  12.528   3.252  0.00  0.00    -0.260 N 
HETATM   10  C   UNK N   1      30.018  11.861   2.921  0.00  0.00     0.027 C 
HETATM   11  C   UNK N   1      30.255  10.806   1.884  0.00  0.00     0.048 C 
HETATM   12  C   UNK N   1      31.783  10.742   1.949  0.00  0.00     0.006 C 
HETATM   13  C   UNK N   1      32.117  12.111   2.500  0.00  0.00     0.045 C 
HETATM   14  C   UNK N   1      33.347  12.627   2.640  0.00  0.00     0.055 C 
HETATM   15  C   UNK N   1      33.705  13.665   3.650  0.00  0.00     0.041 C 
HETATM   16  N   UNK N   1      32.849  14.249   4.385  0.00  0.00    -0.260 N 
HETATM   17  C   UNK N   1      33.468  14.827   5.489  0.00  0.00     0.031 C 
HETATM   18  C   UNK N   1      33.110  15.972   5.981  0.00  0.00     0.078 C 
HETATM   19  C   UNK N   1      31.705  16.170   6.156  0.00  0.00     0.022 C 
HETATM   20  N   UNK N   1      30.851  15.456   5.621  0.00  0.00    -0.280 N 
HETATM   21  C   UNK N   1      29.526  16.035   5.659  0.00  0.00     0.099 C 
HETATM   22  C   UNK N   1      29.568  16.940   6.915  0.00  0.00     0.005 C 
HETATM   23  C   UNK N   1      31.105  17.190   6.990  0.00  0.00     0.046 C 
HETATM   24  C   UNK N   1      28.901  16.225   8.086  0.00  0.00     0.019 C 
HETATM   25  C   UNK N   1      29.379  17.011   4.453  0.00  0.00     0.048 C 
HETATM   26  C   UNK N   1      33.665  17.079   5.134  0.00  0.00     0.022 C 
HETATM   27  C   UNK N   1      34.723  14.121   5.775  0.00  0.00     0.015 C 
HETATM   28  C   UNK N   1      35.096  13.834   4.273  0.00  0.00     0.052 C 
HETATM   29  C   UNK N   1      34.249  12.858   6.506  0.00  0.00     0.023 C 
HETATM   30  C   UNK N   1      31.951   9.735   3.076  0.00  0.00     0.022 C 
HETATM   31  C   UNK N   1      32.530  10.205   0.746  0.00  0.00     0.022 C 
HETATM   32  C   UNK N   1      28.993  15.001   2.498  0.00  0.00     0.022 C 
ENDROOT
BRANCH   4  33
HETATM   33  C   UNK N   1      27.512  13.424   1.938  0.00  0.00     0.025 C 
BRANCH  33  34
HETATM   34  C   UNK N   1      26.064  13.281   1.594  0.00  0.00     0.104 C 
BRANCH  34  35
HETATM   35  C   UNK N   1      25.430  12.111   2.254  0.00  0.00     0.217 C 
HETATM   36  O   UNK N   1      25.982  11.028   2.134  0.00  0.00    -0.274 OA
HETATM   37  N   UNK N   1      24.290  12.201   2.998  0.00  0.00    -0.359 N 
HETATM   38  H   UNK N   1      24.000  11.337   3.371  0.00  0.00     0.162 HD
BRANCH  37  39
HETATM   39  C   UNK N   1      23.401  13.325   3.362  0.00  0.00     0.154 C 
BRANCH  39  40
HETATM   40  C   UNK N   1      22.353  14.076   2.424  0.00  0.00     0.148 C 
HETATM   41  C   UNK N   1      22.516  13.751   0.952  0.00  0.00     0.042 C 
BRANCH  40  42
HETATM   42  O   UNK N   1      22.155  15.461   2.546  0.00  0.00    -0.283 OA
BRANCH  42  43
HETATM   43  P   UNK N   1      20.467  15.777   2.584  0.00  0.00     0.409 P 
HETATM   44  O   UNK N   1      19.818  14.549   3.243  0.00  0.00    -0.624 OA
HETATM   45  O   UNK N   1      19.697  15.742   1.027  0.00  0.00    -0.624 OA
BRANCH  43  46
HETATM   46  O   UNK N   1      19.941  17.035   3.663  0.00  0.00    -0.279 OA
BRANCH  46  47
HETATM   47  C   UNK N   1      20.540  16.778   4.919  0.00  0.00     0.198 C 
HETATM   48  C   UNK N   1      21.240  18.007   5.524  0.00  0.00     0.180 C 
HETATM   49  O   UNK N   1      21.127  18.016   6.932  0.00  0.00    -0.353 OA
HETATM   50  C   UNK N   1      20.444  16.813   7.258  0.00  0.00     0.261 C 
HETATM   51  C   UNK N   1      19.565  16.527   6.070  0.00  0.00     0.199 C 
BRANCH  48  52
HETATM   52  C   UNK N   1      22.471  18.690   4.888  0.00  0.00     0.198 C 
BRANCH  52  53
HETATM   53  O   UNK N   1      22.785  18.166   3.628  0.00  0.00    -0.398 OA
HETATM   54  H   UNK N   1      22.697  18.366   2.682  0.00  0.00     0.209 HD
ENDBRANCH  52  53
ENDBRANCH  48  52
BRANCH  50  55
HETATM   55  N   UNK N   1      21.376  15.701   7.295  0.00  0.00    -0.311 N 
HETATM   56  C   UNK N   1      22.440  15.565   6.472  0.00  0.00     0.186 A 
HETATM   57  N   UNK N   1      23.257  14.571   6.890  0.00  0.00    -0.350 N 
HETATM   58  C   UNK N   1      22.665  14.092   7.997  0.00  0.00     0.062 A 
ATOM     59  HN  UNK N   1      24.128  14.257   6.461  1.00  0.00     0.166 HD
HETATM   60  C   UNK N   1      21.516  14.755   8.233  0.00  0.00     0.064 A 
HETATM   61  C   UNK N   1      23.111  13.079   8.824  0.00  0.00     0.068 A 
HETATM   62  C   UNK N   1      20.712  14.462   9.332  0.00  0.00     0.035 A 
HETATM   63  C   UNK N   1      21.109  13.436  10.186  0.00  0.00     0.039 A 
HETATM   64  C   UNK N   1      22.307  12.728   9.925  0.00  0.00     0.070 A 
BRANCH  64  65
HETATM   65  O   UNK N   1      22.661  11.662  10.669  0.00  0.00    -0.356 OA
HETATM   66  C   UNK N   1      23.312  11.799  11.872  0.00  0.00     0.210 C 
ENDBRANCH  64  65
ENDBRANCH  50  55
BRANCH  51  67
HETATM   67  O   UNK N   1      18.874  15.312   6.063  0.00  0.00    -0.388 OA
HETATM   68  H   UNK N   1      18.837  14.674   5.333  0.00  0.00     0.210 HD
ENDBRANCH  51  67
ENDBRANCH  46  47
ENDBRANCH  43  46
ENDBRANCH  42  43
ENDBRANCH  40  42
ENDBRANCH  39  40
ENDBRANCH  37  39
ENDBRANCH  34  35
ENDBRANCH  33  34
ENDBRANCH   4  33
BRANCH   5  69
HETATM   69  C   UNK N   1      26.331  15.665   5.295  0.00  0.00     0.114 C 
BRANCH  69  70
HETATM   70  C   UNK N   1      25.735  16.730   4.454  0.00  0.00     0.216 C 
HETATM   71  O   UNK N   1      25.836  17.903   4.774  0.00  0.00    -0.274 OA
HETATM   72  N   UNK N   1      25.115  16.393   3.310  0.00  0.00    -0.370 N 
HETATM   73  H   UNK N   1      24.159  16.159   3.298  0.00  0.00     0.159 HD
HETATM   74  H   UNK N   1      25.626  16.381   2.468  0.00  0.00     0.159 HD
ENDBRANCH  69  70
ENDBRANCH   5  69
BRANCH  11  75
HETATM   75  C   UNK N   1      29.680  11.262   0.536  0.00  0.00     0.021 C 
BRANCH  75  76
HETATM   76  C   UNK N   1      28.562  10.330   0.068  0.00  0.00     0.103 C 
BRANCH  76  77
HETATM   77  C   UNK N   1      28.675   8.973   0.695  0.00  0.00     0.215 C 
HETATM   78  O   UNK N   1      29.485   8.165   0.270  0.00  0.00    -0.274 OA
HETATM   79  N   UNK N   1      27.837   8.625   1.691  0.00  0.00    -0.370 N 
HETATM   80  H   UNK N   1      28.135   8.190   2.523  0.00  0.00     0.159 HD
HETATM   81  H   UNK N   1      26.877   8.816   1.581  0.00  0.00     0.159 HD
ENDBRANCH  76  77
ENDBRANCH  75  76
ENDBRANCH  11  75
BRANCH  28  82
HETATM   82  C   UNK N   1      36.165  12.775   3.963  0.00  0.00     0.021 C 
BRANCH  82  83
HETATM   83  C   UNK N   1      37.516  13.308   3.492  0.00  0.00     0.103 C 
BRANCH  83  84
HETATM   84  C   UNK N   1      38.441  13.557   4.625  0.00  0.00     0.215 C 
HETATM   85  O   UNK N   1      38.680  14.701   4.979  0.00  0.00    -0.274 OA
HETATM   86  N   UNK N   1      39.079  12.519   5.201  0.00  0.00    -0.370 N 
HETATM   87  H   UNK N   1      39.066  11.535   5.168  0.00  0.00     0.159 HD
HETATM   88  H   UNK N   1      39.756  12.837   5.841  0.00  0.00     0.159 HD
ENDBRANCH  83  84
ENDBRANCH  82  83
ENDBRANCH  28  82
BRANCH  27  89
HETATM   89  C   UNK N   1      35.668  14.666   6.850  0.00  0.00     0.118 C 
BRANCH  89  90
HETATM   90  C   UNK N   1      36.300  13.827   7.900  0.00  0.00     0.216 C 
HETATM   91  O   UNK N   1      37.220  13.073   7.637  0.00  0.00    -0.274 OA
HETATM   92  N   UNK N   1      36.008  14.086   9.181  0.00  0.00    -0.370 N 
HETATM   93  H   UNK N   1      35.098  14.302   9.490  0.00  0.00     0.159 HD
HETATM   94  H   UNK N   1      36.736  14.060   9.844  0.00  0.00     0.159 HD
ENDBRANCH  89  90
ENDBRANCH  27  89
BRANCH  23  95
HETATM   95  C   UNK N   1      31.737  17.373   8.356  0.00  0.00     0.020 C 
BRANCH  95  96
HETATM   96  C   UNK N   1      32.611  18.618   8.312  0.00  0.00     0.103 C 
BRANCH  96  97
HETATM   97  C   UNK N   1      34.043  18.311   8.665  0.00  0.00     0.215 C 
HETATM   98  O   UNK N   1      34.936  19.062   8.313  0.00  0.00    -0.274 OA
HETATM   99  N   UNK N   1      34.340  17.214   9.390  0.00  0.00    -0.370 N 
HETATM  100  H   UNK N   1      34.873  16.439   9.099  0.00  0.00     0.159 HD
HETATM  101  H   UNK N   1      33.987  17.185  10.308  0.00  0.00     0.159 HD
ENDBRANCH  96  97
ENDBRANCH  95  96
ENDBRANCH  23  95
BRANCH  22 102
HETATM  102  C   UNK N   1      29.157  18.414   6.801  0.00  0.00     0.115 C 
BRANCH 102 103
HETATM  103  C   UNK N   1      28.093  19.031   7.603  0.00  0.00     0.216 C 
HETATM  104  O   UNK N   1      28.165  19.063   8.810  0.00  0.00    -0.274 OA
HETATM  105  N   UNK N   1      27.065  19.628   6.971  0.00  0.00    -0.370 N 
HETATM  106  H   UNK N   1      26.860  19.776   6.020  0.00  0.00     0.159 HD
HETATM  107  H   UNK N   1      26.383  19.989   7.582  0.00  0.00     0.159 HD
ENDBRANCH 102 103
ENDBRANCH  22 102
TORSDOF 30
ENDMDL
MODEL 3
REMARK VINA RESULT:      -7.5      2.027      3.918
REMARK  30 active torsions:
REMARK  status: ('A' for Active; 'I' for Inactive)
REMARK    1  A    between atoms: C_4  and  C_60 
REMARK    2  A    between atoms: C_5  and  C_55 
REMARK    3  A    between atoms: C_6  and  C_21 
REMARK    4  A    between atoms: C_11  and  C_50 
REMARK    5  A    between atoms: C_22  and  C_30 
REMARK    6  A    between atoms: C_23  and  C_24 
REMARK    7  A    between atoms: C_24  and  C_25 
REMARK    8  A    between atoms: C_25  and  C_26 
REMARK       I    between atoms: C_26  and  N_28 
REMARK    9  A    between atoms: C_30  and  C_31 
REMARK       I    between atoms: C_31  and  N_33 
REMARK   10  A    between atoms: C_36  and  C_44 
REMARK   11  A    between atoms: C_37  and  C_38 
REMARK   12  A    between atoms: C_38  and  C_39 
REMARK   13  A    between atoms: C_39  and  C_40 
REMARK       I    between atoms: C_40  and  N_42 
REMARK   14  A    between atoms: C_44  and  C_45 
REMARK       I    between atoms: C_45  and  N_47 
REMARK   15  A    between atoms: C_50  and  C_51 
REMARK   16  A    between atoms: C_51  and  C_52 
REMARK       I    between atoms: C_52  and  N_54 
REMARK   17  A    between atoms: C_55  and  C_56 
REMARK       I    between atoms: C_56  and  N_58 
REMARK   18  A    between atoms: C_60  and  C_61 
REMARK   19  A    between atoms: C_61  and  C_62 
REMARK       I    between atoms: C_62  and  N_64 
REMARK   20  A    between atoms: N_64  and  C_65 
REMARK   21  A    between atoms: C_65  and  C_66 
REMARK   22  A    between atoms: C_66  and  O_68 
REMARK   23  A    between atoms: P_69  and  O_68 
REMARK   24  A    between atoms: P_69  and  O_72 
REMARK   25  A    between atoms: C_73  and  O_72 
REMARK   26  A    between atoms: C_74  and  C_91 
REMARK   27  A    between atoms: C_76  and  N_79 
REMARK   28  A    between atoms: C_77  and  O_78 
REMARK   29  A    between atoms: C_87  and  O_89 
REMARK   30  A    between atoms: C_91  and  O_92 
ROOT
HETATM    1  C   UNK N   1      26.716  11.199   4.867  0.00  0.00     0.022 C 
HETATM    2  C   UNK N   1      26.332  12.088   3.718  0.00  0.00     0.078 C 
HETATM    3  C   UNK N   1      26.309  13.404   3.933  0.00  0.00     0.031 C 
HETATM    4  C   UNK N   1      25.726  14.446   3.110  0.00  0.00     0.007 C 
HETATM    5  C   UNK N   1      25.846  15.444   4.408  0.00  0.00     0.059 C 
HETATM    6  C   UNK N   1      27.214  15.156   4.765  0.00  0.00     0.049 C 
HETATM    7  N   UNK N   1      27.419  14.019   4.285  0.00  0.00    -0.262 N 
HETATM    8 Co   UNK N   1      28.986  13.653   3.478  0.00  0.00     0.000 Co
HETATM    9  N   UNK N   1      28.286  12.126   2.540  0.00  0.00    -0.260 N 
HETATM   10  C   UNK N   1      27.090  11.713   2.608  0.00  0.00     0.027 C 
HETATM   11  C   UNK N   1      26.768  10.551   1.719  0.00  0.00     0.048 C 
HETATM   12  C   UNK N   1      28.192  10.111   1.372  0.00  0.00     0.006 C 
HETATM   13  C   UNK N   1      28.965  11.394   1.595  0.00  0.00     0.045 C 
HETATM   14  C   UNK N   1      30.261  11.594   1.313  0.00  0.00     0.055 C 
HETATM   15  C   UNK N   1      31.122  12.588   2.015  0.00  0.00     0.041 C 
HETATM   16  N   UNK N   1      30.676  13.427   2.859  0.00  0.00    -0.260 N 
HETATM   17  C   UNK N   1      31.709  13.920   3.650  0.00  0.00     0.031 C 
HETATM   18  C   UNK N   1      31.772  15.154   4.041  0.00  0.00     0.078 C 
HETATM   19  C   UNK N   1      30.564  15.713   4.562  0.00  0.00     0.022 C 
HETATM   20  N   UNK N   1      29.455  15.194   4.397  0.00  0.00    -0.280 N 
HETATM   21  C   UNK N   1      28.361  16.088   4.707  0.00  0.00     0.099 C 
HETATM   22  C   UNK N   1      28.975  17.053   5.751  0.00  0.00     0.005 C 
HETATM   23  C   UNK N   1      30.478  16.915   5.363  0.00  0.00     0.046 C 
HETATM   24  C   UNK N   1      28.556  16.628   7.154  0.00  0.00     0.019 C 
HETATM   25  C   UNK N   1      28.070  16.967   3.454  0.00  0.00     0.048 C 
HETATM   26  C   UNK N   1      32.270  16.013   2.915  0.00  0.00     0.022 C 
HETATM   27  C   UNK N   1      32.808  12.947   3.685  0.00  0.00     0.015 C 
HETATM   28  C   UNK N   1      32.639  12.454   2.201  0.00  0.00     0.052 C 
HETATM   29  C   UNK N   1      32.317  11.908   4.702  0.00  0.00     0.023 C 
HETATM   30  C   UNK N   1      28.472   9.191   2.550  0.00  0.00     0.022 C 
HETATM   31  C   UNK N   1      28.406   9.307   0.107  0.00  0.00     0.022 C 
HETATM   32  C   UNK N   1      26.687  14.965   2.009  0.00  0.00     0.022 C 
ENDROOT
BRANCH   4  33
HETATM   33  C   UNK N   1      24.803  13.769   2.123  0.00  0.00     0.025 C 
BRANCH  33  34
HETATM   34  C   UNK N   1      24.073  14.574   1.095  0.00  0.00     0.104 C 
BRANCH  34  35
HETATM   35  C   UNK N   1      22.731  14.022   0.780  0.00  0.00     0.217 C 
HETATM   36  O   UNK N   1      22.684  12.993   0.123  0.00  0.00    -0.274 OA
HETATM   37  N   UNK N   1      21.569  14.593   1.209  0.00  0.00    -0.359 N 
HETATM   38  H   UNK N   1      20.764  14.105   0.918  0.00  0.00     0.162 HD
BRANCH  37  39
HETATM   39  C   UNK N   1      21.266  15.792   2.020  0.00  0.00     0.154 C 
BRANCH  39  40
HETATM   40  C   UNK N   1      19.961  16.067   2.893  0.00  0.00     0.148 C 
HETATM   41  C   UNK N   1      19.720  17.536   3.178  0.00  0.00     0.042 C 
BRANCH  40  42
HETATM   42  O   UNK N   1      19.736  15.350   4.080  0.00  0.00    -0.283 OA
BRANCH  42  43
HETATM   43  P   UNK N   1      19.145  13.787   3.679  0.00  0.00     0.409 P 
HETATM   44  O   UNK N   1      18.576  13.900   2.255  0.00  0.00    -0.624 OA
HETATM   45  O   UNK N   1      17.718  13.316   4.551  0.00  0.00    -0.624 OA
BRANCH  43  46
HETATM   46  O   UNK N   1      20.339  12.545   3.450  0.00  0.00    -0.279 OA
BRANCH  46  47
HETATM   47  C   UNK N   1      21.010  12.384   4.686  0.00  0.00     0.198 C 
HETATM   48  C   UNK N   1      21.285  10.914   5.043  0.00  0.00     0.180 C 
HETATM   49  O   UNK N   1      22.508  10.779   5.737  0.00  0.00    -0.353 OA
HETATM   50  C   UNK N   1      22.993  12.105   5.897  0.00  0.00     0.261 C 
HETATM   51  C   UNK N   1      22.462  12.863   4.711  0.00  0.00     0.199 C 
BRANCH  48  52
HETATM   52  C   UNK N   1      20.174   9.877   5.320  0.00  0.00     0.198 C 
BRANCH  52  53
HETATM   53  O   UNK N   1      18.911  10.320   4.905  0.00  0.00    -0.398 OA
HETATM   54  H   UNK N   1      18.080   9.991   4.529  0.00  0.00     0.209 HD
ENDBRANCH  52  53
ENDBRANCH  48  52
BRANCH  50  55
HETATM   55  N   UNK N   1      22.362  12.736   7.042  0.00  0.00    -0.311 N 
HETATM   56  C   UNK N   1      21.353  13.633   6.963  0.00  0.00     0.186 A 
HETATM   57  N   UNK N   1      20.808  13.864   8.179  0.00  0.00    -0.350 N 
HETATM   58  C   UNK N   1      21.512  13.085   9.016  0.00  0.00     0.062 A 
ATOM     59  HN  UNK N   1      20.035  14.489   8.408  1.00  0.00     0.166 HD
HETATM   60  C   UNK N   1      22.468  12.419   8.339  0.00  0.00     0.064 A 
HETATM   61  C   UNK N   1      21.337  12.932  10.379  0.00  0.00     0.068 A 
HETATM   62  C   UNK N   1      23.332  11.530   8.972  0.00  0.00     0.035 A 
HETATM   63  C   UNK N   1      23.208  11.355  10.348  0.00  0.00     0.039 A 
HETATM   64  C   UNK N   1      22.216  12.070  11.062  0.00  0.00     0.070 A 
BRANCH  64  65
HETATM   65  O   UNK N   1      22.142  12.004  12.405  0.00  0.00    -0.356 OA
HETATM   66  C   UNK N   1      23.266  11.918  13.192  0.00  0.00     0.210 C 
ENDBRANCH  64  65
ENDBRANCH  50  55
BRANCH  51  67
HETATM   67  O   UNK N   1      22.675  14.244   4.685  0.00  0.00    -0.388 OA
HETATM   68  H   UNK N   1      22.934  14.773   3.915  0.00  0.00     0.210 HD
ENDBRANCH  51  67
ENDBRANCH  46  47
ENDBRANCH  43  46
ENDBRANCH  42  43
ENDBRANCH  40  42
ENDBRANCH  39  40
ENDBRANCH  37  39
ENDBRANCH  34  35
ENDBRANCH  33  34
ENDBRANCH   4  33
BRANCH   5  69
HETATM   69  C   UNK N   1      25.204  16.503   5.293  0.00  0.00     0.114 C 
BRANCH  69  70
HETATM   70  C   UNK N   1      24.303  17.392   4.523  0.00  0.00     0.216 C 
HETATM   71  O   UNK N   1      24.747  18.123   3.654  0.00  0.00    -0.274 OA
HETATM   72  N   UNK N   1      22.981  17.354   4.764  0.00  0.00    -0.370 N 
HETATM   73  H   UNK N   1      22.574  17.917   5.461  0.00  0.00     0.159 HD
HETATM   74  H   UNK N   1      22.410  16.753   4.233  0.00  0.00     0.159 HD
ENDBRANCH  69  70
ENDBRANCH   5  69
BRANCH  11  75
HETATM   75  C   UNK N   1      25.925  11.024   0.528  0.00  0.00     0.021 C 
BRANCH  75  76
HETATM   76  C   UNK N   1      24.699  10.132   0.328  0.00  0.00     0.103 C 
BRANCH  76  77
HETATM   77  C   UNK N   1      24.100   9.716   1.638  0.00  0.00     0.215 C 
HETATM   78  O   UNK N   1      23.432  10.505   2.286  0.00  0.00    -0.274 OA
HETATM   79  N   UNK N   1      24.353   8.486   2.128  0.00  0.00    -0.370 N 
HETATM   80  H   UNK N   1      23.655   7.897   2.497  0.00  0.00     0.159 HD
HETATM   81  H   UNK N   1      25.282   8.162   2.118  0.00  0.00     0.159 HD
ENDBRANCH  76  77
ENDBRANCH  75  76
ENDBRANCH  11  75
BRANCH  28  82
HETATM   82  C   UNK N   1      33.309  11.138   1.775  0.00  0.00     0.021 C 
BRANCH  82  83
HETATM   83  C   UNK N   1      34.109  11.187   0.475  0.00  0.00     0.103 C 
BRANCH  83  84
HETATM   84  C   UNK N   1      35.037  12.345   0.437  0.00  0.00     0.215 C 
HETATM   85  O   UNK N   1      34.682  13.396  -0.074  0.00  0.00    -0.274 OA
HETATM   86  N   UNK N   1      36.297  12.201   0.892  0.00  0.00    -0.370 N 
HETATM   87  H   UNK N   1      36.835  11.530   1.371  0.00  0.00     0.159 HD
HETATM   88  H   UNK N   1      36.836  12.997   0.684  0.00  0.00     0.159 HD
ENDBRANCH  83  84
ENDBRANCH  82  83
ENDBRANCH  28  82
BRANCH  27  89
HETATM   89  C   UNK N   1      34.128  13.324   4.364  0.00  0.00     0.118 C 
BRANCH  89  90
HETATM   90  C   UNK N   1      35.128  12.334   4.838  0.00  0.00     0.216 C 
HETATM   91  O   UNK N   1      35.781  11.670   4.052  0.00  0.00    -0.274 OA
HETATM   92  N   UNK N   1      35.477  12.353   6.131  0.00  0.00    -0.370 N 
HETATM   93  H   UNK N   1      34.827  12.480   6.859  0.00  0.00     0.159 HD
HETATM   94  H   UNK N   1      36.427  12.234   6.364  0.00  0.00     0.159 HD
ENDBRANCH  89  90
ENDBRANCH  27  89
BRANCH  23  95
HETATM   95  C   UNK N   1      31.518  17.046   6.459  0.00  0.00     0.020 C 
BRANCH  95  96
HETATM   96  C   UNK N   1      32.762  17.687   5.860  0.00  0.00     0.103 C 
BRANCH  96  97
HETATM   97  C   UNK N   1      34.003  17.343   6.643  0.00  0.00     0.215 C 
HETATM   98  O   UNK N   1      34.638  18.221   7.202  0.00  0.00    -0.274 OA
HETATM   99  N   UNK N   1      34.403  16.060   6.746  0.00  0.00    -0.370 N 
HETATM  100  H   UNK N   1      35.239  15.672   6.399  0.00  0.00     0.159 HD
HETATM  101  H   UNK N   1      33.796  15.446   7.217  0.00  0.00     0.159 HD
ENDBRANCH  96  97
ENDBRANCH  95  96
ENDBRANCH  23  95
BRANCH  22 102
HETATM  102  C   UNK N   1      28.877  18.569   5.530  0.00  0.00     0.115 C 
BRANCH 102 103
HETATM  103  C   UNK N   1      27.815  19.411   6.096  0.00  0.00     0.216 C 
HETATM  104  O   UNK N   1      27.877  19.805   7.238  0.00  0.00    -0.274 OA
HETATM  105  N   UNK N   1      26.801  19.801   5.301  0.00  0.00    -0.370 N 
HETATM  106  H   UNK N   1      26.606  19.658   4.346  0.00  0.00     0.159 HD
HETATM  107  H   UNK N   1      26.119  20.337   5.766  0.00  0.00     0.159 HD
ENDBRANCH 102 103
ENDBRANCH  22 102
TORSDOF 30
ENDMDL
MODEL 4
REMARK VINA RESULT:      -7.4      2.544      6.743
REMARK  30 active torsions:
REMARK  status: ('A' for Active; 'I' for Inactive)
REMARK    1  A    between atoms: C_4  and  C_60 
REMARK    2  A    between atoms: C_5  and  C_55 
REMARK    3  A    between atoms: C_6  and  C_21 
REMARK    4  A    between atoms: C_11  and  C_50 
REMARK    5  A    between atoms: C_22  and  C_30 
REMARK    6  A    between atoms: C_23  and  C_24 
REMARK    7  A    between atoms: C_24  and  C_25 
REMARK    8  A    between atoms: C_25  and  C_26 
REMARK       I    between atoms: C_26  and  N_28 
REMARK    9  A    between atoms: C_30  and  C_31 
REMARK       I    between atoms: C_31  and  N_33 
REMARK   10  A    between atoms: C_36  and  C_44 
REMARK   11  A    between atoms: C_37  and  C_38 
REMARK   12  A    between atoms: C_38  and  C_39 
REMARK   13  A    between atoms: C_39  and  C_40 
REMARK       I    between atoms: C_40  and  N_42 
REMARK   14  A    between atoms: C_44  and  C_45 
REMARK       I    between atoms: C_45  and  N_47 
REMARK   15  A    between atoms: C_50  and  C_51 
REMARK   16  A    between atoms: C_51  and  C_52 
REMARK       I    between atoms: C_52  and  N_54 
REMARK   17  A    between atoms: C_55  and  C_56 
REMARK       I    between atoms: C_56  and  N_58 
REMARK   18  A    between atoms: C_60  and  C_61 
REMARK   19  A    between atoms: C_61  and  C_62 
REMARK       I    between atoms: C_62  and  N_64 
REMARK   20  A    between atoms: N_64  and  C_65 
REMARK   21  A    between atoms: C_65  and  C_66 
REMARK   22  A    between atoms: C_66  and  O_68 
REMARK   23  A    between atoms: P_69  and  O_68 
REMARK   24  A    between atoms: P_69  and  O_72 
REMARK   25  A    between atoms: C_73  and  O_72 
REMARK   26  A    between atoms: C_74  and  C_91 
REMARK   27  A    between atoms: C_76  and  N_79 
REMARK   28  A    between atoms: C_77  and  O_78 
REMARK   29  A    between atoms: C_87  and  O_89 
REMARK   30  A    between atoms: C_91  and  O_92 
ROOT
HETATM    1  C   UNK N   1      32.366  16.479   3.289  0.00  0.00     0.022 C 
HETATM    2  C   UNK N   1      31.091  15.849   3.775  0.00  0.00     0.078 C 
HETATM    3  C   UNK N   1      30.757  14.659   3.273  0.00  0.00     0.031 C 
HETATM    4  C   UNK N   1      29.485  13.968   3.351  0.00  0.00     0.007 C 
HETATM    5  C   UNK N   1      30.019  12.991   2.144  0.00  0.00     0.059 C 
HETATM    6  C   UNK N   1      31.317  12.677   2.690  0.00  0.00     0.049 C 
HETATM    7  N   UNK N   1      31.560  13.632   3.461  0.00  0.00    -0.262 N 
HETATM    8 Co   UNK N   1      32.322  13.324   5.062  0.00  0.00     0.000 Co
HETATM    9  N   UNK N   1      31.770  15.017   5.789  0.00  0.00    -0.260 N 
HETATM   10  C   UNK N   1      31.091  15.891   5.170  0.00  0.00     0.027 C 
HETATM   11  C   UNK N   1      30.717  17.094   5.979  0.00  0.00     0.048 C 
HETATM   12  C   UNK N   1      31.680  16.905   7.152  0.00  0.00     0.006 C 
HETATM   13  C   UNK N   1      31.934  15.414   7.095  0.00  0.00     0.045 C 
HETATM   14  C   UNK N   1      32.627  14.696   7.991  0.00  0.00     0.055 C 
HETATM   15  C   UNK N   1      33.334  13.423   7.670  0.00  0.00     0.041 C 
HETATM   16  N   UNK N   1      33.239  12.834   6.549  0.00  0.00    -0.260 N 
HETATM   17  C   UNK N   1      34.294  11.944   6.375  0.00  0.00     0.031 C 
HETATM   18  C   UNK N   1      34.157  10.789   5.800  0.00  0.00     0.078 C 
HETATM   19  C   UNK N   1      33.414  10.777   4.579  0.00  0.00     0.022 C 
HETATM   20  N   UNK N   1      32.693  11.714   4.220  0.00  0.00    -0.280 N 
HETATM   21  C   UNK N   1      31.790  11.353   3.148  0.00  0.00     0.099 C 
HETATM   22  C   UNK N   1      32.535  10.204   2.427  0.00  0.00     0.005 C 
HETATM   23  C   UNK N   1      33.429   9.708   3.604  0.00  0.00     0.046 C 
HETATM   24  C   UNK N   1      33.229  10.744   1.180  0.00  0.00     0.019 C 
HETATM   25  C   UNK N   1      30.523  10.694   3.771  0.00  0.00     0.048 C 
HETATM   26  C   UNK N   1      33.541   9.818   6.765  0.00  0.00     0.022 C 
HETATM   27  C   UNK N   1      35.437  12.368   7.193  0.00  0.00     0.015 C 
HETATM   28  C   UNK N   1      34.583  12.910   8.399  0.00  0.00     0.052 C 
HETATM   29  C   UNK N   1      36.053  13.502   6.362  0.00  0.00     0.023 C 
HETATM   30  C   UNK N   1      32.908  17.607   6.594  0.00  0.00     0.022 C 
HETATM   31  C   UNK N   1      31.341  17.566   8.472  0.00  0.00     0.022 C 
HETATM   32  C   UNK N   1      29.333  13.112   4.636  0.00  0.00     0.022 C 
ENDROOT
BRANCH   4  33
HETATM   33  C   UNK N   1      28.453  14.983   3.787  0.00  0.00     0.025 C 
BRANCH  33  34
HETATM   34  C   UNK N   1      27.518  15.587   2.788  0.00  0.00     0.104 C 
BRANCH  34  35
HETATM   35  C   UNK N   1      26.091  15.319   3.102  0.00  0.00     0.217 C 
HETATM   36  O   UNK N   1      25.716  14.157   3.075  0.00  0.00    -0.274 OA
HETATM   37  N   UNK N   1      25.205  16.299   3.441  0.00  0.00    -0.359 N 
HETATM   38  H   UNK N   1      24.299  15.958   3.622  0.00  0.00     0.162 HD
BRANCH  37  39
HETATM   39  C   UNK N   1      25.321  17.765   3.592  0.00  0.00     0.154 C 
BRANCH  39  40
HETATM   40  C   UNK N   1      24.149  18.806   3.885  0.00  0.00     0.148 C 
HETATM   41  C   UNK N   1      24.422  20.194   3.342  0.00  0.00     0.042 C 
BRANCH  40  42
HETATM   42  O   UNK N   1      23.625  18.939   5.181  0.00  0.00    -0.283 OA
BRANCH  42  43
HETATM   43  P   UNK N   1      22.144  18.072   5.271  0.00  0.00     0.409 P 
HETATM   44  O   UNK N   1      21.094  18.949   4.570  0.00  0.00    -0.624 OA
HETATM   45  O   UNK N   1      21.464  17.982   6.867  0.00  0.00    -0.624 OA
BRANCH  43  46
HETATM   46  O   UNK N   1      22.040  16.622   4.319  0.00  0.00    -0.279 OA
BRANCH  46  47
HETATM   47  C   UNK N   1      21.634  15.584   5.190  0.00  0.00     0.198 C 
HETATM   48  C   UNK N   1      20.243  15.017   4.858  0.00  0.00     0.180 C 
HETATM   49  O   UNK N   1      20.180  13.632   5.127  0.00  0.00    -0.353 OA
HETATM   50  C   UNK N   1      21.447  13.302   5.680  0.00  0.00     0.261 C 
HETATM   51  C   UNK N   1      22.412  14.275   5.056  0.00  0.00     0.199 C 
BRANCH  48  52
HETATM   52  C   UNK N   1      18.938  15.838   4.956  0.00  0.00     0.198 C 
BRANCH  52  53
HETATM   53  O   UNK N   1      18.890  16.885   4.027  0.00  0.00    -0.398 OA
HETATM   54  H   UNK N   1      19.324  17.725   3.812  0.00  0.00     0.209 HD
ENDBRANCH  52  53
ENDBRANCH  48  52
BRANCH  50  55
HETATM   55  N   UNK N   1      21.477  13.622   7.096  0.00  0.00    -0.311 N 
HETATM   56  C   UNK N   1      20.634  14.488   7.703  0.00  0.00     0.186 A 
HETATM   57  N   UNK N   1      20.735  14.405   9.050  0.00  0.00    -0.350 N 
HETATM   58  C   UNK N   1      21.670  13.462   9.259  0.00  0.00     0.062 A 
ATOM     59  HN  UNK N   1      20.218  14.937   9.749  1.00  0.00     0.166 HD
HETATM   60  C   UNK N   1      22.138  13.003   8.082  0.00  0.00     0.064 A 
HETATM   61  C   UNK N   1      22.129  12.980  10.470  0.00  0.00     0.068 A 
HETATM   62  C   UNK N   1      23.109  12.007   8.017  0.00  0.00     0.035 A 
HETATM   63  C   UNK N   1      23.617  11.500   9.210  0.00  0.00     0.039 A 
HETATM   64  C   UNK N   1      23.138  11.998  10.446  0.00  0.00     0.070 A 
BRANCH  64  65
HETATM   65  O   UNK N   1      23.685  11.607  11.613  0.00  0.00    -0.356 OA
HETATM   66  C   UNK N   1      23.098  11.893  12.823  0.00  0.00     0.210 C 
ENDBRANCH  64  65
ENDBRANCH  50  55
BRANCH  51  67
HETATM   67  O   UNK N   1      23.726  14.266   5.531  0.00  0.00    -0.388 OA
HETATM   68  H   UNK N   1      24.352  13.527   5.482  0.00  0.00     0.210 HD
ENDBRANCH  51  67
ENDBRANCH  46  47
ENDBRANCH  43  46
ENDBRANCH  42  43
ENDBRANCH  40  42
ENDBRANCH  39  40
ENDBRANCH  37  39
ENDBRANCH  34  35
ENDBRANCH  33  34
ENDBRANCH   4  33
BRANCH   5  69
HETATM   69  C   UNK N   1      29.733  12.283   0.828  0.00  0.00     0.114 C 
BRANCH  69  70
HETATM   70  C   UNK N   1      28.466  11.517   0.878  0.00  0.00     0.216 C 
HETATM   71  O   UNK N   1      28.396  10.400   0.393  0.00  0.00    -0.274 OA
HETATM   72  N   UNK N   1      27.401  12.050   1.502  0.00  0.00    -0.370 N 
HETATM   73  H   UNK N   1      26.769  12.633   1.024  0.00  0.00     0.159 HD
HETATM   74  H   UNK N   1      27.251  11.853   2.455  0.00  0.00     0.159 HD
ENDBRANCH  69  70
ENDBRANCH   5  69
BRANCH  11  75
HETATM   75  C   UNK N   1      29.227  17.034   6.344  0.00  0.00     0.021 C 
BRANCH  75  76
HETATM   76  C   UNK N   1      28.442  18.149   5.652  0.00  0.00     0.103 C 
BRANCH  76  77
HETATM   77  C   UNK N   1      27.784  19.059   6.644  0.00  0.00     0.215 C 
HETATM   78  O   UNK N   1      28.202  19.126   7.788  0.00  0.00    -0.274 OA
HETATM   79  N   UNK N   1      26.689  19.758   6.286  0.00  0.00    -0.370 N 
HETATM   80  H   UNK N   1      26.569  20.715   6.483  0.00  0.00     0.159 HD
HETATM   81  H   UNK N   1      25.971  19.286   5.803  0.00  0.00     0.159 HD
ENDBRANCH  76  77
ENDBRANCH  75  76
ENDBRANCH  11  75
BRANCH  28  82
HETATM   82  C   UNK N   1      35.254  13.832   9.428  0.00  0.00     0.021 C 
BRANCH  82  83
HETATM   83  C   UNK N   1      35.166  13.383  10.885  0.00  0.00     0.103 C 
BRANCH  83  84
HETATM   84  C   UNK N   1      36.163  14.074  11.740  0.00  0.00     0.215 C 
HETATM   85  O   UNK N   1      35.869  15.117  12.302  0.00  0.00    -0.274 OA
HETATM   86  N   UNK N   1      37.417  13.588  11.822  0.00  0.00    -0.370 N 
HETATM   87  H   UNK N   1      37.919  12.790  11.536  0.00  0.00     0.159 HD
HETATM   88  H   UNK N   1      38.002  14.212  12.308  0.00  0.00     0.159 HD
ENDBRANCH  83  84
ENDBRANCH  82  83
ENDBRANCH  28  82
BRANCH  27  89
HETATM   89  C   UNK N   1      36.669  11.465   7.295  0.00  0.00     0.118 C 
BRANCH  89  90
HETATM   90  C   UNK N   1      36.974  10.609   8.469  0.00  0.00     0.216 C 
HETATM   91  O   UNK N   1      36.678   9.427   8.483  0.00  0.00    -0.274 OA
HETATM   92  N   UNK N   1      37.793  11.092   9.413  0.00  0.00    -0.370 N 
HETATM   93  H   UNK N   1      37.749  12.022   9.734  0.00  0.00     0.159 HD
HETATM   94  H   UNK N   1      38.470  10.492   9.801  0.00  0.00     0.159 HD
ENDBRANCH  89  90
ENDBRANCH  27  89
BRANCH  23  95
HETATM   95  C   UNK N   1      34.796   9.140   3.279  0.00  0.00     0.020 C 
BRANCH  95  96
HETATM   96  C   UNK N   1      34.939   7.805   3.996  0.00  0.00     0.103 C 
BRANCH  96  97
HETATM   97  C   UNK N   1      35.075   6.659   3.027  0.00  0.00     0.215 C 
HETATM   98  O   UNK N   1      34.113   5.953   2.774  0.00  0.00    -0.274 OA
HETATM   99  N   UNK N   1      36.255   6.423   2.421  0.00  0.00    -0.370 N 
HETATM  100  H   UNK N   1      36.821   5.623   2.518  0.00  0.00     0.159 HD
HETATM  101  H   UNK N   1      36.587   7.125   1.816  0.00  0.00     0.159 HD
ENDBRANCH  96  97
ENDBRANCH  95  96
ENDBRANCH  23  95
BRANCH  22 102
HETATM  102  C   UNK N   1      31.816   8.870   2.181  0.00  0.00     0.115 C 
BRANCH 102 103
HETATM  103  C   UNK N   1      31.752   8.204   0.874  0.00  0.00     0.216 C 
HETATM  104  O   UNK N   1      30.880   8.475   0.080  0.00  0.00    -0.274 OA
HETATM  105  N   UNK N   1      32.724   7.334   0.539  0.00  0.00    -0.370 N 
HETATM  106  H   UNK N   1      33.542   7.036   0.998  0.00  0.00     0.159 HD
HETATM  107  H   UNK N   1      32.588   6.910  -0.339  0.00  0.00     0.159 HD
ENDBRANCH 102 103
ENDBRANCH  22 102
TORSDOF 30
ENDMDL
MODEL 5
REMARK VINA RESULT:      -7.4      2.567      7.072
REMARK  30 active torsions:
REMARK  status: ('A' for Active; 'I' for Inactive)
REMARK    1  A    between atoms: C_4  and  C_60 
REMARK    2  A    between atoms: C_5  and  C_55 
REMARK    3  A    between atoms: C_6  and  C_21 
REMARK    4  A    between atoms: C_11  and  C_50 
REMARK    5  A    between atoms: C_22  and  C_30 
REMARK    6  A    between atoms: C_23  and  C_24 
REMARK    7  A    between atoms: C_24  and  C_25 
REMARK    8  A    between atoms: C_25  and  C_26 
REMARK       I    between atoms: C_26  and  N_28 
REMARK    9  A    between atoms: C_30  and  C_31 
REMARK       I    between atoms: C_31  and  N_33 
REMARK   10  A    between atoms: C_36  and  C_44 
REMARK   11  A    between atoms: C_37  and  C_38 
REMARK   12  A    between atoms: C_38  and  C_39 
REMARK   13  A    between atoms: C_39  and  C_40 
REMARK       I    between atoms: C_40  and  N_42 
REMARK   14  A    between atoms: C_44  and  C_45 
REMARK       I    between atoms: C_45  and  N_47 
REMARK   15  A    between atoms: C_50  and  C_51 
REMARK   16  A    between atoms: C_51  and  C_52 
REMARK       I    between atoms: C_52  and  N_54 
REMARK   17  A    between atoms: C_55  and  C_56 
REMARK       I    between atoms: C_56  and  N_58 
REMARK   18  A    between atoms: C_60  and  C_61 
REMARK   19  A    between atoms: C_61  and  C_62 
REMARK       I    between atoms: C_62  and  N_64 
REMARK   20  A    between atoms: N_64  and  C_65 
REMARK   21  A    between atoms: C_65  and  C_66 
REMARK   22  A    between atoms: C_66  and  O_68 
REMARK   23  A    between atoms: P_69  and  O_68 
REMARK   24  A    between atoms: P_69  and  O_72 
REMARK   25  A    between atoms: C_73  and  O_72 
REMARK   26  A    between atoms: C_74  and  C_91 
REMARK   27  A    between atoms: C_76  and  N_79 
REMARK   28  A    between atoms: C_77  and  O_78 
REMARK   29  A    between atoms: C_87  and  O_89 
REMARK   30  A    between atoms: C_91  and  O_92 
ROOT
HETATM    1  C   UNK N   1      32.439  16.588   3.095  0.00  0.00     0.022 C 
HETATM    2  C   UNK N   1      31.174  15.968   3.620  0.00  0.00     0.078 C 
HETATM    3  C   UNK N   1      30.813  14.783   3.125  0.00  0.00     0.031 C 
HETATM    4  C   UNK N   1      29.537  14.104   3.243  0.00  0.00     0.007 C 
HETATM    5  C   UNK N   1      30.022  13.126   2.017  0.00  0.00     0.059 C 
HETATM    6  C   UNK N   1      31.334  12.797   2.520  0.00  0.00     0.049 C 
HETATM    7  N   UNK N   1      31.611  13.748   3.285  0.00  0.00    -0.262 N 
HETATM    8 Co   UNK N   1      32.420  13.427   4.860  0.00  0.00     0.000 Co
HETATM    9  N   UNK N   1      31.909  15.124   5.609  0.00  0.00    -0.260 N 
HETATM   10  C   UNK N   1      31.219  16.006   5.014  0.00  0.00     0.027 C 
HETATM   11  C   UNK N   1      30.883  17.210   5.838  0.00  0.00     0.048 C 
HETATM   12  C   UNK N   1      31.882  17.008   6.980  0.00  0.00     0.006 C 
HETATM   13  C   UNK N   1      32.119  15.515   6.910  0.00  0.00     0.045 C 
HETATM   14  C   UNK N   1      32.833  14.787   7.781  0.00  0.00     0.055 C 
HETATM   15  C   UNK N   1      33.517  13.508   7.435  0.00  0.00     0.041 C 
HETATM   16  N   UNK N   1      33.380  12.923   6.315  0.00  0.00    -0.260 N 
HETATM   17  C   UNK N   1      34.420  12.023   6.105  0.00  0.00     0.031 C 
HETATM   18  C   UNK N   1      34.253  10.872   5.532  0.00  0.00     0.078 C 
HETATM   19  C   UNK N   1      33.471  10.872   4.335  0.00  0.00     0.022 C 
HETATM   20  N   UNK N   1      32.748  11.816   4.002  0.00  0.00    -0.280 N 
HETATM   21  C   UNK N   1      31.808  11.468   2.959  0.00  0.00     0.099 C 
HETATM   22  C   UNK N   1      32.518  10.313   2.210  0.00  0.00     0.005 C 
HETATM   23  C   UNK N   1      33.444   9.805   3.356  0.00  0.00     0.046 C 
HETATM   24  C   UNK N   1      33.177  10.850   0.943  0.00  0.00     0.019 C 
HETATM   25  C   UNK N   1      30.555  10.820   3.620  0.00  0.00     0.048 C 
HETATM   26  C   UNK N   1      33.658   9.904   6.513  0.00  0.00     0.022 C 
HETATM   27  C   UNK N   1      35.592  12.434   6.887  0.00  0.00     0.015 C 
HETATM   28  C   UNK N   1      34.783  12.980   8.121  0.00  0.00     0.052 C 
HETATM   29  C   UNK N   1      36.193  13.564   6.040  0.00  0.00     0.023 C 
HETATM   30  C   UNK N   1      33.098  17.699   6.384  0.00  0.00     0.022 C 
HETATM   31  C   UNK N   1      31.591  17.668   8.311  0.00  0.00     0.022 C 
HETATM   32  C   UNK N   1      29.417  13.246   4.529  0.00  0.00     0.022 C 
ENDROOT
BRANCH   4  33
HETATM   33  C   UNK N   1      28.530  15.128   3.714  0.00  0.00     0.025 C 
BRANCH  33  34
HETATM   34  C   UNK N   1      27.382  15.518   2.838  0.00  0.00     0.104 C 
BRANCH  34  35
HETATM   35  C   UNK N   1      26.089  15.551   3.568  0.00  0.00     0.217 C 
HETATM   36  O   UNK N   1      26.111  15.888   4.741  0.00  0.00    -0.274 OA
HETATM   37  N   UNK N   1      24.894  15.251   2.982  0.00  0.00    -0.359 N 
HETATM   38  H   UNK N   1      24.129  15.322   3.599  0.00  0.00     0.162 HD
BRANCH  37  39
HETATM   39  C   UNK N   1      24.507  14.842   1.615  0.00  0.00     0.154 C 
BRANCH  39  40
HETATM   40  C   UNK N   1      23.144  14.152   1.158  0.00  0.00     0.148 C 
HETATM   41  C   UNK N   1      23.329  13.087   0.096  0.00  0.00     0.042 C 
BRANCH  40  42
HETATM   42  O   UNK N   1      22.036  14.938   0.800  0.00  0.00    -0.283 OA
BRANCH  42  43
HETATM   43  P   UNK N   1      21.112  15.268   2.211  0.00  0.00     0.409 P 
HETATM   44  O   UNK N   1      21.782  14.485   3.351  0.00  0.00    -0.624 OA
HETATM   45  O   UNK N   1      19.532  14.545   2.218  0.00  0.00    -0.624 OA
BRANCH  43  46
HETATM   46  O   UNK N   1      21.209  16.888   2.834  0.00  0.00    -0.279 OA
BRANCH  46  47
HETATM   47  C   UNK N   1      21.540  16.783   4.207  0.00  0.00     0.198 C 
HETATM   48  C   UNK N   1      22.321  17.996   4.740  0.00  0.00     0.180 C 
HETATM   49  O   UNK N   1      21.977  18.272   6.082  0.00  0.00    -0.353 OA
HETATM   50  C   UNK N   1      21.062  17.249   6.451  0.00  0.00     0.261 C 
HETATM   51  C   UNK N   1      20.359  16.874   5.174  0.00  0.00     0.199 C 
BRANCH  48  52
HETATM   52  C   UNK N   1      23.735  18.384   4.256  0.00  0.00     0.198 C 
BRANCH  52  53
HETATM   53  O   UNK N   1      24.642  18.534   5.313  0.00  0.00    -0.398 OA
HETATM   54  H   UNK N   1      24.675  18.572   6.282  0.00  0.00     0.209 HD
ENDBRANCH  52  53
ENDBRANCH  48  52
BRANCH  50  55
HETATM   55  N   UNK N   1      21.781  16.047   6.834  0.00  0.00    -0.311 N 
HETATM   56  C   UNK N   1      22.992  15.691   6.351  0.00  0.00     0.186 A 
HETATM   57  N   UNK N   1      23.518  14.664   7.057  0.00  0.00    -0.350 N 
HETATM   58  C   UNK N   1      22.594  14.393   7.994  0.00  0.00     0.062 A 
ATOM     59  HN  UNK N   1      24.416  14.202   6.913  1.00  0.00     0.166 HD
HETATM   60  C   UNK N   1      21.531  15.209   7.849  0.00  0.00     0.064 A 
HETATM   61  C   UNK N   1      22.655  13.439   8.992  0.00  0.00     0.068 A 
HETATM   62  C   UNK N   1      20.434  15.144   8.703  0.00  0.00     0.035 A 
HETATM   63  C   UNK N   1      20.440  14.187   9.715  0.00  0.00     0.039 A 
HETATM   64  C   UNK N   1      21.549  13.317   9.853  0.00  0.00     0.070 A 
BRANCH  64  65
HETATM   65  O   UNK N   1      21.537  12.313  10.751  0.00  0.00    -0.356 OA
HETATM   66  C   UNK N   1      22.683  11.641  11.106  0.00  0.00     0.210 C 
ENDBRANCH  64  65
ENDBRANCH  50  55
BRANCH  51  67
HETATM   67  O   UNK N   1      19.490  15.780   5.219  0.00  0.00    -0.388 OA
HETATM   68  H   UNK N   1      19.550  15.020   5.818  0.00  0.00     0.210 HD
ENDBRANCH  51  67
ENDBRANCH  46  47
ENDBRANCH  43  46
ENDBRANCH  42  43
ENDBRANCH  40  42
ENDBRANCH  39  40
ENDBRANCH  37  39
ENDBRANCH  34  35
ENDBRANCH  33  34
ENDBRANCH   4  33
BRANCH   5  69
HETATM   69  C   UNK N   1      29.687  12.425   0.708  0.00  0.00     0.114 C 
BRANCH  69  70
HETATM   70  C   UNK N   1      28.508  11.538   0.844  0.00  0.00     0.216 C 
HETATM   71  O   UNK N   1      27.476  11.952   1.345  0.00  0.00    -0.274 OA
HETATM   72  N   UNK N   1      28.573  10.282   0.371  0.00  0.00    -0.370 N 
HETATM   73  H   UNK N   1      28.912   9.545   0.928  0.00  0.00     0.159 HD
HETATM   74  H   UNK N   1      28.277  10.095  -0.549  0.00  0.00     0.159 HD
ENDBRANCH  69  70
ENDBRANCH   5  69
BRANCH  11  75
HETATM   75  C   UNK N   1      29.406  17.164   6.250  0.00  0.00     0.021 C 
BRANCH  75  76
HETATM   76  C   UNK N   1      28.616  18.305   5.609  0.00  0.00     0.103 C 
BRANCH  76  77
HETATM   77  C   UNK N   1      27.807  19.055   6.623  0.00  0.00     0.215 C 
HETATM   78  O   UNK N   1      27.165  20.038   6.293  0.00  0.00    -0.274 OA
HETATM   79  N   UNK N   1      27.838  18.675   7.916  0.00  0.00    -0.370 N 
HETATM   80  H   UNK N   1      27.031  18.580   8.472  0.00  0.00     0.159 HD
HETATM   81  H   UNK N   1      28.713  18.485   8.326  0.00  0.00     0.159 HD
ENDBRANCH  76  77
ENDBRANCH  75  76
ENDBRANCH  11  75
BRANCH  28  82
HETATM   82  C   UNK N   1      35.496  13.893   9.131  0.00  0.00     0.021 C 
BRANCH  82  83
HETATM   83  C   UNK N   1      35.715  13.306  10.523  0.00  0.00     0.103 C 
BRANCH  83  84
HETATM   84  C   UNK N   1      35.364  14.271  11.594  0.00  0.00     0.215 C 
HETATM   85  O   UNK N   1      34.222  14.692  11.688  0.00  0.00    -0.274 OA
HETATM   86  N   UNK N   1      36.331  14.742  12.405  0.00  0.00    -0.370 N 
HETATM   87  H   UNK N   1      37.282  14.573  12.595  0.00  0.00     0.159 HD
HETATM   88  H   UNK N   1      35.987  15.468  12.974  0.00  0.00     0.159 HD
ENDBRANCH  83  84
ENDBRANCH  82  83
ENDBRANCH  28  82
BRANCH  27  89
HETATM   89  C   UNK N   1      36.819  11.518   6.947  0.00  0.00     0.118 C 
BRANCH  89  90
HETATM   90  C   UNK N   1      37.294  10.851   8.185  0.00  0.00     0.216 C 
HETATM   91  O   UNK N   1      38.187  11.333   8.859  0.00  0.00    -0.274 OA
HETATM   92  N   UNK N   1      36.568   9.840   8.681  0.00  0.00    -0.370 N 
HETATM   93  H   UNK N   1      36.160   9.146   8.114  0.00  0.00     0.159 HD
HETATM   94  H   UNK N   1      36.436   9.790   9.655  0.00  0.00     0.159 HD
ENDBRANCH  89  90
ENDBRANCH  27  89
BRANCH  23  95
HETATM   95  C   UNK N   1      34.795   9.224   2.986  0.00  0.00     0.020 C 
BRANCH  95  96
HETATM   96  C   UNK N   1      34.876   7.813   3.551  0.00  0.00     0.103 C 
BRANCH  96  97
HETATM   97  C   UNK N   1      36.230   7.526   4.148  0.00  0.00     0.215 C 
HETATM   98  O   UNK N   1      36.977   6.723   3.614  0.00  0.00    -0.274 OA
HETATM   99  N   UNK N   1      36.628   8.170   5.263  0.00  0.00    -0.370 N 
HETATM  100  H   UNK N   1      36.820   7.769   6.141  0.00  0.00     0.159 HD
HETATM  101  H   UNK N   1      36.739   9.145   5.191  0.00  0.00     0.159 HD
ENDBRANCH  96  97
ENDBRANCH  95  96
ENDBRANCH  23  95
BRANCH  22 102
HETATM  102  C   UNK N   1      31.778   8.988   1.984  0.00  0.00     0.115 C 
BRANCH 102 103
HETATM  103  C   UNK N   1      31.754   8.273   0.701  0.00  0.00     0.216 C 
HETATM  104  O   UNK N   1      30.938   8.549  -0.148  0.00  0.00    -0.274 OA
HETATM  105  N   UNK N   1      32.702   7.350   0.453  0.00  0.00    -0.370 N 
HETATM  106  H   UNK N   1      33.482   7.037   0.967  0.00  0.00     0.159 HD
HETATM  107  H   UNK N   1      32.595   6.898  -0.415  0.00  0.00     0.159 HD
ENDBRANCH 102 103
ENDBRANCH  22 102
TORSDOF 30
ENDMDL
MODEL 6
REMARK VINA RESULT:      -7.3      4.462     10.765
REMARK  30 active torsions:
REMARK  status: ('A' for Active; 'I' for Inactive)
REMARK    1  A    between atoms: C_4  and  C_60 
REMARK    2  A    between atoms: C_5  and  C_55 
REMARK    3  A    between atoms: C_6  and  C_21 
REMARK    4  A    between atoms: C_11  and  C_50 
REMARK    5  A    between atoms: C_22  and  C_30 
REMARK    6  A    between atoms: C_23  and  C_24 
REMARK    7  A    between atoms: C_24  and  C_25 
REMARK    8  A    between atoms: C_25  and  C_26 
REMARK       I    between atoms: C_26  and  N_28 
REMARK    9  A    between atoms: C_30  and  C_31 
REMARK       I    between atoms: C_31  and  N_33 
REMARK   10  A    between atoms: C_36  and  C_44 
REMARK   11  A    between atoms: C_37  and  C_38 
REMARK   12  A    between atoms: C_38  and  C_39 
REMARK   13  A    between atoms: C_39  and  C_40 
REMARK       I    between atoms: C_40  and  N_42 
REMARK   14  A    between atoms: C_44  and  C_45 
REMARK       I    between atoms: C_45  and  N_47 
REMARK   15  A    between atoms: C_50  and  C_51 
REMARK   16  A    between atoms: C_51  and  C_52 
REMARK       I    between atoms: C_52  and  N_54 
REMARK   17  A    between atoms: C_55  and  C_56 
REMARK       I    between atoms: C_56  and  N_58 
REMARK   18  A    between atoms: C_60  and  C_61 
REMARK   19  A    between atoms: C_61  and  C_62 
REMARK       I    between atoms: C_62  and  N_64 
REMARK   20  A    between atoms: N_64  and  C_65 
REMARK   21  A    between atoms: C_65  and  C_66 
REMARK   22  A    between atoms: C_66  and  O_68 
REMARK   23  A    between atoms: P_69  and  O_68 
REMARK   24  A    between atoms: P_69  and  O_72 
REMARK   25  A    between atoms: C_73  and  O_72 
REMARK   26  A    between atoms: C_74  and  C_91 
REMARK   27  A    between atoms: C_76  and  N_79 
REMARK   28  A    between atoms: C_77  and  O_78 
REMARK   29  A    between atoms: C_87  and  O_89 
REMARK   30  A    between atoms: C_91  and  O_92 
ROOT
HETATM    1  C   UNK N   1      25.205  15.166   6.809  0.00  0.00     0.022 C 
HETATM    2  C   UNK N   1      25.973  15.799   5.683  0.00  0.00     0.078 C 
HETATM    3  C   UNK N   1      26.873  15.047   5.047  0.00  0.00     0.031 C 
HETATM    4  C   UNK N   1      27.919  15.464   4.135  0.00  0.00     0.007 C 
HETATM    5  C   UNK N   1      28.599  13.985   4.345  0.00  0.00     0.059 C 
HETATM    6  C   UNK N   1      27.416  13.183   4.145  0.00  0.00     0.049 C 
HETATM    7  N   UNK N   1      26.474  13.961   4.417  0.00  0.00    -0.262 N 
HETATM    8 Co   UNK N   1      24.988  13.962   3.402  0.00  0.00     0.000 Co
HETATM    9  N   UNK N   1      24.428  15.700   4.007  0.00  0.00    -0.260 N 
HETATM   10  C   UNK N   1      25.060  16.424   4.833  0.00  0.00     0.027 C 
HETATM   11  C   UNK N   1      24.460  17.774   5.083  0.00  0.00     0.048 C 
HETATM   12  C   UNK N   1      23.073  17.536   4.482  0.00  0.00     0.006 C 
HETATM   13  C   UNK N   1      23.355  16.405   3.516  0.00  0.00     0.045 C 
HETATM   14  C   UNK N   1      22.489  15.889   2.631  0.00  0.00     0.055 C 
HETATM   15  C   UNK N   1      22.557  14.491   2.117  0.00  0.00     0.041 C 
HETATM   16  N   UNK N   1      23.517  13.698   2.373  0.00  0.00    -0.260 N 
HETATM   17  C   UNK N   1      23.135  12.380   2.143  0.00  0.00     0.031 C 
HETATM   18  C   UNK N   1      23.932  11.492   1.634  0.00  0.00     0.078 C 
HETATM   19  C   UNK N   1      25.250  11.441   2.184  0.00  0.00     0.022 C 
HETATM   20  N   UNK N   1      25.727  12.344   2.879  0.00  0.00    -0.280 N 
HETATM   21  C   UNK N   1      27.161  12.238   3.037  0.00  0.00     0.099 C 
HETATM   22  C   UNK N   1      27.427  10.721   2.877  0.00  0.00     0.005 C 
HETATM   23  C   UNK N   1      26.174  10.336   2.033  0.00  0.00     0.046 C 
HETATM   24  C   UNK N   1      27.587  10.079   4.252  0.00  0.00     0.019 C 
HETATM   25  C   UNK N   1      27.844  12.907   1.806  0.00  0.00     0.048 C 
HETATM   26  C   UNK N   1      24.021  11.691   0.149  0.00  0.00     0.022 C 
HETATM   27  C   UNK N   1      21.677  12.263   2.260  0.00  0.00     0.015 C 
HETATM   28  C   UNK N   1      21.348  13.673   1.645  0.00  0.00     0.052 C 
HETATM   29  C   UNK N   1      21.454  12.225   3.778  0.00  0.00     0.023 C 
HETATM   30  C   UNK N   1      22.365  16.948   5.691  0.00  0.00     0.022 C 
HETATM   31  C   UNK N   1      22.274  18.739   4.028  0.00  0.00     0.022 C 
HETATM   32  C   UNK N   1      27.441  15.574   2.664  0.00  0.00     0.022 C 
ENDROOT
BRANCH   4  33
HETATM   33  C   UNK N   1      28.080  16.959   4.296  0.00  0.00     0.025 C 
BRANCH  33  34
HETATM   34  C   UNK N   1      29.325  17.524   4.904  0.00  0.00     0.104 C 
BRANCH  34  35
HETATM   35  C   UNK N   1      29.281  17.542   6.389  0.00  0.00     0.217 C 
HETATM   36  O   UNK N   1      28.265  17.962   6.918  0.00  0.00    -0.274 OA
HETATM   37  N   UNK N   1      30.304  17.091   7.170  0.00  0.00    -0.359 N 
HETATM   38  H   UNK N   1      30.120  17.168   8.135  0.00  0.00     0.162 HD
BRANCH  37  39
HETATM   39  C   UNK N   1      31.631  16.510   6.872  0.00  0.00     0.154 C 
BRANCH  39  40
HETATM   40  C   UNK N   1      32.984  16.710   7.692  0.00  0.00     0.148 C 
HETATM   41  C   UNK N   1      33.355  18.163   7.904  0.00  0.00     0.042 C 
BRANCH  40  42
HETATM   42  O   UNK N   1      34.146  16.011   7.325  0.00  0.00    -0.283 OA
BRANCH  42  43
HETATM   43  P   UNK N   1      34.447  14.786   8.492  0.00  0.00     0.409 P 
HETATM   44  O   UNK N   1      33.521  13.615   8.128  0.00  0.00    -0.624 OA
HETATM   45  O   UNK N   1      33.870  15.161  10.087  0.00  0.00    -0.624 OA
BRANCH  43  46
HETATM   46  O   UNK N   1      35.998  14.006   8.409  0.00  0.00    -0.279 OA
BRANCH  46  47
HETATM   47  C   UNK N   1      36.156  13.272   9.609  0.00  0.00     0.198 C 
HETATM   48  C   UNK N   1      36.839  11.909   9.405  0.00  0.00     0.180 C 
HETATM   49  O   UNK N   1      37.652  11.577  10.511  0.00  0.00    -0.353 OA
HETATM   50  C   UNK N   1      37.467  12.636  11.441  0.00  0.00     0.261 C 
HETATM   51  C   UNK N   1      37.168  13.848  10.600  0.00  0.00     0.199 C 
BRANCH  48  52
HETATM   52  C   UNK N   1      36.220  10.756   8.584  0.00  0.00     0.198 C 
BRANCH  52  53
HETATM   53  O   UNK N   1      35.175  11.186   7.757  0.00  0.00    -0.398 OA
HETATM   54  H   UNK N   1      34.207  11.166   7.689  0.00  0.00     0.209 HD
ENDBRANCH  52  53
ENDBRANCH  48  52
BRANCH  50  55
HETATM   55  N   UNK N   1      36.255  12.422  12.211  0.00  0.00    -0.311 N 
HETATM   56  C   UNK N   1      35.224  11.641  11.817  0.00  0.00     0.186 A 
HETATM   57  N   UNK N   1      34.350  11.438  12.828  0.00  0.00    -0.350 N 
HETATM   58  C   UNK N   1      34.869  12.120  13.863  0.00  0.00     0.062 A 
ATOM     59  HN  UNK N   1      33.490  10.890  12.810  1.00  0.00     0.166 HD
HETATM   60  C   UNK N   1      36.007  12.736  13.489  0.00  0.00     0.064 A 
HETATM   61  C   UNK N   1      34.370  12.217  15.148  0.00  0.00     0.068 A 
HETATM   62  C   UNK N   1      36.754  13.502  14.381  0.00  0.00     0.035 A 
HETATM   63  C   UNK N   1      36.284  13.645  15.684  0.00  0.00     0.039 A 
HETATM   64  C   UNK N   1      35.077  13.013  16.069  0.00  0.00     0.070 A 
BRANCH  64  65
HETATM   65  O   UNK N   1      34.542  13.221  17.287  0.00  0.00    -0.356 OA
HETATM   66  C   UNK N   1      35.280  13.732  18.329  0.00  0.00     0.210 C 
ENDBRANCH  64  65
ENDBRANCH  50  55
BRANCH  51  67
HETATM   67  O   UNK N   1      36.804  15.018  11.271  0.00  0.00    -0.388 OA
HETATM   68  H   UNK N   1      37.389  15.757  11.502  0.00  0.00     0.210 HD
ENDBRANCH  51  67
ENDBRANCH  46  47
ENDBRANCH  43  46
ENDBRANCH  42  43
ENDBRANCH  40  42
ENDBRANCH  39  40
ENDBRANCH  37  39
ENDBRANCH  34  35
ENDBRANCH  33  34
ENDBRANCH   4  33
BRANCH   5  69
HETATM   69  C   UNK N   1      29.853  13.156   4.583  0.00  0.00     0.114 C 
BRANCH  69  70
HETATM   70  C   UNK N   1      31.059  13.810   4.025  0.00  0.00     0.216 C 
HETATM   71  O   UNK N   1      30.970  14.567   3.073  0.00  0.00    -0.274 OA
HETATM   72  N   UNK N   1      32.252  13.593   4.606  0.00  0.00    -0.370 N 
HETATM   73  H   UNK N   1      32.816  12.831   4.341  0.00  0.00     0.159 HD
HETATM   74  H   UNK N   1      32.567  14.207   5.308  0.00  0.00     0.159 HD
ENDBRANCH  69  70
ENDBRANCH   5  69
BRANCH  11  75
HETATM   75  C   UNK N   1      25.297  18.853   4.383  0.00  0.00     0.021 C 
BRANCH  75  76
HETATM   76  C   UNK N   1      25.833  19.875   5.387  0.00  0.00     0.103 C 
BRANCH  76  77
HETATM   77  C   UNK N   1      27.095  20.519   4.897  0.00  0.00     0.215 C 
HETATM   78  O   UNK N   1      27.748  21.235   5.639  0.00  0.00    -0.274 OA
HETATM   79  N   UNK N   1      27.474  20.356   3.614  0.00  0.00    -0.370 N 
HETATM   80  H   UNK N   1      28.395  20.129   3.347  0.00  0.00     0.159 HD
HETATM   81  H   UNK N   1      26.797  20.470   2.909  0.00  0.00     0.159 HD
ENDBRANCH  76  77
ENDBRANCH  75  76
ENDBRANCH  11  75
BRANCH  28  82
HETATM   82  C   UNK N   1      19.946  14.265   1.853  0.00  0.00     0.021 C 
BRANCH  82  83
HETATM   83  C   UNK N   1      19.118  14.481   0.588  0.00  0.00     0.103 C 
BRANCH  83  84
HETATM   84  C   UNK N   1      19.171  15.889   0.123  0.00  0.00     0.215 C 
HETATM   85  O   UNK N   1      20.230  16.497   0.134  0.00  0.00    -0.274 OA
HETATM   86  N   UNK N   1      18.030  16.515  -0.228  0.00  0.00    -0.370 N 
HETATM   87  H   UNK N   1      17.082  16.293  -0.373  0.00  0.00     0.159 HD
HETATM   88  H   UNK N   1      18.192  17.473  -0.384  0.00  0.00     0.159 HD
ENDBRANCH  83  84
ENDBRANCH  82  83
ENDBRANCH  28  82
BRANCH  27  89
HETATM   89  C   UNK N   1      20.994  10.940   1.897  0.00  0.00     0.118 C 
BRANCH  89  90
HETATM   90  C   UNK N   1      19.582  10.832   1.451  0.00  0.00     0.216 C 
HETATM   91  O   UNK N   1      18.663  10.878   2.248  0.00  0.00    -0.274 OA
HETATM   92  N   UNK N   1      19.321  10.926   0.141  0.00  0.00    -0.370 N 
HETATM   93  H   UNK N   1      19.878  10.495  -0.548  0.00  0.00     0.159 HD
HETATM   94  H   UNK N   1      18.538  11.449  -0.147  0.00  0.00     0.159 HD
ENDBRANCH  89  90
ENDBRANCH  27  89
BRANCH  23  95
HETATM   95  C   UNK N   1      25.577   8.955   2.220  0.00  0.00     0.020 C 
BRANCH  95  96
HETATM   96  C   UNK N   1      25.626   8.232   0.881  0.00  0.00     0.103 C 
BRANCH  96  97
HETATM   97  C   UNK N   1      24.249   8.034   0.300  0.00  0.00     0.215 C 
HETATM   98  O   UNK N   1      24.100   7.947  -0.907  0.00  0.00    -0.274 OA
HETATM   99  N   UNK N   1      23.180   7.933   1.115  0.00  0.00    -0.370 N 
HETATM  100  H   UNK N   1      22.416   8.551   1.168  0.00  0.00     0.159 HD
HETATM  101  H   UNK N   1      23.161   7.158   1.721  0.00  0.00     0.159 HD
ENDBRANCH  96  97
ENDBRANCH  95  96
ENDBRANCH  23  95
BRANCH  22 102
HETATM  102  C   UNK N   1      28.474  10.237   1.865  0.00  0.00     0.115 C 
BRANCH 102 103
HETATM  103  C   UNK N   1      29.792   9.709   2.241  0.00  0.00     0.216 C 
HETATM  104  O   UNK N   1      29.965   8.522   2.394  0.00  0.00    -0.274 OA
HETATM  105  N   UNK N   1      30.829  10.562   2.342  0.00  0.00    -0.370 N 
HETATM  106  H   UNK N   1      30.916  11.531   2.189  0.00  0.00     0.159 HD
HETATM  107  H   UNK N   1      31.667  10.131   2.627  0.00  0.00     0.159 HD
ENDBRANCH 102 103
ENDBRANCH  22 102
TORSDOF 30
ENDMDL
MODEL 7
REMARK VINA RESULT:      -7.3      2.041      2.954
REMARK  30 active torsions:
REMARK  status: ('A' for Active; 'I' for Inactive)
REMARK    1  A    between atoms: C_4  and  C_60 
REMARK    2  A    between atoms: C_5  and  C_55 
REMARK    3  A    between atoms: C_6  and  C_21 
REMARK    4  A    between atoms: C_11  and  C_50 
REMARK    5  A    between atoms: C_22  and  C_30 
REMARK    6  A    between atoms: C_23  and  C_24 
REMARK    7  A    between atoms: C_24  and  C_25 
REMARK    8  A    between atoms: C_25  and  C_26 
REMARK       I    between atoms: C_26  and  N_28 
REMARK    9  A    between atoms: C_30  and  C_31 
REMARK       I    between atoms: C_31  and  N_33 
REMARK   10  A    between atoms: C_36  and  C_44 
REMARK   11  A    between atoms: C_37  and  C_38 
REMARK   12  A    between atoms: C_38  and  C_39 
REMARK   13  A    between atoms: C_39  and  C_40 
REMARK       I    between atoms: C_40  and  N_42 
REMARK   14  A    between atoms: C_44  and  C_45 
REMARK       I    between atoms: C_45  and  N_47 
REMARK   15  A    between atoms: C_50  and  C_51 
REMARK   16  A    between atoms: C_51  and  C_52 
REMARK       I    between atoms: C_52  and  N_54 
REMARK   17  A    between atoms: C_55  and  C_56 
REMARK       I    between atoms: C_56  and  N_58 
REMARK   18  A    between atoms: C_60  and  C_61 
REMARK   19  A    between atoms: C_61  and  C_62 
REMARK       I    between atoms: C_62  and  N_64 
REMARK   20  A    between atoms: N_64  and  C_65 
REMARK   21  A    between atoms: C_65  and  C_66 
REMARK   22  A    between atoms: C_66  and  O_68 
REMARK   23  A    between atoms: P_69  and  O_68 
REMARK   24  A    between atoms: P_69  and  O_72 
REMARK   25  A    between atoms: C_73  and  O_72 
REMARK   26  A    between atoms: C_74  and  C_91 
REMARK   27  A    between atoms: C_76  and  N_79 
REMARK   28  A    between atoms: C_77  and  O_78 
REMARK   29  A    between atoms: C_87  and  O_89 
REMARK   30  A    between atoms: C_91  and  O_92 
ROOT
HETATM    1  C   UNK N   1      26.512  12.953   5.749  0.00  0.00     0.022 C 
HETATM    2  C   UNK N   1      26.553  14.159   4.853  0.00  0.00     0.078 C 
HETATM    3  C   UNK N   1      27.413  15.131   5.162  0.00  0.00     0.031 C 
HETATM    4  C   UNK N   1      27.469  16.486   4.649  0.00  0.00     0.007 C 
HETATM    5  C   UNK N   1      28.456  16.849   5.910  0.00  0.00     0.059 C 
HETATM    6  C   UNK N   1      29.368  15.738   5.786  0.00  0.00     0.049 C 
HETATM    7  N   UNK N   1      28.703  14.867   5.183  0.00  0.00    -0.262 N 
HETATM    8 Co   UNK N   1      29.476  13.882   3.890  0.00  0.00     0.000 Co
HETATM    9  N   UNK N   1      27.795  13.355   3.116  0.00  0.00    -0.260 N 
HETATM   10  C   UNK N   1      26.654  13.716   3.534  0.00  0.00     0.027 C 
HETATM   11  C   UNK N   1      25.497  13.238   2.712  0.00  0.00     0.048 C 
HETATM   12  C   UNK N   1      26.211  12.159   1.894  0.00  0.00     0.006 C 
HETATM   13  C   UNK N   1      27.645  12.640   1.951  0.00  0.00     0.045 C 
HETATM   14  C   UNK N   1      28.682  12.112   1.283  0.00  0.00     0.055 C 
HETATM   15  C   UNK N   1      30.098  12.195   1.744  0.00  0.00     0.041 C 
HETATM   16  N   UNK N   1      30.468  12.883   2.745  0.00  0.00    -0.260 N 
HETATM   17  C   UNK N   1      31.713  12.456   3.197  0.00  0.00     0.031 C 
HETATM   18  C   UNK N   1      32.622  13.269   3.638  0.00  0.00     0.078 C 
HETATM   19  C   UNK N   1      32.180  14.268   4.559  0.00  0.00     0.022 C 
HETATM   20  N   UNK N   1      30.990  14.557   4.721  0.00  0.00    -0.280 N 
HETATM   21  C   UNK N   1      30.802  15.803   5.432  0.00  0.00     0.099 C 
HETATM   22  C   UNK N   1      32.085  15.919   6.292  0.00  0.00     0.005 C 
HETATM   23  C   UNK N   1      33.041  15.037   5.433  0.00  0.00     0.046 C 
HETATM   24  C   UNK N   1      31.790  15.472   7.720  0.00  0.00     0.019 C 
HETATM   25  C   UNK N   1      30.885  16.974   4.408  0.00  0.00     0.048 C 
HETATM   26  C   UNK N   1      33.307  13.932   2.479  0.00  0.00     0.022 C 
HETATM   27  C   UNK N   1      31.926  11.058   2.804  0.00  0.00     0.015 C 
HETATM   28  C   UNK N   1      31.183  11.160   1.421  0.00  0.00     0.052 C 
HETATM   29  C   UNK N   1      31.109  10.279   3.845  0.00  0.00     0.023 C 
HETATM   30  C   UNK N   1      26.078  10.982   2.847  0.00  0.00     0.022 C 
HETATM   31  C   UNK N   1      25.603  11.743   0.571  0.00  0.00     0.022 C 
HETATM   32  C   UNK N   1      28.290  16.611   3.340  0.00  0.00     0.022 C 
ENDROOT
BRANCH   4  33
HETATM   33  C   UNK N   1      26.149  16.758   3.964  0.00  0.00     0.025 C 
BRANCH  33  34
HETATM   34  C   UNK N   1      25.894  18.080   3.313  0.00  0.00     0.104 C 
BRANCH  34  35
HETATM   35  C   UNK N   1      25.501  19.132   4.285  0.00  0.00     0.217 C 
HETATM   36  O   UNK N   1      26.140  19.208   5.323  0.00  0.00    -0.274 OA
HETATM   37  N   UNK N   1      24.489  20.018   4.057  0.00  0.00    -0.359 N 
HETATM   38  H   UNK N   1      24.354  20.654   4.797  0.00  0.00     0.162 HD
BRANCH  37  39
HETATM   39  C   UNK N   1      23.552  20.222   2.932  0.00  0.00     0.154 C 
BRANCH  39  40
HETATM   40  C   UNK N   1      21.991  19.899   2.899  0.00  0.00     0.148 C 
HETATM   41  C   UNK N   1      21.210  20.778   1.942  0.00  0.00     0.042 C 
BRANCH  40  42
HETATM   42  O   UNK N   1      21.260  19.800   4.094  0.00  0.00    -0.283 OA
BRANCH  42  43
HETATM   43  P   UNK N   1      20.963  18.140   4.425  0.00  0.00     0.409 P 
HETATM   44  O   UNK N   1      22.082  17.359   3.718  0.00  0.00    -0.624 OA
HETATM   45  O   UNK N   1      19.567  17.489   3.622  0.00  0.00    -0.624 OA
BRANCH  43  46
HETATM   46  O   UNK N   1      21.202  17.627   6.069  0.00  0.00    -0.279 OA
BRANCH  46  47
HETATM   47  C   UNK N   1      21.061  16.218   6.086  0.00  0.00     0.198 C 
HETATM   48  C   UNK N   1      22.154  15.506   6.902  0.00  0.00     0.180 C 
HETATM   49  O   UNK N   1      21.640  14.358   7.546  0.00  0.00    -0.353 OA
HETATM   50  C   UNK N   1      20.286  14.269   7.125  0.00  0.00     0.261 C 
HETATM   51  C   UNK N   1      19.860  15.690   6.870  0.00  0.00     0.199 C 
BRANCH  48  52
HETATM   52  C   UNK N   1      23.651  15.520   6.523  0.00  0.00     0.198 C 
BRANCH  52  53
HETATM   53  O   UNK N   1      24.090  16.785   6.111  0.00  0.00    -0.398 OA
HETATM   54  H   UNK N   1      24.623  17.536   6.415  0.00  0.00     0.209 HD
ENDBRANCH  52  53
ENDBRANCH  48  52
BRANCH  50  55
HETATM   55  N   UNK N   1      20.206  13.629   5.824  0.00  0.00    -0.311 N 
HETATM   56  C   UNK N   1      19.864  14.261   4.679  0.00  0.00     0.186 A 
HETATM   57  N   UNK N   1      20.107  13.484   3.599  0.00  0.00    -0.350 N 
HETATM   58  C   UNK N   1      20.609  12.347   4.110  0.00  0.00     0.062 A 
ATOM     59  HN  UNK N   1      19.946  13.710   2.618  1.00  0.00     0.166 HD
HETATM   60  C   UNK N   1      20.649  12.420   5.455  0.00  0.00     0.064 A 
HETATM   61  C   UNK N   1      21.045  11.230   3.423  0.00  0.00     0.068 A 
HETATM   62  C   UNK N   1      21.142  11.375   6.233  0.00  0.00     0.035 A 
HETATM   63  C   UNK N   1      21.577  10.220   5.588  0.00  0.00     0.039 A 
HETATM   64  C   UNK N   1      21.516  10.137   4.175  0.00  0.00     0.070 A 
BRANCH  64  65
HETATM   65  O   UNK N   1      21.827   8.997   3.532  0.00  0.00    -0.356 OA
HETATM   66  C   UNK N   1      23.124   8.551   3.427  0.00  0.00     0.210 C 
ENDBRANCH  64  65
ENDBRANCH  50  55
BRANCH  51  67
HETATM   67  O   UNK N   1      18.597  15.888   6.306  0.00  0.00    -0.388 OA
HETATM   68  H   UNK N   1      18.226  15.419   5.543  0.00  0.00     0.210 HD
ENDBRANCH  51  67
ENDBRANCH  46  47
ENDBRANCH  43  46
ENDBRANCH  42  43
ENDBRANCH  40  42
ENDBRANCH  39  40
ENDBRANCH  37  39
ENDBRANCH  34  35
ENDBRANCH  33  34
ENDBRANCH   4  33
BRANCH   5  69
HETATM   69  C   UNK N   1      28.828  17.810   7.031  0.00  0.00     0.114 C 
BRANCH  69  70
HETATM   70  C   UNK N   1      27.940  17.656   8.206  0.00  0.00     0.216 C 
HETATM   71  O   UNK N   1      27.359  16.602   8.411  0.00  0.00    -0.274 OA
HETATM   72  N   UNK N   1      27.810  18.677   9.070  0.00  0.00    -0.370 N 
HETATM   73  H   UNK N   1      27.135  19.379   8.932  0.00  0.00     0.159 HD
HETATM   74  H   UNK N   1      28.403  18.724   9.855  0.00  0.00     0.159 HD
ENDBRANCH  69  70
ENDBRANCH   5  69
BRANCH  11  75
HETATM   75  C   UNK N   1      24.923  14.402   1.893  0.00  0.00     0.021 C 
BRANCH  75  76
HETATM   76  C   UNK N   1      23.476  14.696   2.288  0.00  0.00     0.103 C 
BRANCH  76  77
HETATM   77  C   UNK N   1      22.531  14.444   1.152  0.00  0.00     0.215 C 
HETATM   78  O   UNK N   1      21.722  15.296   0.826  0.00  0.00    -0.274 OA
HETATM   79  N   UNK N   1      22.537  13.248   0.530  0.00  0.00    -0.370 N 
HETATM   80  H   UNK N   1      22.530  13.148  -0.449  0.00  0.00     0.159 HD
HETATM   81  H   UNK N   1      22.549  12.435   1.084  0.00  0.00     0.159 HD
ENDBRANCH  76  77
ENDBRANCH  75  76
ENDBRANCH  11  75
BRANCH  28  82
HETATM   82  C   UNK N   1      30.764   9.867   0.706  0.00  0.00     0.021 C 
BRANCH  82  83
HETATM   83  C   UNK N   1      31.249   9.712  -0.734  0.00  0.00     0.103 C 
BRANCH  83  84
HETATM   84  C   UNK N   1      30.226  10.152  -1.715  0.00  0.00     0.215 C 
HETATM   85  O   UNK N   1      29.523   9.327  -2.276  0.00  0.00    -0.274 OA
HETATM   86  N   UNK N   1      30.139  11.456  -2.042  0.00  0.00    -0.370 N 
HETATM   87  H   UNK N   1      30.516  12.317  -1.749  0.00  0.00     0.159 HD
HETATM   88  H   UNK N   1      29.518  11.586  -2.795  0.00  0.00     0.159 HD
ENDBRANCH  83  84
ENDBRANCH  82  83
ENDBRANCH  28  82
BRANCH  27  89
HETATM   89  C   UNK N   1      33.289  10.403   3.050  0.00  0.00     0.118 C 
BRANCH  89  90
HETATM   90  C   UNK N   1      34.310  10.195   1.992  0.00  0.00     0.216 C 
HETATM   91  O   UNK N   1      35.177  11.023   1.780  0.00  0.00    -0.274 OA
HETATM   92  N   UNK N   1      34.412   8.980   1.438  0.00  0.00    -0.370 N 
HETATM   93  H   UNK N   1      33.629   8.433   1.198  0.00  0.00     0.159 HD
HETATM   94  H   UNK N   1      35.310   8.616   1.264  0.00  0.00     0.159 HD
ENDBRANCH  89  90
ENDBRANCH  27  89
BRANCH  23  95
HETATM   95  C   UNK N   1      34.124  14.248   6.142  0.00  0.00     0.020 C 
BRANCH  95  96
HETATM   96  C   UNK N   1      35.475  14.730   5.632  0.00  0.00     0.103 C 
BRANCH  96  97
HETATM   97  C   UNK N   1      36.314  13.592   5.110  0.00  0.00     0.215 C 
HETATM   98  O   UNK N   1      35.789  12.538   4.793  0.00  0.00    -0.274 OA
HETATM   99  N   UNK N   1      37.647  13.742   4.974  0.00  0.00    -0.370 N 
HETATM  100  H   UNK N   1      38.350  13.250   5.456  0.00  0.00     0.159 HD
HETATM  101  H   UNK N   1      37.949  14.415   4.323  0.00  0.00     0.159 HD
ENDBRANCH  96  97
ENDBRANCH  95  96
ENDBRANCH  23  95
BRANCH  22 102
HETATM  102  C   UNK N   1      32.927  17.201   6.228  0.00  0.00     0.115 C 
BRANCH 102 103
HETATM  103  C   UNK N   1      33.492  17.868   7.408  0.00  0.00     0.216 C 
HETATM  104  O   UNK N   1      32.824  18.629   8.070  0.00  0.00    -0.274 OA
HETATM  105  N   UNK N   1      34.748  17.566   7.786  0.00  0.00    -0.370 N 
HETATM  106  H   UNK N   1      35.418  16.933   7.438  0.00  0.00     0.159 HD
HETATM  107  H   UNK N   1      35.059  18.079   8.567  0.00  0.00     0.159 HD
ENDBRANCH 102 103
ENDBRANCH  22 102
TORSDOF 30
ENDMDL
MODEL 8
REMARK VINA RESULT:      -7.0      4.329     10.588
REMARK  30 active torsions:
REMARK  status: ('A' for Active; 'I' for Inactive)
REMARK    1  A    between atoms: C_4  and  C_60 
REMARK    2  A    between atoms: C_5  and  C_55 
REMARK    3  A    between atoms: C_6  and  C_21 
REMARK    4  A    between atoms: C_11  and  C_50 
REMARK    5  A    between atoms: C_22  and  C_30 
REMARK    6  A    between atoms: C_23  and  C_24 
REMARK    7  A    between atoms: C_24  and  C_25 
REMARK    8  A    between atoms: C_25  and  C_26 
REMARK       I    between atoms: C_26  and  N_28 
REMARK    9  A    between atoms: C_30  and  C_31 
REMARK       I    between atoms: C_31  and  N_33 
REMARK   10  A    between atoms: C_36  and  C_44 
REMARK   11  A    between atoms: C_37  and  C_38 
REMARK   12  A    between atoms: C_38  and  C_39 
REMARK   13  A    between atoms: C_39  and  C_40 
REMARK       I    between atoms: C_40  and  N_42 
REMARK   14  A    between atoms: C_44  and  C_45 
REMARK       I    between atoms: C_45  and  N_47 
REMARK   15  A    between atoms: C_50  and  C_51 
REMARK   16  A    between atoms: C_51  and  C_52 
REMARK       I    between atoms: C_52  and  N_54 
REMARK   17  A    between atoms: C_55  and  C_56 
REMARK       I    between atoms: C_56  and  N_58 
REMARK   18  A    between atoms: C_60  and  C_61 
REMARK   19  A    between atoms: C_61  and  C_62 
REMARK       I    between atoms: C_62  and  N_64 
REMARK   20  A    between atoms: N_64  and  C_65 
REMARK   21  A    between atoms: C_65  and  C_66 
REMARK   22  A    between atoms: C_66  and  O_68 
REMARK   23  A    between atoms: P_69  and  O_68 
REMARK   24  A    between atoms: P_69  and  O_72 
REMARK   25  A    between atoms: C_73  and  O_72 
REMARK   26  A    between atoms: C_74  and  C_91 
REMARK   27  A    between atoms: C_76  and  N_79 
REMARK   28  A    between atoms: C_77  and  O_78 
REMARK   29  A    between atoms: C_87  and  O_89 
REMARK   30  A    between atoms: C_91  and  O_92 
ROOT
HETATM    1  C   UNK N   1      28.306  14.176   0.837  0.00  0.00     0.022 C 
HETATM    2  C   UNK N   1      28.787  13.765   2.200  0.00  0.00     0.078 C 
HETATM    3  C   UNK N   1      29.028  14.729   3.090  0.00  0.00     0.031 C 
HETATM    4  C   UNK N   1      29.742  14.642   4.349  0.00  0.00     0.007 C 
HETATM    5  C   UNK N   1      29.829  16.281   4.335  0.00  0.00     0.059 C 
HETATM    6  C   UNK N   1      28.445  16.560   4.033  0.00  0.00     0.049 C 
HETATM    7  N   UNK N   1      28.044  15.519   3.466  0.00  0.00    -0.262 N 
HETATM    8 Co   UNK N   1      26.412  14.862   3.845  0.00  0.00     0.000 Co
HETATM    9  N   UNK N   1      26.823  13.111   3.164  0.00  0.00    -0.260 N 
HETATM   10  C   UNK N   1      27.940  12.762   2.675  0.00  0.00     0.027 C 
HETATM   11  C   UNK N   1      28.039  11.319   2.286  0.00  0.00     0.048 C 
HETATM   12  C   UNK N   1      26.551  10.961   2.308  0.00  0.00     0.006 C 
HETATM   13  C   UNK N   1      26.003  12.011   3.249  0.00  0.00     0.045 C 
HETATM   14  C   UNK N   1      24.747  12.075   3.715  0.00  0.00     0.055 C 
HETATM   15  C   UNK N   1      24.082  13.339   4.145  0.00  0.00     0.041 C 
HETATM   16  N   UNK N   1      24.686  14.454   4.229  0.00  0.00    -0.260 N 
HETATM   17  C   UNK N   1      23.775  15.504   4.231  0.00  0.00     0.031 C 
HETATM   18  C   UNK N   1      23.924  16.569   4.956  0.00  0.00     0.078 C 
HETATM   19  C   UNK N   1      25.224  17.163   4.942  0.00  0.00     0.022 C 
HETATM   20  N   UNK N   1      26.228  16.578   4.525  0.00  0.00    -0.280 N 
HETATM   21  C   UNK N   1      27.462  17.225   4.914  0.00  0.00     0.099 C 
HETATM   22  C   UNK N   1      27.048  18.708   5.084  0.00  0.00     0.005 C 
HETATM   23  C   UNK N   1      25.529  18.511   5.374  0.00  0.00     0.046 C 
HETATM   24  C   UNK N   1      27.443  19.498   3.841  0.00  0.00     0.019 C 
HETATM   25  C   UNK N   1      27.846  16.738   6.343  0.00  0.00     0.048 C 
HETATM   26  C   UNK N   1      23.531  16.269   6.374  0.00  0.00     0.022 C 
HETATM   27  C   UNK N   1      22.535  15.081   3.567  0.00  0.00     0.015 C 
HETATM   28  C   UNK N   1      22.571  13.596   4.084  0.00  0.00     0.052 C 
HETATM   29  C   UNK N   1      22.889  15.186   2.077  0.00  0.00     0.023 C 
HETATM   30  C   UNK N   1      26.169  11.361   0.892  0.00  0.00     0.022 C 
HETATM   31  C   UNK N   1      26.167   9.507   2.487  0.00  0.00     0.022 C 
HETATM   32  C   UNK N   1      28.838  14.214   5.535  0.00  0.00     0.022 C 
ENDROOT
BRANCH   4  33
HETATM   33  C   UNK N   1      30.509  13.339   4.336  0.00  0.00     0.025 C 
BRANCH  33  34
HETATM   34  C   UNK N   1      31.993  13.334   4.523  0.00  0.00     0.104 C 
BRANCH  34  35
HETATM   35  C   UNK N   1      32.399  12.877   5.876  0.00  0.00     0.217 C 
HETATM   36  O   UNK N   1      32.702  11.701   6.007  0.00  0.00    -0.274 OA
HETATM   37  N   UNK N   1      32.472  13.709   6.954  0.00  0.00    -0.359 N 
HETATM   38  H   UNK N   1      32.760  13.254   7.779  0.00  0.00     0.162 HD
BRANCH  37  39
HETATM   39  C   UNK N   1      32.209  15.152   7.143  0.00  0.00     0.154 C 
BRANCH  39  40
HETATM   40  C   UNK N   1      33.180  16.238   7.793  0.00  0.00     0.148 C 
HETATM   41  C   UNK N   1      34.624  16.100   7.355  0.00  0.00     0.042 C 
BRANCH  40  42
HETATM   42  O   UNK N   1      33.164  16.465   9.179  0.00  0.00    -0.283 OA
BRANCH  42  43
HETATM   43  P   UNK N   1      34.460  15.594   9.897  0.00  0.00     0.409 P 
HETATM   44  O   UNK N   1      33.956  15.139  11.276  0.00  0.00    -0.624 OA
HETATM   45  O   UNK N   1      35.812  16.580  10.366  0.00  0.00    -0.624 OA
BRANCH  43  46
HETATM   46  O   UNK N   1      34.852  14.062   9.177  0.00  0.00    -0.279 OA
BRANCH  46  47
HETATM   47  C   UNK N   1      35.043  13.144  10.238  0.00  0.00     0.198 C 
HETATM   48  C   UNK N   1      35.063  11.676   9.778  0.00  0.00     0.180 C 
HETATM   49  O   UNK N   1      35.960  10.911  10.557  0.00  0.00    -0.353 OA
HETATM   50  C   UNK N   1      36.463  11.810  11.536  0.00  0.00     0.261 C 
HETATM   51  C   UNK N   1      36.431  13.164  10.878  0.00  0.00     0.199 C 
BRANCH  48  52
HETATM   52  C   UNK N   1      33.847  10.958   9.152  0.00  0.00     0.198 C 
BRANCH  52  53
HETATM   53  O   UNK N   1      32.674  11.718   9.234  0.00  0.00    -0.398 OA
HETATM   54  H   UNK N   1      32.371  12.637   9.300  0.00  0.00     0.209 HD
ENDBRANCH  52  53
ENDBRANCH  48  52
BRANCH  50  55
HETATM   55  N   UNK N   1      35.528  11.923  12.641  0.00  0.00    -0.311 N 
HETATM   56  C   UNK N   1      34.373  11.228  12.742  0.00  0.00     0.186 A 
HETATM   57  N   UNK N   1      33.834  11.353  13.976  0.00  0.00    -0.350 N 
HETATM   58  C   UNK N   1      34.689  12.151  14.637  0.00  0.00     0.062 A 
ATOM     59  HN  UNK N   1      32.972  10.935  14.326  1.00  0.00     0.166 HD
HETATM   60  C   UNK N   1      35.702  12.518  13.828  0.00  0.00     0.064 A 
HETATM   61  C   UNK N   1      34.610  12.571  15.952  0.00  0.00     0.068 A 
HETATM   62  C   UNK N   1      36.737  13.337  14.273  0.00  0.00     0.035 A 
HETATM   63  C   UNK N   1      36.694  13.801  15.585  0.00  0.00     0.039 A 
HETATM   64  C   UNK N   1      35.618  13.431  16.428  0.00  0.00     0.070 A 
BRANCH  64  65
HETATM   65  O   UNK N   1      35.493  13.950  17.664  0.00  0.00    -0.356 OA
HETATM   66  C   UNK N   1      35.220  13.163  18.759  0.00  0.00     0.210 C 
ENDBRANCH  64  65
ENDBRANCH  50  55
BRANCH  51  67
HETATM   67  O   UNK N   1      36.747  14.269  11.673  0.00  0.00    -0.388 OA
HETATM   68  H   UNK N   1      37.576  14.413  12.157  0.00  0.00     0.210 HD
ENDBRANCH  51  67
ENDBRANCH  46  47
ENDBRANCH  43  46
ENDBRANCH  42  43
ENDBRANCH  40  42
ENDBRANCH  39  40
ENDBRANCH  37  39
ENDBRANCH  34  35
ENDBRANCH  33  34
ENDBRANCH   4  33
BRANCH   5  69
HETATM   69  C   UNK N   1      30.663  17.537   4.545  0.00  0.00     0.114 C 
BRANCH  69  70
HETATM   70  C   UNK N   1      31.949  17.472   3.812  0.00  0.00     0.216 C 
HETATM   71  O   UNK N   1      33.003  17.678   4.389  0.00  0.00    -0.274 OA
HETATM   72  N   UNK N   1      31.946  17.143   2.508  0.00  0.00    -0.370 N 
HETATM   73  H   UNK N   1      31.839  17.828   1.810  0.00  0.00     0.159 HD
HETATM   74  H   UNK N   1      32.053  16.200   2.248  0.00  0.00     0.159 HD
ENDBRANCH  69  70
ENDBRANCH   5  69
BRANCH  11  75
HETATM   75  C   UNK N   1      28.905  10.564   3.304  0.00  0.00     0.021 C 
BRANCH  75  76
HETATM   76  C   UNK N   1      30.225  10.112   2.679  0.00  0.00     0.103 C 
BRANCH  76  77
HETATM   77  C   UNK N   1      30.016   9.504   1.325  0.00  0.00     0.215 C 
HETATM   78  O   UNK N   1      29.326   8.507   1.199  0.00  0.00    -0.274 OA
HETATM   79  N   UNK N   1      30.644  10.028   0.254  0.00  0.00    -0.370 N 
HETATM   80  H   UNK N   1      30.194  10.208  -0.603  0.00  0.00     0.159 HD
HETATM   81  H   UNK N   1      31.602  10.241   0.332  0.00  0.00     0.159 HD
ENDBRANCH  76  77
ENDBRANCH  75  76
ENDBRANCH  11  75
BRANCH  28  82
HETATM   82  C   UNK N   1      21.684  12.548   3.393  0.00  0.00     0.021 C 
BRANCH  82  83
HETATM   83  C   UNK N   1      20.661  11.848   4.285  0.00  0.00     0.103 C 
BRANCH  83  84
HETATM   84  C   UNK N   1      20.179  12.730   5.377  0.00  0.00     0.215 C 
HETATM   85  O   UNK N   1      19.292  13.540   5.163  0.00  0.00    -0.274 OA
HETATM   86  N   UNK N   1      20.787  12.688   6.579  0.00  0.00    -0.370 N 
HETATM   87  H   UNK N   1      21.463  12.145   7.045  0.00  0.00     0.159 HD
HETATM   88  H   UNK N   1      20.460  13.412   7.160  0.00  0.00     0.159 HD
ENDBRANCH  83  84
ENDBRANCH  82  83
ENDBRANCH  28  82
BRANCH  27  89
HETATM   89  C   UNK N   1      21.318  16.010   3.578  0.00  0.00     0.118 C 
BRANCH  89  90
HETATM   90  C   UNK N   1      20.290  16.042   2.507  0.00  0.00     0.216 C 
HETATM   91  O   UNK N   1      20.335  16.867   1.612  0.00  0.00    -0.274 OA
HETATM   92  N   UNK N   1      19.451  15.003   2.401  0.00  0.00    -0.370 N 
HETATM   93  H   UNK N   1      19.044  14.562   3.182  0.00  0.00     0.159 HD
HETATM   94  H   UNK N   1      19.232  14.665   1.502  0.00  0.00     0.159 HD
ENDBRANCH  89  90
ENDBRANCH  27  89
BRANCH  23  95
HETATM   95  C   UNK N   1      24.563  19.581   4.906  0.00  0.00     0.020 C 
BRANCH  95  96
HETATM   96  C   UNK N   1      24.108  19.227   3.497  0.00  0.00     0.103 C 
BRANCH  96  97
HETATM   97  C   UNK N   1      22.907  20.036   3.077  0.00  0.00     0.215 C 
HETATM   98  O   UNK N   1      23.030  21.216   2.797  0.00  0.00    -0.274 OA
HETATM   99  N   UNK N   1      21.695  19.451   2.990  0.00  0.00    -0.370 N 
HETATM  100  H   UNK N   1      20.898  19.659   3.529  0.00  0.00     0.159 HD
HETATM  101  H   UNK N   1      21.597  18.741   2.316  0.00  0.00     0.159 HD
ENDBRANCH  96  97
ENDBRANCH  95  96
ENDBRANCH  23  95
BRANCH  22 102
HETATM  102  C   UNK N   1      27.381  19.442   6.391  0.00  0.00     0.115 C 
BRANCH 102 103
HETATM  103  C   UNK N   1      26.864  20.773   6.735  0.00  0.00     0.216 C 
HETATM  104  O   UNK N   1      27.088  21.728   6.027  0.00  0.00    -0.274 OA
HETATM  105  N   UNK N   1      26.073  20.904   7.816  0.00  0.00    -0.370 N 
HETATM  106  H   UNK N   1      25.715  20.257   8.466  0.00  0.00     0.159 HD
HETATM  107  H   UNK N   1      25.796  21.832   7.992  0.00  0.00     0.159 HD
ENDBRANCH 102 103
ENDBRANCH  22 102
TORSDOF 30
ENDMDL
MODEL 9
REMARK VINA RESULT:      -6.9      4.509     11.398
REMARK  30 active torsions:
REMARK  status: ('A' for Active; 'I' for Inactive)
REMARK    1  A    between atoms: C_4  and  C_60 
REMARK    2  A    between atoms: C_5  and  C_55 
REMARK    3  A    between atoms: C_6  and  C_21 
REMARK    4  A    between atoms: C_11  and  C_50 
REMARK    5  A    between atoms: C_22  and  C_30 
REMARK    6  A    between atoms: C_23  and  C_24 
REMARK    7  A    between atoms: C_24  and  C_25 
REMARK    8  A    between atoms: C_25  and  C_26 
REMARK       I    between atoms: C_26  and  N_28 
REMARK    9  A    between atoms: C_30  and  C_31 
REMARK       I    between atoms: C_31  and  N_33 
REMARK   10  A    between atoms: C_36  and  C_44 
REMARK   11  A    between atoms: C_37  and  C_38 
REMARK   12  A    between atoms: C_38  and  C_39 
REMARK   13  A    between atoms: C_39  and  C_40 
REMARK       I    between atoms: C_40  and  N_42 
REMARK   14  A    between atoms: C_44  and  C_45 
REMARK       I    between atoms: C_45  and  N_47 
REMARK   15  A    between atoms: C_50  and  C_51 
REMARK   16  A    between atoms: C_51  and  C_52 
REMARK       I    between atoms: C_52  and  N_54 
REMARK   17  A    between atoms: C_55  and  C_56 
REMARK       I    between atoms: C_56  and  N_58 
REMARK   18  A    between atoms: C_60  and  C_61 
REMARK   19  A    between atoms: C_61  and  C_62 
REMARK       I    between atoms: C_62  and  N_64 
REMARK   20  A    between atoms: N_64  and  C_65 
REMARK   21  A    between atoms: C_65  and  C_66 
REMARK   22  A    between atoms: C_66  and  O_68 
REMARK   23  A    between atoms: P_69  and  O_68 
REMARK   24  A    between atoms: P_69  and  O_72 
REMARK   25  A    between atoms: C_73  and  O_72 
REMARK   26  A    between atoms: C_74  and  C_91 
REMARK   27  A    between atoms: C_76  and  N_79 
REMARK   28  A    between atoms: C_77  and  O_78 
REMARK   29  A    between atoms: C_87  and  O_89 
REMARK   30  A    between atoms: C_91  and  O_92 
ROOT
HETATM    1  C   UNK N   1      25.109  12.940   6.719  0.00  0.00     0.022 C 
HETATM    2  C   UNK N   1      26.164  13.553   5.841  0.00  0.00     0.078 C 
HETATM    3  C   UNK N   1      26.793  12.754   4.977  0.00  0.00     0.031 C 
HETATM    4  C   UNK N   1      28.007  13.009   4.227  0.00  0.00     0.007 C 
HETATM    5  C   UNK N   1      28.083  11.395   3.934  0.00  0.00     0.059 C 
HETATM    6  C   UNK N   1      26.718  11.196   3.511  0.00  0.00     0.049 C 
HETATM    7  N   UNK N   1      26.096  12.145   4.040  0.00  0.00    -0.262 N 
HETATM    8 Co   UNK N   1      24.822  13.012   3.111  0.00  0.00     0.000 Co
HETATM    9  N   UNK N   1      24.866  14.558   4.255  0.00  0.00    -0.260 N 
HETATM   10  C   UNK N   1      25.629  14.702   5.258  0.00  0.00     0.027 C 
HETATM   11  C   UNK N   1      25.532  16.031   5.942  0.00  0.00     0.048 C 
HETATM   12  C   UNK N   1      24.222  16.525   5.326  0.00  0.00     0.006 C 
HETATM   13  C   UNK N   1      24.174  15.726   4.041  0.00  0.00     0.045 C 
HETATM   14  C   UNK N   1      23.276  15.869   3.056  0.00  0.00     0.055 C 
HETATM   15  C   UNK N   1      22.889  14.776   2.117  0.00  0.00     0.041 C 
HETATM   16  N   UNK N   1      23.468  13.646   2.083  0.00  0.00    -0.260 N 
HETATM   17  C   UNK N   1      22.663  12.705   1.448  0.00  0.00     0.031 C 
HETATM   18  C   UNK N   1      23.134  11.787   0.663  0.00  0.00     0.078 C 
HETATM   19  C   UNK N   1      24.283  11.081   1.139  0.00  0.00     0.022 C 
HETATM   20  N   UNK N   1      24.979  11.480   2.078  0.00  0.00    -0.280 N 
HETATM   21  C   UNK N   1      26.255  10.804   2.163  0.00  0.00     0.099 C 
HETATM   22  C   UNK N   1      25.972   9.425   1.517  0.00  0.00     0.005 C 
HETATM   23  C   UNK N   1      24.758   9.815   0.620  0.00  0.00     0.046 C 
HETATM   24  C   UNK N   1      25.750   8.382   2.607  0.00  0.00     0.019 C 
HETATM   25  C   UNK N   1      27.254  11.512   1.200  0.00  0.00     0.048 C 
HETATM   26  C   UNK N   1      23.440  12.382  -0.680  0.00  0.00     0.022 C 
HETATM   27  C   UNK N   1      21.256  13.111   1.552  0.00  0.00     0.015 C 
HETATM   28  C   UNK N   1      21.521  14.657   1.432  0.00  0.00     0.052 C 
HETATM   29  C   UNK N   1      20.881  12.695   2.981  0.00  0.00     0.023 C 
HETATM   30  C   UNK N   1      23.230  15.903   6.296  0.00  0.00     0.022 C 
HETATM   31  C   UNK N   1      23.959  18.016   5.302  0.00  0.00     0.022 C 
HETATM   32  C   UNK N   1      27.752  13.734   2.880  0.00  0.00     0.022 C 
ENDROOT
BRANCH   4  33
HETATM   33  C   UNK N   1      28.676  14.208   4.858  0.00  0.00     0.025 C 
BRANCH  33  34
HETATM   34  C   UNK N   1      30.113  14.510   4.570  0.00  0.00     0.104 C 
BRANCH  34  35
HETATM   35  C   UNK N   1      31.041  13.853   5.526  0.00  0.00     0.217 C 
HETATM   36  O   UNK N   1      31.298  12.673   5.342  0.00  0.00    -0.274 OA
HETATM   37  N   UNK N   1      31.627  14.510   6.568  0.00  0.00    -0.359 N 
HETATM   38  H   UNK N   1      32.218  13.935   7.108  0.00  0.00     0.162 HD
BRANCH  37  39
HETATM   39  C   UNK N   1      31.561  15.904   7.056  0.00  0.00     0.154 C 
BRANCH  39  40
HETATM   40  C   UNK N   1      31.545  16.402   8.571  0.00  0.00     0.148 C 
HETATM   41  C   UNK N   1      31.291  17.888   8.717  0.00  0.00     0.042 C 
BRANCH  40  42
HETATM   42  O   UNK N   1      32.585  16.048   9.446  0.00  0.00    -0.283 OA
BRANCH  42  43
HETATM   43  P   UNK N   1      34.070  16.624   8.801  0.00  0.00     0.409 P 
HETATM   44  O   UNK N   1      34.921  17.053  10.007  0.00  0.00    -0.624 OA
HETATM   45  O   UNK N   1      33.944  18.134   7.951  0.00  0.00    -0.624 OA
BRANCH  43  46
HETATM   46  O   UNK N   1      35.112  15.433   8.081  0.00  0.00    -0.279 OA
BRANCH  46  47
HETATM   47  C   UNK N   1      35.381  14.463   9.077  0.00  0.00     0.198 C 
HETATM   48  C   UNK N   1      35.108  13.022   8.615  0.00  0.00     0.180 C 
HETATM   49  O   UNK N   1      36.027  12.119   9.194  0.00  0.00    -0.353 OA
HETATM   50  C   UNK N   1      36.832  12.910  10.057  0.00  0.00     0.261 C 
HETATM   51  C   UNK N   1      36.858  14.276   9.426  0.00  0.00     0.199 C 
BRANCH  48  52
HETATM   52  C   UNK N   1      33.705  12.494   8.242  0.00  0.00     0.198 C 
BRANCH  52  53
HETATM   53  O   UNK N   1      32.687  13.094   8.995  0.00  0.00    -0.398 OA
HETATM   54  H   UNK N   1      32.521  13.482   9.869  0.00  0.00     0.209 HD
ENDBRANCH  52  53
ENDBRANCH  48  52
BRANCH  50  55
HETATM   55  N   UNK N   1      36.160  13.111  11.328  0.00  0.00    -0.311 N 
HETATM   56  C   UNK N   1      34.967  13.729  11.474  0.00  0.00     0.186 A 
HETATM   57  N   UNK N   1      34.477  13.558  12.723  0.00  0.00    -0.350 N 
HETATM   58  C   UNK N   1      35.405  12.816  13.349  0.00  0.00     0.062 A 
ATOM     59  HN  UNK N   1      33.599  13.911  13.104  1.00  0.00     0.166 HD
HETATM   60  C   UNK N   1      36.436  12.562  12.518  0.00  0.00     0.064 A 
HETATM   61  C   UNK N   1      35.376  12.340  14.647  0.00  0.00     0.068 A 
HETATM   62  C   UNK N   1      37.529  11.798  12.917  0.00  0.00     0.035 A 
HETATM   63  C   UNK N   1      37.555  11.311  14.221  0.00  0.00     0.039 A 
HETATM   64  C   UNK N   1      36.480  11.595  15.099  0.00  0.00     0.070 A 
BRANCH  64  65
HETATM   65  O   UNK N   1      36.526  11.231  16.395  0.00  0.00    -0.356 OA
HETATM   66  C   UNK N   1      36.627   9.913  16.777  0.00  0.00     0.210 C 
ENDBRANCH  64  65
ENDBRANCH  50  55
BRANCH  51  67
HETATM   67  O   UNK N   1      37.474  15.303  10.147  0.00  0.00    -0.388 OA
HETATM   68  H   UNK N   1      38.311  15.243  10.635  0.00  0.00     0.210 HD
ENDBRANCH  51  67
ENDBRANCH  46  47
ENDBRANCH  43  46
ENDBRANCH  42  43
ENDBRANCH  40  42
ENDBRANCH  39  40
ENDBRANCH  37  39
ENDBRANCH  34  35
ENDBRANCH  33  34
ENDBRANCH   4  33
BRANCH   5  69
HETATM   69  C   UNK N   1      28.924  10.128   3.866  0.00  0.00     0.114 C 
BRANCH  69  70
HETATM   70  C   UNK N   1      29.948  10.204   2.798  0.00  0.00     0.216 C 
HETATM   71  O   UNK N   1      30.084   9.289   2.003  0.00  0.00    -0.274 OA
HETATM   72  N   UNK N   1      30.701  11.312   2.687  0.00  0.00    -0.370 N 
HETATM   73  H   UNK N   1      31.541  11.410   3.190  0.00  0.00     0.159 HD
HETATM   74  H   UNK N   1      30.406  12.039   2.092  0.00  0.00     0.159 HD
ENDBRANCH  69  70
ENDBRANCH   5  69
BRANCH  11  75
HETATM   75  C   UNK N   1      26.768  16.878   5.611  0.00  0.00     0.021 C 
BRANCH  75  76
HETATM   76  C   UNK N   1      27.694  17.003   6.820  0.00  0.00     0.103 C 
BRANCH  76  77
HETATM   77  C   UNK N   1      27.790  18.420   7.299  0.00  0.00     0.215 C 
HETATM   78  O   UNK N   1      27.998  19.324   6.506  0.00  0.00    -0.274 OA
HETATM   79  N   UNK N   1      27.708  18.687   8.617  0.00  0.00    -0.370 N 
HETATM   80  H   UNK N   1      27.149  19.407   8.990  0.00  0.00     0.159 HD
HETATM   81  H   UNK N   1      28.234  18.134   9.239  0.00  0.00     0.159 HD
ENDBRANCH  76  77
ENDBRANCH  75  76
ENDBRANCH  11  75
BRANCH  28  82
HETATM   82  C   UNK N   1      20.412  15.635   1.849  0.00  0.00     0.021 C 
BRANCH  82  83
HETATM   83  C   UNK N   1      20.337  16.937   1.056  0.00  0.00     0.103 C 
BRANCH  83  84
HETATM   84  C   UNK N   1      20.087  18.108   1.933  0.00  0.00     0.215 C 
HETATM   85  O   UNK N   1      21.026  18.722   2.415  0.00  0.00    -0.274 OA
HETATM   86  N   UNK N   1      18.821  18.434   2.259  0.00  0.00    -0.370 N 
HETATM   87  H   UNK N   1      17.905  18.173   2.011  0.00  0.00     0.159 HD
HETATM   88  H   UNK N   1      18.809  19.138   2.947  0.00  0.00     0.159 HD
ENDBRANCH  83  84
ENDBRANCH  82  83
ENDBRANCH  28  82
BRANCH  27  89
HETATM   89  C   UNK N   1      20.185  12.319   0.796  0.00  0.00     0.118 C 
BRANCH  89  90
HETATM   90  C   UNK N   1      18.748  12.695   0.759  0.00  0.00     0.216 C 
HETATM   91  O   UNK N   1      18.356  13.624   0.077  0.00  0.00    -0.274 OA
HETATM   92  N   UNK N   1      17.857  11.851   1.295  0.00  0.00    -0.370 N 
HETATM   93  H   UNK N   1      18.012  11.376   2.144  0.00  0.00     0.159 HD
HETATM   94  H   UNK N   1      17.009  11.697   0.818  0.00  0.00     0.159 HD
ENDBRANCH  89  90
ENDBRANCH  27  89
BRANCH  23  95
HETATM   95  C   UNK N   1      23.688   8.772   0.364  0.00  0.00     0.020 C 
BRANCH  95  96
HETATM   96  C   UNK N   1      23.470   8.675  -1.139  0.00  0.00     0.103 C 
BRANCH  96  97
HETATM   97  C   UNK N   1      23.184   7.260  -1.574  0.00  0.00     0.215 C 
HETATM   98  O   UNK N   1      23.280   6.343  -0.777  0.00  0.00    -0.274 OA
HETATM   99  N   UNK N   1      22.801   7.007  -2.841  0.00  0.00    -0.370 N 
HETATM  100  H   UNK N   1      23.290   6.478  -3.513  0.00  0.00     0.159 HD
HETATM  101  H   UNK N   1      21.940   7.391  -3.126  0.00  0.00     0.159 HD
ENDBRANCH  96  97
ENDBRANCH  95  96
ENDBRANCH  23  95
BRANCH  22 102
HETATM  102  C   UNK N   1      26.872   8.921   0.381  0.00  0.00     0.115 C 
BRANCH 102 103
HETATM  103  C   UNK N   1      27.274   7.518   0.216  0.00  0.00     0.216 C 
HETATM  104  O   UNK N   1      26.580   6.742  -0.400  0.00  0.00    -0.274 OA
HETATM  105  N   UNK N   1      28.466   7.122   0.702  0.00  0.00    -0.370 N 
HETATM  106  H   UNK N   1      29.195   7.600   1.157  0.00  0.00     0.159 HD
HETATM  107  H   UNK N   1      28.643   6.161   0.576  0.00  0.00     0.159 HD
ENDBRANCH 102 103
ENDBRANCH  22 102
TORSDOF 30
ENDMDL
