MODEL 1
REMARK VINA RESULT:      -5.8      0.000      0.000
REMARK  5 active torsions:
REMARK  status: ('A' for Active; 'I' for Inactive)
REMARK    1  A    between atoms: C_2  and  N_1 
REMARK    2  A    between atoms: C_2  and  C_3 
REMARK    3  A    between atoms: C_2  and  C_13 
REMARK    4  A    between atoms: C_3  and  N_4 
REMARK    5  A    between atoms: C_13  and  O_14 
ROOT
HETATM    1  N   UNK N   1      34.905  15.348  10.036  0.00  0.00    -0.306 N 
HETATM    2  C   UNK N   1      34.736  14.034  10.337  0.00  0.00     0.119 A 
HETATM    3  C   UNK N   1      35.344  13.448  11.437  0.00  0.00     0.090 A 
HETATM    4  I   UNK N   1      35.009  11.397  11.807  0.00  0.00    -0.037 I 
HETATM    5  C   UNK N   1      36.148  14.234  12.253  0.00  0.00     0.267 A 
HETATM    6  O   UNK N   1      36.698  13.755  13.228  0.00  0.00    -0.267 OA
HETATM    7  N   UNK N   1      36.321  15.558  11.954  0.00  0.00    -0.274 N 
HETATM    8  C   UNK N   1      35.713  16.125  10.860  0.00  0.00     0.329 A 
HETATM    9  O   UNK N   1      35.900  17.302  10.641  0.00  0.00    -0.246 OA
HETATM   10  H   UNK N   1      36.891  16.113  12.532  0.00  0.00     0.173 HD
ENDROOT
BRANCH   1  11
HETATM   11  C   UNK N   1      34.166  15.750   8.825  0.00  0.00     0.168 C 
BRANCH  11  12
HETATM   12  C   UNK N   1      33.516  17.112   8.525  0.00  0.00     0.192 C 
BRANCH  12  13
HETATM   13  N   UNK N   1      32.183  17.510   8.938  0.00  0.00    -0.416 N 
HETATM   14  H   UNK N   1      32.063  18.237   9.643  0.00  0.00     0.150 HD
HETATM   15  H   UNK N   1      31.367  17.063   8.522  0.00  0.00     0.150 HD
ENDBRANCH  12  13
BRANCH  12  16
HETATM   16  C   UNK N   1      34.312  18.117   7.747  0.00  0.00     0.164 C 
HETATM   17  O   UNK N   1      34.333  18.067   6.527  0.00  0.00    -0.648 OA
BRANCH  16  18
HETATM   18  O   UNK N   1      35.005  19.078   8.385  0.00  0.00    -0.775 OA
HETATM   19  H   UNK N   1      35.212  18.982   9.293  0.00  0.00     0.167 HD
ENDBRANCH  16  18
ENDBRANCH  12  16
ENDBRANCH  11  12
ENDBRANCH   1  11
TORSDOF 5
ENDMDL
MODEL 2
REMARK VINA RESULT:      -5.6      1.693      1.698
REMARK  5 active torsions:
REMARK  status: ('A' for Active; 'I' for Inactive)
REMARK    1  A    between atoms: C_2  and  N_1 
REMARK    2  A    between atoms: C_2  and  C_3 
REMARK    3  A    between atoms: C_2  and  C_13 
REMARK    4  A    between atoms: C_3  and  N_4 
REMARK    5  A    between atoms: C_13  and  O_14 
ROOT
HETATM    1  N   UNK N   1      34.776  15.508   9.508  0.00  0.00    -0.306 N 
HETATM    2  C   UNK N   1      35.117  14.328   8.925  0.00  0.00     0.119 A 
HETATM    3  C   UNK N   1      36.302  13.675   9.228  0.00  0.00     0.090 A 
HETATM    4  I   UNK N   1      36.728  11.848   8.262  0.00  0.00    -0.037 I 
HETATM    5  C   UNK N   1      37.162  14.249  10.156  0.00  0.00     0.267 A 
HETATM    6  O   UNK N   1      38.211  13.704  10.448  0.00  0.00    -0.267 OA
HETATM    7  N   UNK N   1      36.822  15.436  10.745  0.00  0.00    -0.274 N 
HETATM    8  C   UNK N   1      35.645  16.072  10.435  0.00  0.00     0.329 A 
HETATM    9  O   UNK N   1      35.394  17.121  10.986  0.00  0.00    -0.246 OA
HETATM   10  H   UNK N   1      37.432  15.841  11.402  0.00  0.00     0.173 HD
ENDROOT
BRANCH   1  11
HETATM   11  C   UNK N   1      33.475  16.016   9.034  0.00  0.00     0.168 C 
BRANCH  11  12
HETATM   12  C   UNK N   1      33.144  17.430   8.524  0.00  0.00     0.192 C 
BRANCH  12  13
HETATM   13  N   UNK N   1      31.871  18.103   8.695  0.00  0.00    -0.416 N 
HETATM   14  H   UNK N   1      31.246  18.223   7.898  0.00  0.00     0.150 HD
HETATM   15  H   UNK N   1      31.600  18.455   9.613  0.00  0.00     0.150 HD
ENDBRANCH  12  13
BRANCH  12  16
HETATM   16  C   UNK N   1      34.214  18.183   7.791  0.00  0.00     0.164 C 
HETATM   17  O   UNK N   1      34.366  18.016   6.590  0.00  0.00    -0.648 OA
BRANCH  16  18
HETATM   18  O   UNK N   1      35.011  19.046   8.447  0.00  0.00    -0.775 OA
HETATM   19  H   UNK N   1      35.390  19.772   7.993  0.00  0.00     0.167 HD
ENDBRANCH  16  18
ENDBRANCH  12  16
ENDBRANCH  11  12
ENDBRANCH   1  11
TORSDOF 5
ENDMDL
MODEL 3
REMARK VINA RESULT:      -5.5      3.895      6.063
REMARK  5 active torsions:
REMARK  status: ('A' for Active; 'I' for Inactive)
REMARK    1  A    between atoms: C_2  and  N_1 
REMARK    2  A    between atoms: C_2  and  C_3 
REMARK    3  A    between atoms: C_2  and  C_13 
REMARK    4  A    between atoms: C_3  and  N_4 
REMARK    5  A    between atoms: C_13  and  O_14 
ROOT
HETATM    1  N   UNK N   1      32.222  16.144   7.759  0.00  0.00    -0.306 N 
HETATM    2  C   UNK N   1      31.241  16.818   8.415  0.00  0.00     0.119 A 
HETATM    3  C   UNK N   1      30.004  17.061   7.839  0.00  0.00     0.090 A 
HETATM    4  I   UNK N   1      28.557  18.118   8.953  0.00  0.00    -0.037 I 
HETATM    5  C   UNK N   1      29.766  16.599   6.551  0.00  0.00     0.267 A 
HETATM    6  O   UNK N   1      28.692  16.794   6.011  0.00  0.00    -0.267 OA
HETATM    7  N   UNK N   1      30.750  15.921   5.886  0.00  0.00    -0.274 N 
HETATM    8  C   UNK N   1      31.971  15.687   6.469  0.00  0.00     0.329 A 
HETATM    9  O   UNK N   1      32.807  15.081   5.836  0.00  0.00    -0.246 OA
HETATM   10  H   UNK N   1      30.580  15.594   4.973  0.00  0.00     0.173 HD
ENDROOT
BRANCH   1  11
HETATM   11  C   UNK N   1      33.449  16.004   8.565  0.00  0.00     0.168 C 
BRANCH  11  12
HETATM   12  C   UNK N   1      34.365  17.124   9.090  0.00  0.00     0.192 C 
BRANCH  12  13
HETATM   13  N   UNK N   1      34.922  17.189  10.428  0.00  0.00    -0.416 N 
HETATM   14  H   UNK N   1      35.049  18.093  10.883  0.00  0.00     0.150 HD
HETATM   15  H   UNK N   1      35.185  16.332  10.913  0.00  0.00     0.150 HD
ENDBRANCH  12  13
BRANCH  12  16
HETATM   16  C   UNK N   1      34.719  18.242   8.154  0.00  0.00     0.164 C 
HETATM   17  O   UNK N   1      35.281  19.239   8.579  0.00  0.00    -0.648 OA
BRANCH  16  18
HETATM   18  O   UNK N   1      34.420  18.154   6.845  0.00  0.00    -0.775 OA
HETATM   19  H   UNK N   1      33.888  17.449   6.532  0.00  0.00     0.167 HD
ENDBRANCH  16  18
ENDBRANCH  12  16
ENDBRANCH  11  12
ENDBRANCH   1  11
TORSDOF 5
ENDMDL
MODEL 4
REMARK VINA RESULT:      -5.5      2.357      5.481
REMARK  5 active torsions:
REMARK  status: ('A' for Active; 'I' for Inactive)
REMARK    1  A    between atoms: C_2  and  N_1 
REMARK    2  A    between atoms: C_2  and  C_3 
REMARK    3  A    between atoms: C_2  and  C_13 
REMARK    4  A    between atoms: C_3  and  N_4 
REMARK    5  A    between atoms: C_13  and  O_14 
ROOT
HETATM    1  N   UNK N   1      35.021  15.356   9.650  0.00  0.00    -0.306 N 
HETATM    2  C   UNK N   1      34.793  15.004   8.357  0.00  0.00     0.119 A 
HETATM    3  C   UNK N   1      34.556  15.948   7.370  0.00  0.00     0.090 A 
HETATM    4  I   UNK N   1      34.214  15.286   5.396  0.00  0.00    -0.037 I 
HETATM    5  C   UNK N   1      34.555  17.293   7.719  0.00  0.00     0.267 A 
HETATM    6  O   UNK N   1      34.351  18.151   6.879  0.00  0.00    -0.267 OA
HETATM    7  N   UNK N   1      34.785  17.652   9.019  0.00  0.00    -0.274 N 
HETATM    8  C   UNK N   1      35.017  16.706   9.987  0.00  0.00     0.329 A 
HETATM    9  O   UNK N   1      35.215  17.078  11.122  0.00  0.00    -0.246 OA
HETATM   10  H   UNK N   1      34.783  18.604   9.264  0.00  0.00     0.173 HD
ENDROOT
BRANCH   1  11
HETATM   11  C   UNK N   1      35.247  14.188  10.522  0.00  0.00     0.168 C 
BRANCH  11  12
HETATM   12  C   UNK N   1      36.361  13.992  11.565  0.00  0.00     0.192 C 
BRANCH  12  13
HETATM   13  N   UNK N   1      37.742  13.669  11.262  0.00  0.00    -0.416 N 
HETATM   14  H   UNK N   1      38.360  13.329  11.998  0.00  0.00     0.150 HD
HETATM   15  H   UNK N   1      38.094  13.782  10.312  0.00  0.00     0.150 HD
ENDBRANCH  12  13
BRANCH  12  16
HETATM   16  C   UNK N   1      36.004  14.142  13.014  0.00  0.00     0.164 C 
HETATM   17  O   UNK N   1      34.971  13.652  13.444  0.00  0.00    -0.648 OA
BRANCH  16  18
HETATM   18  O   UNK N   1      36.817  14.816  13.849  0.00  0.00    -0.775 OA
HETATM   19  H   UNK N   1      37.089  14.425  14.655  0.00  0.00     0.167 HD
ENDBRANCH  16  18
ENDBRANCH  12  16
ENDBRANCH  11  12
ENDBRANCH   1  11
TORSDOF 5
ENDMDL
MODEL 5
REMARK VINA RESULT:      -5.5     12.662     14.194
REMARK  5 active torsions:
REMARK  status: ('A' for Active; 'I' for Inactive)
REMARK    1  A    between atoms: C_2  and  N_1 
REMARK    2  A    between atoms: C_2  and  C_3 
REMARK    3  A    between atoms: C_2  and  C_13 
REMARK    4  A    between atoms: C_3  and  N_4 
REMARK    5  A    between atoms: C_13  and  O_14 
ROOT
HETATM    1  N   UNK N   1      22.050  13.294   9.127  0.00  0.00    -0.306 N 
HETATM    2  C   UNK N   1      22.639  13.936   8.084  0.00  0.00     0.119 A 
HETATM    3  C   UNK N   1      22.021  14.988   7.424  0.00  0.00     0.090 A 
HETATM    4  I   UNK N   1      23.031  15.910   5.818  0.00  0.00    -0.037 I 
HETATM    5  C   UNK N   1      20.762  15.392   7.848  0.00  0.00     0.267 A 
HETATM    6  O   UNK N   1      20.187  16.312   7.293  0.00  0.00    -0.267 OA
HETATM    7  N   UNK N   1      20.165  14.749   8.897  0.00  0.00    -0.274 N 
HETATM    8  C   UNK N   1      20.789  13.709   9.541  0.00  0.00     0.329 A 
HETATM    9  O   UNK N   1      20.215  13.174  10.465  0.00  0.00    -0.246 OA
HETATM   10  H   UNK N   1      19.272  15.037   9.196  0.00  0.00     0.173 HD
ENDROOT
BRANCH   1  11
HETATM   11  C   UNK N   1      22.890  12.211   9.671  0.00  0.00     0.168 C 
BRANCH  11  12
HETATM   12  C   UNK N   1      23.757  12.238  10.943  0.00  0.00     0.192 C 
BRANCH  12  13
HETATM   13  N   UNK N   1      25.178  12.526  10.979  0.00  0.00    -0.416 N 
HETATM   14  H   UNK N   1      25.820  12.001  10.386  0.00  0.00     0.150 HD
HETATM   15  H   UNK N   1      25.535  13.253  11.598  0.00  0.00     0.150 HD
ENDBRANCH  12  13
BRANCH  12  16
HETATM   16  C   UNK N   1      23.092  11.946  12.255  0.00  0.00     0.164 C 
HETATM   17  O   UNK N   1      23.723  12.044  13.295  0.00  0.00    -0.648 OA
BRANCH  16  18
HETATM   18  O   UNK N   1      21.799  11.574  12.295  0.00  0.00    -0.775 OA
HETATM   19  H   UNK N   1      21.384  11.237  11.525  0.00  0.00     0.167 HD
ENDBRANCH  16  18
ENDBRANCH  12  16
ENDBRANCH  11  12
ENDBRANCH   1  11
TORSDOF 5
ENDMDL
MODEL 6
REMARK VINA RESULT:      -5.5     15.236     16.782
REMARK  5 active torsions:
REMARK  status: ('A' for Active; 'I' for Inactive)
REMARK    1  A    between atoms: C_2  and  N_1 
REMARK    2  A    between atoms: C_2  and  C_3 
REMARK    3  A    between atoms: C_2  and  C_13 
REMARK    4  A    between atoms: C_3  and  N_4 
REMARK    5  A    between atoms: C_13  and  O_14 
ROOT
HETATM    1  N   UNK N   1      30.345  23.252  -3.655  0.00  0.00    -0.306 N 
HETATM    2  C   UNK N   1      29.501  23.592  -4.664  0.00  0.00     0.119 A 
HETATM    3  C   UNK N   1      28.164  23.881  -4.438  0.00  0.00     0.090 A 
HETATM    4  I   UNK N   1      26.947  24.399  -6.082  0.00  0.00    -0.037 I 
HETATM    5  C   UNK N   1      27.679  23.819  -3.137  0.00  0.00     0.267 A 
HETATM    6  O   UNK N   1      26.511  24.066  -2.900  0.00  0.00    -0.267 OA
HETATM    7  N   UNK N   1      28.525  23.476  -2.119  0.00  0.00    -0.274 N 
HETATM    8  C   UNK N   1      29.847  23.192  -2.357  0.00  0.00     0.329 A 
HETATM    9  O   UNK N   1      30.553  22.895  -1.419  0.00  0.00    -0.246 OA
HETATM   10  H   UNK N   1      28.180  23.432  -1.198  0.00  0.00     0.173 HD
ENDROOT
BRANCH   1  11
HETATM   11  C   UNK N   1      31.716  22.989  -4.130  0.00  0.00     0.168 C 
BRANCH  11  12
HETATM   12  C   UNK N   1      32.395  21.624  -4.342  0.00  0.00     0.192 C 
BRANCH  12  13
HETATM   13  N   UNK N   1      32.276  20.808  -5.536  0.00  0.00    -0.416 N 
HETATM   14  H   UNK N   1      32.563  21.182  -6.440  0.00  0.00     0.150 HD
HETATM   15  H   UNK N   1      31.904  19.861  -5.470  0.00  0.00     0.150 HD
ENDBRANCH  12  13
BRANCH  12  16
HETATM   16  C   UNK N   1      33.251  21.082  -3.236  0.00  0.00     0.164 C 
HETATM   17  O   UNK N   1      34.343  20.597  -3.489  0.00  0.00    -0.648 OA
BRANCH  16  18
HETATM   18  O   UNK N   1      32.823  21.127  -1.961  0.00  0.00    -0.775 OA
HETATM   19  H   UNK N   1      32.405  20.380  -1.580  0.00  0.00     0.167 HD
ENDBRANCH  16  18
ENDBRANCH  12  16
ENDBRANCH  11  12
ENDBRANCH   1  11
TORSDOF 5
ENDMDL
MODEL 7
REMARK VINA RESULT:      -5.4      1.937      2.257
REMARK  5 active torsions:
REMARK  status: ('A' for Active; 'I' for Inactive)
REMARK    1  A    between atoms: C_2  and  N_1 
REMARK    2  A    between atoms: C_2  and  C_3 
REMARK    3  A    between atoms: C_2  and  C_13 
REMARK    4  A    between atoms: C_3  and  N_4 
REMARK    5  A    between atoms: C_13  and  O_14 
ROOT
HETATM    1  N   UNK N   1      35.000  15.024  10.402  0.00  0.00    -0.306 N 
HETATM    2  C   UNK N   1      35.528  14.949  11.652  0.00  0.00     0.119 A 
HETATM    3  C   UNK N   1      35.454  13.792  12.413  0.00  0.00     0.090 A 
HETATM    4  I   UNK N   1      36.309  13.792  14.342  0.00  0.00    -0.037 I 
HETATM    5  C   UNK N   1      34.819  12.680  11.875  0.00  0.00     0.267 A 
HETATM    6  O   UNK N   1      34.734  11.646  12.514  0.00  0.00    -0.267 OA
HETATM    7  N   UNK N   1      34.286  12.750  10.617  0.00  0.00    -0.274 N 
HETATM    8  C   UNK N   1      34.367  13.903   9.875  0.00  0.00     0.329 A 
HETATM    9  O   UNK N   1      33.878  13.911   8.766  0.00  0.00    -0.246 OA
HETATM   10  H   UNK N   1      33.837  11.961  10.238  0.00  0.00     0.173 HD
ENDROOT
BRANCH   1  11
HETATM   11  C   UNK N   1      35.197  16.348   9.784  0.00  0.00     0.168 C 
BRANCH  11  12
HETATM   12  C   UNK N   1      34.160  17.203   9.034  0.00  0.00     0.192 C 
BRANCH  12  13
HETATM   13  N   UNK N   1      32.721  17.043   9.129  0.00  0.00    -0.416 N 
HETATM   14  H   UNK N   1      32.293  16.140   8.925  0.00  0.00     0.150 HD
HETATM   15  H   UNK N   1      32.138  17.835   9.400  0.00  0.00     0.150 HD
ENDBRANCH  12  13
BRANCH  12  16
HETATM   16  C   UNK N   1      34.662  18.289   8.130  0.00  0.00     0.164 C 
HETATM   17  O   UNK N   1      34.471  18.219   6.926  0.00  0.00    -0.648 OA
BRANCH  16  18
HETATM   18  O   UNK N   1      35.324  19.345   8.638  0.00  0.00    -0.775 OA
HETATM   19  H   UNK N   1      35.262  19.541   9.552  0.00  0.00     0.167 HD
ENDBRANCH  16  18
ENDBRANCH  12  16
ENDBRANCH  11  12
ENDBRANCH   1  11
TORSDOF 5
ENDMDL
MODEL 8
REMARK VINA RESULT:      -5.2     15.952     18.680
REMARK  5 active torsions:
REMARK  status: ('A' for Active; 'I' for Inactive)
REMARK    1  A    between atoms: C_2  and  N_1 
REMARK    2  A    between atoms: C_2  and  C_3 
REMARK    3  A    between atoms: C_2  and  C_13 
REMARK    4  A    between atoms: C_3  and  N_4 
REMARK    5  A    between atoms: C_13  and  O_14 
ROOT
HETATM    1  N   UNK N   1      28.352  24.422  -4.400  0.00  0.00    -0.306 N 
HETATM    2  C   UNK N   1      28.230  24.984  -5.631  0.00  0.00     0.119 A 
HETATM    3  C   UNK N   1      27.011  25.430  -6.119  0.00  0.00     0.090 A 
HETATM    4  I   UNK N   1      26.942  26.286  -8.046  0.00  0.00    -0.037 I 
HETATM    5  C   UNK N   1      25.884  25.295  -5.318  0.00  0.00     0.267 A 
HETATM    6  O   UNK N   1      24.796  25.675  -5.712  0.00  0.00    -0.267 OA
HETATM    7  N   UNK N   1      26.002  24.730  -4.078  0.00  0.00    -0.274 N 
HETATM    8  C   UNK N   1      27.216  24.293  -3.608  0.00  0.00     0.329 A 
HETATM    9  O   UNK N   1      27.264  23.800  -2.503  0.00  0.00    -0.246 OA
HETATM   10  H   UNK N   1      25.202  24.636  -3.512  0.00  0.00     0.173 HD
ENDROOT
BRANCH   1  11
HETATM   11  C   UNK N   1      29.739  24.024  -4.096  0.00  0.00     0.168 C 
BRANCH  11  12
HETATM   12  C   UNK N   1      30.265  22.616  -3.764  0.00  0.00     0.192 C 
BRANCH  12  13
HETATM   13  N   UNK N   1      30.188  21.467  -4.646  0.00  0.00    -0.416 N 
HETATM   14  H   UNK N   1      29.600  20.672  -4.398  0.00  0.00     0.150 HD
HETATM   15  H   UNK N   1      30.723  21.455  -5.515  0.00  0.00     0.150 HD
ENDBRANCH  12  13
BRANCH  12  16
HETATM   16  C   UNK N   1      30.909  22.401  -2.427  0.00  0.00     0.164 C 
HETATM   17  O   UNK N   1      30.499  23.002  -1.447  0.00  0.00    -0.648 OA
BRANCH  16  18
HETATM   18  O   UNK N   1      31.941  21.546  -2.298  0.00  0.00    -0.775 OA
HETATM   19  H   UNK N   1      31.829  20.641  -2.511  0.00  0.00     0.167 HD
ENDBRANCH  16  18
ENDBRANCH  12  16
ENDBRANCH  11  12
ENDBRANCH   1  11
TORSDOF 5
ENDMDL
MODEL 9
REMARK VINA RESULT:      -5.2      5.374      6.854
REMARK  5 active torsions:
REMARK  status: ('A' for Active; 'I' for Inactive)
REMARK    1  A    between atoms: C_2  and  N_1 
REMARK    2  A    between atoms: C_2  and  C_3 
REMARK    3  A    between atoms: C_2  and  C_13 
REMARK    4  A    between atoms: C_3  and  N_4 
REMARK    5  A    between atoms: C_13  and  O_14 
ROOT
HETATM    1  N   UNK N   1      30.519  17.434   6.940  0.00  0.00    -0.306 N 
HETATM    2  C   UNK N   1      30.937  17.107   5.689  0.00  0.00     0.119 A 
HETATM    3  C   UNK N   1      32.280  17.085   5.344  0.00  0.00     0.090 A 
HETATM    4  I   UNK N   1      32.812  16.562   3.370  0.00  0.00    -0.037 I 
HETATM    5  C   UNK N   1      33.222  17.409   6.313  0.00  0.00     0.267 A 
HETATM    6  O   UNK N   1      34.410  17.401   6.048  0.00  0.00    -0.267 OA
HETATM    7  N   UNK N   1      32.806  17.738   7.573  0.00  0.00    -0.274 N 
HETATM    8  C   UNK N   1      31.472  17.756   7.900  0.00  0.00     0.329 A 
HETATM    9  O   UNK N   1      31.159  18.055   9.032  0.00  0.00    -0.246 OA
HETATM   10  H   UNK N   1      33.475  17.967   8.258  0.00  0.00     0.173 HD
ENDROOT
BRANCH   1  11
HETATM   11  C   UNK N   1      29.051  17.390   7.075  0.00  0.00     0.168 C 
BRANCH  11  12
HETATM   12  C   UNK N   1      28.131  18.444   7.717  0.00  0.00     0.192 C 
BRANCH  12  13
HETATM   13  N   UNK N   1      27.750  18.478   9.115  0.00  0.00    -0.416 N 
HETATM   14  H   UNK N   1      27.032  19.130   9.433  0.00  0.00     0.150 HD
HETATM   15  H   UNK N   1      28.199  17.850   9.782  0.00  0.00     0.150 HD
ENDBRANCH  12  13
BRANCH  12  16
HETATM   16  C   UNK N   1      27.579  19.527   6.838  0.00  0.00     0.164 C 
HETATM   17  O   UNK N   1      27.960  19.630   5.682  0.00  0.00    -0.648 OA
BRANCH  16  18
HETATM   18  O   UNK N   1      26.664  20.390   7.315  0.00  0.00    -0.775 OA
HETATM   19  H   UNK N   1      26.918  21.051   7.928  0.00  0.00     0.167 HD
ENDBRANCH  16  18
ENDBRANCH  12  16
ENDBRANCH  11  12
ENDBRANCH   1  11
TORSDOF 5
ENDMDL
