REMARK  5 active torsions:
REMARK  status: ('A' for Active; 'I' for Inactive)
REMARK    1  A    between atoms: O_1  and  C_2 
REMARK    2  A    between atoms: C_2  and  C_4 
REMARK    3  A    between atoms: C_4  and  C_5 
REMARK    4  A    between atoms: C_5  and  C_6 
REMARK    5  A    between atoms: C_6  and  C_8 
ROOT
HETATM    1  C   UNK N   1       2.715   2.128   0.000  0.00  0.00     0.117 C 
ENDROOT
BRANCH   1   2
HETATM    2  C   UNK N   1       1.399   1.402   0.000  0.00  0.00     0.139 C 
HETATM    3  O   UNK N   1       1.355   0.180  -0.000  0.00  0.00    -0.650 OA
BRANCH   2   4
HETATM    4  O   UNK N   1       0.252   2.105   0.000  0.00  0.00    -0.776 OA
HETATM    5  H   UNK N   1       0.277   3.042   0.000  0.00  0.00     0.167 HD
ENDBRANCH   2   4
ENDBRANCH   1   2
BRANCH   1   6
HETATM    6  C   UNK N   1       3.888   1.153  -0.000  0.00  0.00     0.091 C 
BRANCH   6   7
HETATM    7  C   UNK N   1       5.237   1.806  -0.000  0.00  0.00     0.155 C 
HETATM    8  O   UNK N   1       5.352   3.023   0.000  0.00  0.00    -0.295 OA
BRANCH   7   9
HETATM    9  C   UNK N   1       6.447   0.927  -0.000  0.00  0.00     0.300 C 
HETATM   10  F   UNK N   1       7.613   1.670   0.000  0.00  0.00    -0.248 F 
ENDBRANCH   7   9
ENDBRANCH   6   7
ENDBRANCH   1   6
TORSDOF 5
