MODEL 1
REMARK VINA RESULT:      -7.9      0.000      0.000
REMARK WARNING: 32 MAX_TORS EXCEEDED!!!
REMARK  34 active torsions:
REMARK  status: ('A' for Active; 'I' for Inactive)
REMARK    1  A    between atoms: P_1  and  O_4 
REMARK    2  A    between atoms: P_1  and  O_8 
REMARK    3  A    between atoms: P_1  and  O_9 
REMARK    4  A    between atoms: C_24  and  O_4 
REMARK    5  A    between atoms: C_28  and  O_5 
REMARK    6  A    between atoms: C_29  and  O_6 
REMARK    7  A    between atoms: C_36  and  O_10 
REMARK    8  A    between atoms: C_41  and  O_11 
REMARK    9  A    between atoms: C_58  and  O_13 
REMARK   10  A    between atoms: C_60  and  O_14 
REMARK   11  A    between atoms: O_16  and  C_63 
REMARK   12  A    between atoms: N_19  and  C_55 
REMARK       I    between atoms: N_19  and  C_59 
REMARK   13  A    between atoms: N_20  and  C_61 
REMARK   14  A    between atoms: C_25  and  C_28 
REMARK   15  A    between atoms: C_27  and  C_34 
REMARK   16  A    between atoms: C_28  and  C_33 
REMARK   17  A    between atoms: C_33  and  C_36 
REMARK   18  A    between atoms: C_34  and  C_37 
REMARK   19  A    between atoms: C_36  and  C_38 
REMARK   20  A    between atoms: C_37  and  C_40 
REMARK   21  A    between atoms: C_38  and  C_41 
REMARK   22  A    between atoms: C_40  and  C_42 
REMARK   23  A    between atoms: C_41  and  C_44 
REMARK   24  A    between atoms: C_44  and  C_47 
REMARK   25  A    between atoms: C_46  and  C_49 
REMARK   26  A    between atoms: C_49  and  C_52 
REMARK   27  A    between atoms: C_50  and  C_51 
REMARK   28  A    between atoms: C_52  and  C_55 
REMARK   29  A    between atoms: C_56  and  C_62 
REMARK   30  A    between atoms: C_58  and  C_59 
REMARK   31  A    between atoms: C_58  and  C_60 
REMARK   32  A    between atoms: C_60  and  C_61 
REMARK   33  A    between atoms: C_61  and  C_63 
REMARK   34  A    between atoms: C_64  and  C_67 
ROOT
HETATM    1  N   UNK N   1      36.963   8.517  16.486  0.00  0.00    -0.192 NA
HETATM    2  C   UNK N   1      35.654  10.985  18.504  0.00  0.00    -0.052 C 
HETATM    3  C   UNK N   1      36.589  10.031  18.577  0.00  0.00     0.100 C 
HETATM    4  C   UNK N   1      35.379  11.858  19.686  0.00  0.00     0.049 C 
HETATM    5  C   UNK N   1      36.826   9.168  17.433  0.00  0.00     0.088 C 
ENDROOT
BRANCH   2   6
HETATM    6  C   UNK N   1      34.942  11.148  17.229  0.00  0.00     0.007 C 
HETATM    7  C   UNK N   1      34.964  12.164  16.398  0.00  0.00     0.001 C 
BRANCH   7   8
HETATM    8  C   UNK N   1      35.665  13.441  16.553  0.00  0.00     0.007 C 
HETATM    9  C   UNK N   1      36.468  13.812  15.555  0.00  0.00    -0.056 C 
HETATM   10  C   UNK N   1      37.246  15.083  15.629  0.00  0.00     0.049 C 
BRANCH   9  11
HETATM   11  C   UNK N   1      36.647  12.934  14.394  0.00  0.00    -0.059 C 
HETATM   12  C   UNK N   1      35.846  13.144  13.324  0.00  0.00    -0.013 C 
HETATM   13  C   UNK N   1      37.614  11.786  14.493  0.00  0.00     0.048 C 
BRANCH  12  14
HETATM   14  C   UNK N   1      35.662  12.167  12.205  0.00  0.00     0.034 C 
HETATM   15  C   UNK N   1      34.534  11.188  12.449  0.00  0.00     0.017 C 
BRANCH  14  16
HETATM   16  C   UNK N   1      35.499  12.980  10.918  0.00  0.00     0.131 C 
BRANCH  16  17
HETATM   17  O   UNK N   1      34.266  12.673  10.327  0.00  0.00    -0.394 OA
HETATM   18  H   UNK N   1      33.414  12.261  10.536  0.00  0.00     0.210 HD
ENDBRANCH  16  17
BRANCH  16  19
HETATM   19  C   UNK N   1      35.599  14.475  11.261  0.00  0.00     0.040 C 
HETATM   20  C   UNK N   1      36.880  14.982  10.615  0.00  0.00     0.015 C 
BRANCH  19  21
HETATM   21  C   UNK N   1      34.478  15.425  10.805  0.00  0.00     0.126 C 
BRANCH  21  22
HETATM   22  O   UNK N   1      33.214  14.941  11.139  0.00  0.00    -0.395 OA
HETATM   23  H   UNK N   1      32.599  14.227  10.908  0.00  0.00     0.210 HD
ENDBRANCH  21  22
BRANCH  21  24
HETATM   24  C   UNK N   1      34.528  16.041   9.406  0.00  0.00     0.067 C 
BRANCH  24  25
HETATM   25  C   UNK N   1      33.372  15.466   8.541  0.00  0.00     0.154 C 
BRANCH  25  26
HETATM   26  O   UNK N   1      32.088  16.028   8.781  0.00  0.00    -0.388 OA
HETATM   27  C   UNK N   1      32.146  17.431   8.659  0.00  0.00     0.202 C 
ENDBRANCH  25  26
BRANCH  25  28
HETATM   28  C   UNK N   1      33.748  15.215   7.069  0.00  0.00     0.184 C 
HETATM   29  O   UNK N   1      32.536  15.128   6.454  0.00  0.00    -0.344 OA
HETATM   30  C   UNK N   1      32.545  14.096   5.528  0.00  0.00     0.176 C 
HETATM   31  O   UNK N   1      31.314  13.409   5.660  0.00  0.00    -0.348 OA
HETATM   32  C   UNK N   1      33.666  13.118   5.891  0.00  0.00     0.038 C 
HETATM   33  C   UNK N   1      32.768  14.829   4.172  0.00  0.00     0.101 C 
HETATM   34  C   UNK N   1      30.268  14.181   5.161  0.00  0.00     0.134 C 
HETATM   35  C   UNK N   1      30.366  14.123   3.636  0.00  0.00     0.040 C 
HETATM   36  C   UNK N   1      31.779  14.441   3.091  0.00  0.00     0.129 C 
HETATM   37  C   UNK N   1      29.848  12.771   3.166  0.00  0.00     0.015 C 
HETATM   38  C   UNK N   1      34.619  14.057   6.575  0.00  0.00     0.178 C 
HETATM   39  C   UNK N   1      34.235  12.447   4.642  0.00  0.00     0.023 C 
HETATM   40  C   UNK N   1      33.208  12.038   6.869  0.00  0.00     0.023 C 
BRANCH  34  41
HETATM   41  C   UNK N   1      30.058  15.534   5.920  0.00  0.00     0.059 C 
BRANCH  41  42
HETATM   42  C   UNK N   1      28.802  16.293   5.493  0.00  0.00    -0.022 C 
BRANCH  42  43
HETATM   43  C   UNK N   1      28.916  17.434   4.827  0.00  0.00     0.027 C 
BRANCH  43  44
HETATM   44  C   UNK N   1      27.702  17.891   4.205  0.00  0.00     0.056 A 
HETATM   45  N   UNK N   1      27.115  19.010   4.619  0.00  0.00    -0.338 N 
HETATM   46  C   UNK N   1      25.857  18.898   4.188  0.00  0.00     0.127 A 
ATOM     47  HN  UNK N   1      27.532  19.777   5.147  1.00  0.00     0.168 HD
HETATM   48  O   UNK N   1      25.657  17.761   3.565  0.00  0.00    -0.307 OA
HETATM   49  C   UNK N   1      26.778  17.094   3.574  0.00  0.00     0.173 A 
BRANCH  46  50
HETATM   50  C   UNK N   1      25.104  20.109   3.832  0.00  0.00     0.058 C 
HETATM   51  C   UNK N   1      25.780  20.789   2.652  0.00  0.00     0.018 C 
BRANCH  50  52
HETATM   52  C   UNK N   1      23.685  19.642   3.385  0.00  0.00     0.032 C 
BRANCH  52  53
HETATM   53  C   UNK N   1      22.724  20.731   2.804  0.00  0.00     0.123 C 
BRANCH  53  54
HETATM   54  N   UNK N   1      21.618  20.045   2.200  0.00  0.00    -0.359 N 
HETATM   55  C   UNK N   1      20.522  19.800   2.911  0.00  0.00     0.249 C 
HETATM   56  O   UNK N   1      20.222  20.544   3.833  0.00  0.00    -0.271 OA
HETATM   57  H   UNK N   1      21.672  19.755   1.261  0.00  0.00     0.162 HD
BRANCH  55  58
HETATM   58  C   UNK N   1      19.924  18.429   2.796  0.00  0.00     0.240 C 
BRANCH  58  59
HETATM   59  O   UNK N   1      18.645  18.418   2.236  0.00  0.00    -0.383 OA
HETATM   60  H   UNK N   1      18.247  17.593   1.917  0.00  0.00     0.210 HD
ENDBRANCH  58  59
BRANCH  58  61
HETATM   61  C   UNK N   1      20.044  17.620   4.083  0.00  0.00     0.191 C 
BRANCH  61  62
HETATM   62  O   UNK N   1      18.959  16.733   4.141  0.00  0.00    -0.390 OA
HETATM   63  H   UNK N   1      18.125  17.011   4.549  0.00  0.00     0.210 HD
ENDBRANCH  61  62
BRANCH  61  64
HETATM   64  C   UNK N   1      21.363  16.843   4.152  0.00  0.00     0.277 C 
BRANCH  64  65
HETATM   65  N   UNK N   1      21.791  16.710   5.560  0.00  0.00     0.089 N 
HETATM   66  C   UNK N   1      23.210  16.442   5.747  0.00  0.00     0.310 C 
HETATM   67  C   UNK N   1      21.518  17.971   6.234  0.00  0.00     0.310 C 
ENDBRANCH  64  65
BRANCH  64  68
HETATM   68  C   UNK N   1      21.194  15.523   3.395  0.00  0.00     0.205 C 
BRANCH  68  69
HETATM   69  O   UNK N   1      21.093  14.467   4.300  0.00  0.00    -0.394 OA
HETATM   70  C   UNK N   1      21.861  13.453   3.731  0.00  0.00     0.201 C 
ENDBRANCH  68  69
ENDBRANCH  64  68
ENDBRANCH  61  64
ENDBRANCH  58  61
ENDBRANCH  55  58
ENDBRANCH  53  54
ENDBRANCH  52  53
ENDBRANCH  50  52
ENDBRANCH  46  50
ENDBRANCH  43  44
ENDBRANCH  42  43
ENDBRANCH  41  42
ENDBRANCH  34  41
BRANCH  36  71
HETATM   71  O   UNK N   1      32.318  13.400   2.338  0.00  0.00    -0.395 OA
HETATM   72  H   UNK N   1      32.527  12.544   2.747  0.00  0.00     0.210 HD
ENDBRANCH  36  71
BRANCH  38  73
HETATM   73  O   UNK N   1      35.548  13.530   7.497  0.00  0.00    -0.288 OA
BRANCH  73  74
HETATM   74  P   UNK N   1      37.142  13.620   6.771  0.00  0.00     0.391 P 
HETATM   75  O   UNK N   1      37.191  14.750   5.702  0.00  0.00    -0.632 OA
BRANCH  74  76
HETATM   76  O   UNK N   1      38.457  13.875   7.873  0.00  0.00    -0.307 OA
HETATM   77  H   UNK N   1      38.469  13.424   8.732  0.00  0.00     0.222 HD
ENDBRANCH  74  76
BRANCH  74  78
HETATM   78  O   UNK N   1      37.435  12.131   5.946  0.00  0.00    -0.307 OA
HETATM   79  H   UNK N   1      38.050  11.675   5.352  0.00  0.00     0.222 HD
ENDBRANCH  74  78
ENDBRANCH  73  74
ENDBRANCH  38  73
ENDBRANCH  25  28
ENDBRANCH  24  25
ENDBRANCH  21  24
ENDBRANCH  19  21
ENDBRANCH  16  19
ENDBRANCH  14  16
ENDBRANCH  12  14
ENDBRANCH   9  11
ENDBRANCH   7   8
ENDBRANCH   2   6
TORSDOF 34
ENDMDL
MODEL 2
REMARK VINA RESULT:      -7.9      6.833     12.781
REMARK WARNING: 32 MAX_TORS EXCEEDED!!!
REMARK  34 active torsions:
REMARK  status: ('A' for Active; 'I' for Inactive)
REMARK    1  A    between atoms: P_1  and  O_4 
REMARK    2  A    between atoms: P_1  and  O_8 
REMARK    3  A    between atoms: P_1  and  O_9 
REMARK    4  A    between atoms: C_24  and  O_4 
REMARK    5  A    between atoms: C_28  and  O_5 
REMARK    6  A    between atoms: C_29  and  O_6 
REMARK    7  A    between atoms: C_36  and  O_10 
REMARK    8  A    between atoms: C_41  and  O_11 
REMARK    9  A    between atoms: C_58  and  O_13 
REMARK   10  A    between atoms: C_60  and  O_14 
REMARK   11  A    between atoms: O_16  and  C_63 
REMARK   12  A    between atoms: N_19  and  C_55 
REMARK       I    between atoms: N_19  and  C_59 
REMARK   13  A    between atoms: N_20  and  C_61 
REMARK   14  A    between atoms: C_25  and  C_28 
REMARK   15  A    between atoms: C_27  and  C_34 
REMARK   16  A    between atoms: C_28  and  C_33 
REMARK   17  A    between atoms: C_33  and  C_36 
REMARK   18  A    between atoms: C_34  and  C_37 
REMARK   19  A    between atoms: C_36  and  C_38 
REMARK   20  A    between atoms: C_37  and  C_40 
REMARK   21  A    between atoms: C_38  and  C_41 
REMARK   22  A    between atoms: C_40  and  C_42 
REMARK   23  A    between atoms: C_41  and  C_44 
REMARK   24  A    between atoms: C_44  and  C_47 
REMARK   25  A    between atoms: C_46  and  C_49 
REMARK   26  A    between atoms: C_49  and  C_52 
REMARK   27  A    between atoms: C_50  and  C_51 
REMARK   28  A    between atoms: C_52  and  C_55 
REMARK   29  A    between atoms: C_56  and  C_62 
REMARK   30  A    between atoms: C_58  and  C_59 
REMARK   31  A    between atoms: C_58  and  C_60 
REMARK   32  A    between atoms: C_60  and  C_61 
REMARK   33  A    between atoms: C_61  and  C_63 
REMARK   34  A    between atoms: C_64  and  C_67 
ROOT
HETATM    1  N   UNK N   1      24.809  12.920   9.399  0.00  0.00    -0.192 NA
HETATM    2  C   UNK N   1      21.532  12.622  10.421  0.00  0.00    -0.052 C 
HETATM    3  C   UNK N   1      22.754  12.532  10.957  0.00  0.00     0.100 C 
HETATM    4  C   UNK N   1      20.322  12.376  11.264  0.00  0.00     0.049 C 
HETATM    5  C   UNK N   1      23.923  12.741  10.121  0.00  0.00     0.088 C 
ENDROOT
BRANCH   2   6
HETATM    6  C   UNK N   1      21.434  12.988   9.001  0.00  0.00     0.007 C 
HETATM    7  C   UNK N   1      20.930  14.076   8.465  0.00  0.00     0.001 C 
BRANCH   7   8
HETATM    8  C   UNK N   1      20.271  15.194   9.144  0.00  0.00     0.007 C 
HETATM    9  C   UNK N   1      20.000  16.271   8.405  0.00  0.00    -0.056 C 
HETATM   10  C   UNK N   1      19.354  17.473   9.010  0.00  0.00     0.049 C 
BRANCH   9  11
HETATM   11  C   UNK N   1      20.399  16.311   6.994  0.00  0.00    -0.059 C 
HETATM   12  C   UNK N   1      21.603  16.855   6.702  0.00  0.00    -0.013 C 
HETATM   13  C   UNK N   1      19.415  15.865   5.948  0.00  0.00     0.048 C 
BRANCH  12  14
HETATM   14  C   UNK N   1      22.027  17.271   5.328  0.00  0.00     0.034 C 
HETATM   15  C   UNK N   1      21.365  18.550   4.863  0.00  0.00     0.017 C 
BRANCH  14  16
HETATM   16  C   UNK N   1      23.556  17.341   5.329  0.00  0.00     0.131 C 
BRANCH  16  17
HETATM   17  O   UNK N   1      24.067  16.350   6.179  0.00  0.00    -0.394 OA
HETATM   18  H   UNK N   1      24.757  15.670   6.211  0.00  0.00     0.210 HD
ENDBRANCH  16  17
BRANCH  16  19
HETATM   19  C   UNK N   1      24.061  17.158   3.889  0.00  0.00     0.040 C 
HETATM   20  C   UNK N   1      24.809  18.433   3.527  0.00  0.00     0.015 C 
BRANCH  19  21
HETATM   21  C   UNK N   1      25.013  15.992   3.571  0.00  0.00     0.126 C 
BRANCH  21  22
HETATM   22  O   UNK N   1      26.230  16.113   4.239  0.00  0.00    -0.395 OA
HETATM   23  H   UNK N   1      27.090  15.670   4.320  0.00  0.00     0.210 HD
ENDBRANCH  21  22
BRANCH  21  24
HETATM   24  C   UNK N   1      25.173  15.516   2.127  0.00  0.00     0.067 C 
BRANCH  24  25
HETATM   25  C   UNK N   1      24.237  14.302   1.870  0.00  0.00     0.154 C 
BRANCH  25  26
HETATM   26  O   UNK N   1      24.882  13.040   1.767  0.00  0.00    -0.388 OA
HETATM   27  C   UNK N   1      24.539  12.422   0.547  0.00  0.00     0.202 C 
ENDBRANCH  25  26
BRANCH  25  28
HETATM   28  C   UNK N   1      22.921  14.338   2.671  0.00  0.00     0.184 C 
HETATM   29  O   UNK N   1      22.970  13.185   3.392  0.00  0.00    -0.344 OA
HETATM   30  C   UNK N   1      21.724  12.575   3.403  0.00  0.00     0.176 C 
HETATM   31  O   UNK N   1      21.938  11.189   3.210  0.00  0.00    -0.348 OA
HETATM   32  C   UNK N   1      20.913  13.092   2.211  0.00  0.00     0.038 C 
HETATM   33  C   UNK N   1      21.134  12.983   4.786  0.00  0.00     0.101 C 
HETATM   34  C   UNK N   1      22.502  10.620   4.348  0.00  0.00     0.134 C 
HETATM   35  C   UNK N   1      21.384  10.506   5.386  0.00  0.00     0.040 C 
HETATM   36  C   UNK N   1      20.592  11.820   5.592  0.00  0.00     0.129 C 
HETATM   37  C   UNK N   1      20.487   9.336   5.009  0.00  0.00     0.015 C 
HETATM   38  C   UNK N   1      21.525  14.455   2.052  0.00  0.00     0.178 C 
HETATM   39  C   UNK N   1      19.419  13.110   2.530  0.00  0.00     0.023 C 
HETATM   40  C   UNK N   1      21.140  12.269   0.945  0.00  0.00     0.023 C 
BRANCH  34  41
HETATM   41  C   UNK N   1      23.910  11.196   4.718  0.00  0.00     0.059 C 
BRANCH  41  42
HETATM   42  C   UNK N   1      25.074  10.446   4.072  0.00  0.00    -0.022 C 
BRANCH  42  43
HETATM   43  C   UNK N   1      26.295  10.566   4.574  0.00  0.00     0.027 C 
BRANCH  43  44
HETATM   44  C   UNK N   1      26.976  11.781   4.214  0.00  0.00     0.056 A 
HETATM   45  N   UNK N   1      28.093  11.736   3.493  0.00  0.00    -0.338 N 
HETATM   46  C   UNK N   1      28.679  12.913   3.725  0.00  0.00     0.127 A 
ATOM     47  HN  UNK N   1      28.425  10.976   2.900  1.00  0.00     0.168 HD
HETATM   48  O   UNK N   1      27.986  13.643   4.566  0.00  0.00    -0.307 OA
HETATM   49  C   UNK N   1      26.928  12.963   4.912  0.00  0.00     0.173 A 
BRANCH  46  50
HETATM   50  C   UNK N   1      29.504  13.529   2.676  0.00  0.00     0.058 C 
HETATM   51  C   UNK N   1      28.995  13.084   1.314  0.00  0.00     0.018 C 
BRANCH  50  52
HETATM   52  C   UNK N   1      29.307  15.071   2.795  0.00  0.00     0.032 C 
BRANCH  52  53
HETATM   53  C   UNK N   1      30.590  15.963   2.735  0.00  0.00     0.123 C 
BRANCH  53  54
HETATM   54  N   UNK N   1      30.461  16.966   3.751  0.00  0.00    -0.359 N 
HETATM   55  C   UNK N   1      31.215  16.905   4.844  0.00  0.00     0.249 C 
HETATM   56  O   UNK N   1      32.313  16.369   4.790  0.00  0.00    -0.271 OA
HETATM   57  H   UNK N   1      29.813  17.699   3.641  0.00  0.00     0.162 HD
BRANCH  55  58
HETATM   58  C   UNK N   1      30.538  17.150   6.159  0.00  0.00     0.240 C 
BRANCH  58  59
HETATM   59  O   UNK N   1      30.984  16.315   7.186  0.00  0.00    -0.383 OA
HETATM   60  H   UNK N   1      30.741  16.486   8.110  0.00  0.00     0.210 HD
ENDBRANCH  58  59
BRANCH  58  61
HETATM   61  C   UNK N   1      29.019  17.228   6.039  0.00  0.00     0.191 C 
BRANCH  61  62
HETATM   62  O   UNK N   1      28.507  15.928   6.161  0.00  0.00    -0.390 OA
HETATM   63  H   UNK N   1      29.108  15.178   6.287  0.00  0.00     0.210 HD
ENDBRANCH  61  62
BRANCH  61  64
HETATM   64  C   UNK N   1      28.404  18.137   7.108  0.00  0.00     0.277 C 
BRANCH  64  65
HETATM   65  N   UNK N   1      27.462  19.084   6.476  0.00  0.00     0.089 N 
HETATM   66  C   UNK N   1      27.442  20.414   7.067  0.00  0.00     0.310 C 
HETATM   67  C   UNK N   1      27.860  19.254   5.087  0.00  0.00     0.310 C 
ENDBRANCH  64  65
BRANCH  64  68
HETATM   68  C   UNK N   1      27.806  17.261   8.212  0.00  0.00     0.205 C 
BRANCH  68  69
HETATM   69  O   UNK N   1      27.867  17.930   9.434  0.00  0.00    -0.394 OA
HETATM   70  C   UNK N   1      29.209  18.281   9.567  0.00  0.00     0.201 C 
ENDBRANCH  68  69
ENDBRANCH  64  68
ENDBRANCH  61  64
ENDBRANCH  58  61
ENDBRANCH  55  58
ENDBRANCH  53  54
ENDBRANCH  52  53
ENDBRANCH  50  52
ENDBRANCH  46  50
ENDBRANCH  43  44
ENDBRANCH  42  43
ENDBRANCH  41  42
ENDBRANCH  34  41
BRANCH  36  71
HETATM   71  O   UNK N   1      19.231  11.682   5.326  0.00  0.00    -0.395 OA
HETATM   72  H   UNK N   1      18.921  11.369   4.461  0.00  0.00     0.210 HD
ENDBRANCH  36  71
BRANCH  38  73
HETATM   73  O   UNK N   1      21.445  15.093   0.796  0.00  0.00    -0.288 OA
BRANCH  73  74
HETATM   74  P   UNK N   1      20.044  16.148   0.813  0.00  0.00     0.391 P 
HETATM   75  O   UNK N   1      18.836  15.463   0.112  0.00  0.00    -0.632 OA
BRANCH  74  76
HETATM   76  O   UNK N   1      19.519  16.676   2.381  0.00  0.00    -0.307 OA
HETATM   77  H   UNK N   1      18.820  16.193   2.850  0.00  0.00     0.222 HD
ENDBRANCH  74  76
BRANCH  74  78
HETATM   78  O   UNK N   1      20.429  17.558  -0.108  0.00  0.00    -0.307 OA
HETATM   79  H   UNK N   1      20.697  18.487  -0.039  0.00  0.00     0.222 HD
ENDBRANCH  74  78
ENDBRANCH  73  74
ENDBRANCH  38  73
ENDBRANCH  25  28
ENDBRANCH  24  25
ENDBRANCH  21  24
ENDBRANCH  19  21
ENDBRANCH  16  19
ENDBRANCH  14  16
ENDBRANCH  12  14
ENDBRANCH   9  11
ENDBRANCH   7   8
ENDBRANCH   2   6
TORSDOF 34
ENDMDL
MODEL 3
REMARK VINA RESULT:      -7.8      4.058     13.569
REMARK WARNING: 32 MAX_TORS EXCEEDED!!!
REMARK  34 active torsions:
REMARK  status: ('A' for Active; 'I' for Inactive)
REMARK    1  A    between atoms: P_1  and  O_4 
REMARK    2  A    between atoms: P_1  and  O_8 
REMARK    3  A    between atoms: P_1  and  O_9 
REMARK    4  A    between atoms: C_24  and  O_4 
REMARK    5  A    between atoms: C_28  and  O_5 
REMARK    6  A    between atoms: C_29  and  O_6 
REMARK    7  A    between atoms: C_36  and  O_10 
REMARK    8  A    between atoms: C_41  and  O_11 
REMARK    9  A    between atoms: C_58  and  O_13 
REMARK   10  A    between atoms: C_60  and  O_14 
REMARK   11  A    between atoms: O_16  and  C_63 
REMARK   12  A    between atoms: N_19  and  C_55 
REMARK       I    between atoms: N_19  and  C_59 
REMARK   13  A    between atoms: N_20  and  C_61 
REMARK   14  A    between atoms: C_25  and  C_28 
REMARK   15  A    between atoms: C_27  and  C_34 
REMARK   16  A    between atoms: C_28  and  C_33 
REMARK   17  A    between atoms: C_33  and  C_36 
REMARK   18  A    between atoms: C_34  and  C_37 
REMARK   19  A    between atoms: C_36  and  C_38 
REMARK   20  A    between atoms: C_37  and  C_40 
REMARK   21  A    between atoms: C_38  and  C_41 
REMARK   22  A    between atoms: C_40  and  C_42 
REMARK   23  A    between atoms: C_41  and  C_44 
REMARK   24  A    between atoms: C_44  and  C_47 
REMARK   25  A    between atoms: C_46  and  C_49 
REMARK   26  A    between atoms: C_49  and  C_52 
REMARK   27  A    between atoms: C_50  and  C_51 
REMARK   28  A    between atoms: C_52  and  C_55 
REMARK   29  A    between atoms: C_56  and  C_62 
REMARK   30  A    between atoms: C_58  and  C_59 
REMARK   31  A    between atoms: C_58  and  C_60 
REMARK   32  A    between atoms: C_60  and  C_61 
REMARK   33  A    between atoms: C_61  and  C_63 
REMARK   34  A    between atoms: C_64  and  C_67 
ROOT
HETATM    1  N   UNK N   1      31.616  17.557   5.175  0.00  0.00    -0.192 NA
HETATM    2  C   UNK N   1      28.278  16.972   5.801  0.00  0.00    -0.052 C 
HETATM    3  C   UNK N   1      29.457  16.728   6.382  0.00  0.00     0.100 C 
HETATM    4  C   UNK N   1      27.014  16.489   6.436  0.00  0.00     0.049 C 
HETATM    5  C   UNK N   1      30.681  17.173   5.740  0.00  0.00     0.088 C 
ENDROOT
BRANCH   2   6
HETATM    6  C   UNK N   1      28.279  17.741   4.549  0.00  0.00     0.007 C 
HETATM    7  C   UNK N   1      28.151  19.037   4.378  0.00  0.00     0.001 C 
BRANCH   7   8
HETATM    8  C   UNK N   1      27.908  20.061   5.398  0.00  0.00     0.007 C 
HETATM    9  C   UNK N   1      26.671  20.551   5.475  0.00  0.00    -0.056 C 
HETATM   10  C   UNK N   1      26.329  21.616   6.463  0.00  0.00     0.049 C 
BRANCH   9  11
HETATM   11  C   UNK N   1      25.640  20.093   4.538  0.00  0.00    -0.059 C 
HETATM   12  C   UNK N   1      24.780  19.143   4.973  0.00  0.00    -0.013 C 
HETATM   13  C   UNK N   1      25.665  20.603   3.123  0.00  0.00     0.048 C 
BRANCH  12  14
HETATM   14  C   UNK N   1      23.893  18.337   4.076  0.00  0.00     0.034 C 
HETATM   15  C   UNK N   1      24.555  17.076   3.562  0.00  0.00     0.017 C 
BRANCH  14  16
HETATM   16  C   UNK N   1      22.594  18.076   4.842  0.00  0.00     0.131 C 
BRANCH  16  17
HETATM   17  O   UNK N   1      22.672  18.672   6.108  0.00  0.00    -0.394 OA
HETATM   18  H   UNK N   1      23.113  19.402   6.569  0.00  0.00     0.210 HD
ENDBRANCH  16  17
BRANCH  16  19
HETATM   19  C   UNK N   1      21.418  18.640   4.028  0.00  0.00     0.040 C 
HETATM   20  C   UNK N   1      21.981  19.773   3.182  0.00  0.00     0.015 C 
BRANCH  19  21
HETATM   21  C   UNK N   1      20.661  17.712   3.062  0.00  0.00     0.126 C 
BRANCH  21  22
HETATM   22  O   UNK N   1      19.279  17.808   3.220  0.00  0.00    -0.395 OA
HETATM   23  H   UNK N   1      18.541  17.361   3.663  0.00  0.00     0.210 HD
ENDBRANCH  21  22
BRANCH  21  24
HETATM   24  C   UNK N   1      21.138  16.273   2.864  0.00  0.00     0.067 C 
BRANCH  24  25
HETATM   25  C   UNK N   1      20.521  15.362   3.962  0.00  0.00     0.154 C 
BRANCH  25  26
HETATM   26  O   UNK N   1      19.621  14.365   3.497  0.00  0.00    -0.388 OA
HETATM   27  C   UNK N   1      19.745  14.217   2.101  0.00  0.00     0.202 C 
ENDBRANCH  25  26
BRANCH  25  28
HETATM   28  C   UNK N   1      21.512  14.936   5.061  0.00  0.00     0.184 C 
HETATM   29  O   UNK N   1      22.316  14.045   4.419  0.00  0.00    -0.344 OA
HETATM   30  C   UNK N   1      22.577  12.959   5.243  0.00  0.00     0.176 C 
HETATM   31  O   UNK N   1      22.477  11.797   4.440  0.00  0.00    -0.348 OA
HETATM   32  C   UNK N   1      21.487  12.881   6.315  0.00  0.00     0.038 C 
HETATM   33  C   UNK N   1      23.994  13.269   5.811  0.00  0.00     0.101 C 
HETATM   34  C   UNK N   1      23.558  11.712   3.568  0.00  0.00     0.134 C 
HETATM   35  C   UNK N   1      24.765  11.275   4.401  0.00  0.00     0.040 C 
HETATM   36  C   UNK N   1      24.976  12.122   5.679  0.00  0.00     0.129 C 
HETATM   37  C   UNK N   1      24.639   9.788   4.698  0.00  0.00     0.015 C 
HETATM   38  C   UNK N   1      21.112  14.333   6.411  0.00  0.00     0.178 C 
HETATM   39  C   UNK N   1      22.034  12.288   7.612  0.00  0.00     0.023 C 
HETATM   40  C   UNK N   1      20.279  12.062   5.866  0.00  0.00     0.023 C 
BRANCH  34  41
HETATM   41  C   UNK N   1      23.648  12.896   2.548  0.00  0.00     0.059 C 
BRANCH  41  42
HETATM   42  C   UNK N   1      25.067  13.184   2.060  0.00  0.00    -0.022 C 
BRANCH  42  43
HETATM   43  C   UNK N   1      25.715  14.250   2.509  0.00  0.00     0.027 C 
BRANCH  43  44
HETATM   44  C   UNK N   1      27.129  14.060   2.695  0.00  0.00     0.056 A 
HETATM   45  N   UNK N   1      27.612  13.737   3.891  0.00  0.00    -0.338 N 
HETATM   46  C   UNK N   1      28.901  14.079   3.826  0.00  0.00     0.127 A 
ATOM     47  HN  UNK N   1      27.112  13.324   4.678  1.00  0.00     0.168 HD
HETATM   48  O   UNK N   1      29.204  14.614   2.666  0.00  0.00    -0.307 OA
HETATM   49  C   UNK N   1      28.120  14.640   1.941  0.00  0.00     0.173 A 
BRANCH  46  50
HETATM   50  C   UNK N   1      29.891  13.317   4.600  0.00  0.00     0.058 C 
HETATM   51  C   UNK N   1      29.783  11.845   4.237  0.00  0.00     0.018 C 
BRANCH  50  52
HETATM   52  C   UNK N   1      31.297  13.830   4.162  0.00  0.00     0.032 C 
BRANCH  52  53
HETATM   53  C   UNK N   1      32.466  13.677   5.190  0.00  0.00     0.123 C 
BRANCH  53  54
HETATM   54  N   UNK N   1      31.897  13.780   6.502  0.00  0.00    -0.359 N 
HETATM   55  C   UNK N   1      32.529  14.467   7.448  0.00  0.00     0.249 C 
HETATM   56  O   UNK N   1      33.260  15.395   7.133  0.00  0.00    -0.271 OA
HETATM   57  H   UNK N   1      31.040  13.340   6.703  0.00  0.00     0.162 HD
BRANCH  55  58
HETATM   58  C   UNK N   1      32.618  13.841   8.808  0.00  0.00     0.240 C 
BRANCH  58  59
HETATM   59  O   UNK N   1      32.289  14.710   9.850  0.00  0.00    -0.383 OA
HETATM   60  H   UNK N   1      32.834  15.490  10.040  0.00  0.00     0.210 HD
ENDBRANCH  58  59
BRANCH  58  61
HETATM   61  C   UNK N   1      33.918  13.075   9.024  0.00  0.00     0.191 C 
BRANCH  61  62
HETATM   62  O   UNK N   1      34.724  13.258   7.891  0.00  0.00    -0.390 OA
HETATM   63  H   UNK N   1      35.561  13.741   7.962  0.00  0.00     0.210 HD
ENDBRANCH  61  62
BRANCH  61  64
HETATM   64  C   UNK N   1      34.661  13.547  10.278  0.00  0.00     0.277 C 
BRANCH  64  65
HETATM   65  N   UNK N   1      35.111  12.377  11.062  0.00  0.00     0.089 N 
HETATM   66  C   UNK N   1      34.422  11.132  10.754  0.00  0.00     0.310 C 
HETATM   67  C   UNK N   1      36.519  12.154  10.768  0.00  0.00     0.310 C 
ENDBRANCH  64  65
BRANCH  64  68
HETATM   68  C   UNK N   1      35.770  14.514   9.856  0.00  0.00     0.205 C 
BRANCH  68  69
HETATM   69  O   UNK N   1      35.247  15.797   9.701  0.00  0.00    -0.394 OA
HETATM   70  C   UNK N   1      35.510  16.424  10.918  0.00  0.00     0.201 C 
ENDBRANCH  68  69
ENDBRANCH  64  68
ENDBRANCH  61  64
ENDBRANCH  58  61
ENDBRANCH  55  58
ENDBRANCH  53  54
ENDBRANCH  52  53
ENDBRANCH  50  52
ENDBRANCH  46  50
ENDBRANCH  43  44
ENDBRANCH  42  43
ENDBRANCH  41  42
ENDBRANCH  34  41
BRANCH  36  71
HETATM   71  O   UNK N   1      24.940  11.361   6.847  0.00  0.00    -0.395 OA
HETATM   72  H   UNK N   1      24.343  11.593   7.576  0.00  0.00     0.210 HD
ENDBRANCH  36  71
BRANCH  38  73
HETATM   73  O   UNK N   1      19.833  14.674   6.899  0.00  0.00    -0.288 OA
BRANCH  73  74
HETATM   74  P   UNK N   1      20.044  15.780   8.244  0.00  0.00     0.391 P 
HETATM   75  O   UNK N   1      20.939  15.137   9.343  0.00  0.00    -0.632 OA
BRANCH  74  76
HETATM   76  O   UNK N   1      20.719  17.328   7.847  0.00  0.00    -0.307 OA
HETATM   77  H   UNK N   1      21.673  17.421   7.693  0.00  0.00     0.222 HD
ENDBRANCH  74  76
BRANCH  74  78
HETATM   78  O   UNK N   1      18.493  16.055   8.953  0.00  0.00    -0.307 OA
HETATM   79  H   UNK N   1      17.996  16.017   9.785  0.00  0.00     0.222 HD
ENDBRANCH  74  78
ENDBRANCH  73  74
ENDBRANCH  38  73
ENDBRANCH  25  28
ENDBRANCH  24  25
ENDBRANCH  21  24
ENDBRANCH  19  21
ENDBRANCH  16  19
ENDBRANCH  14  16
ENDBRANCH  12  14
ENDBRANCH   9  11
ENDBRANCH   7   8
ENDBRANCH   2   6
TORSDOF 34
ENDMDL
MODEL 4
REMARK VINA RESULT:      -7.6      4.448     12.731
REMARK WARNING: 32 MAX_TORS EXCEEDED!!!
REMARK  34 active torsions:
REMARK  status: ('A' for Active; 'I' for Inactive)
REMARK    1  A    between atoms: P_1  and  O_4 
REMARK    2  A    between atoms: P_1  and  O_8 
REMARK    3  A    between atoms: P_1  and  O_9 
REMARK    4  A    between atoms: C_24  and  O_4 
REMARK    5  A    between atoms: C_28  and  O_5 
REMARK    6  A    between atoms: C_29  and  O_6 
REMARK    7  A    between atoms: C_36  and  O_10 
REMARK    8  A    between atoms: C_41  and  O_11 
REMARK    9  A    between atoms: C_58  and  O_13 
REMARK   10  A    between atoms: C_60  and  O_14 
REMARK   11  A    between atoms: O_16  and  C_63 
REMARK   12  A    between atoms: N_19  and  C_55 
REMARK       I    between atoms: N_19  and  C_59 
REMARK   13  A    between atoms: N_20  and  C_61 
REMARK   14  A    between atoms: C_25  and  C_28 
REMARK   15  A    between atoms: C_27  and  C_34 
REMARK   16  A    between atoms: C_28  and  C_33 
REMARK   17  A    between atoms: C_33  and  C_36 
REMARK   18  A    between atoms: C_34  and  C_37 
REMARK   19  A    between atoms: C_36  and  C_38 
REMARK   20  A    between atoms: C_37  and  C_40 
REMARK   21  A    between atoms: C_38  and  C_41 
REMARK   22  A    between atoms: C_40  and  C_42 
REMARK   23  A    between atoms: C_41  and  C_44 
REMARK   24  A    between atoms: C_44  and  C_47 
REMARK   25  A    between atoms: C_46  and  C_49 
REMARK   26  A    between atoms: C_49  and  C_52 
REMARK   27  A    between atoms: C_50  and  C_51 
REMARK   28  A    between atoms: C_52  and  C_55 
REMARK   29  A    between atoms: C_56  and  C_62 
REMARK   30  A    between atoms: C_58  and  C_59 
REMARK   31  A    between atoms: C_58  and  C_60 
REMARK   32  A    between atoms: C_60  and  C_61 
REMARK   33  A    between atoms: C_61  and  C_63 
REMARK   34  A    between atoms: C_64  and  C_67 
ROOT
HETATM    1  N   UNK N   1      24.814  13.168   8.657  0.00  0.00    -0.192 NA
HETATM    2  C   UNK N   1      21.643  12.917   9.984  0.00  0.00    -0.052 C 
HETATM    3  C   UNK N   1      22.909  12.807  10.403  0.00  0.00     0.100 C 
HETATM    4  C   UNK N   1      20.515  12.687  10.937  0.00  0.00     0.049 C 
HETATM    5  C   UNK N   1      23.997  13.001   9.460  0.00  0.00     0.088 C 
ENDROOT
BRANCH   2   6
HETATM    6  C   UNK N   1      21.417  13.289   8.580  0.00  0.00     0.007 C 
HETATM    7  C   UNK N   1      20.955  14.417   8.092  0.00  0.00     0.001 C 
BRANCH   7   8
HETATM    8  C   UNK N   1      20.480  15.591   8.828  0.00  0.00     0.007 C 
HETATM    9  C   UNK N   1      20.064  16.629   8.102  0.00  0.00    -0.056 C 
HETATM   10  C   UNK N   1      19.587  17.882   8.758  0.00  0.00     0.049 C 
BRANCH   9  11
HETATM   11  C   UNK N   1      20.136  16.575   6.638  0.00  0.00    -0.059 C 
HETATM   12  C   UNK N   1      21.219  17.129   6.046  0.00  0.00    -0.013 C 
HETATM   13  C   UNK N   1      18.964  16.024   5.873  0.00  0.00     0.048 C 
BRANCH  12  14
HETATM   14  C   UNK N   1      21.308  17.453   4.587  0.00  0.00     0.034 C 
HETATM   15  C   UNK N   1      21.438  18.936   4.314  0.00  0.00     0.017 C 
BRANCH  14  16
HETATM   16  C   UNK N   1      22.456  16.622   4.009  0.00  0.00     0.131 C 
BRANCH  16  17
HETATM   17  O   UNK N   1      23.256  16.142   5.054  0.00  0.00    -0.394 OA
HETATM   18  H   UNK N   1      23.838  15.398   5.275  0.00  0.00     0.210 HD
ENDBRANCH  16  17
BRANCH  16  19
HETATM   19  C   UNK N   1      21.864  15.469   3.181  0.00  0.00     0.040 C 
HETATM   20  C   UNK N   1      20.584  16.000   2.552  0.00  0.00     0.015 C 
BRANCH  19  21
HETATM   21  C   UNK N   1      22.694  14.868   2.034  0.00  0.00     0.126 C 
BRANCH  21  22
HETATM   22  O   UNK N   1      22.026  14.938   0.812  0.00  0.00    -0.395 OA
HETATM   23  H   UNK N   1      22.189  15.141  -0.122  0.00  0.00     0.210 HD
ENDBRANCH  21  22
BRANCH  21  24
HETATM   24  C   UNK N   1      23.420  13.538   2.239  0.00  0.00     0.067 C 
BRANCH  24  25
HETATM   25  C   UNK N   1      23.118  12.992   3.662  0.00  0.00     0.154 C 
BRANCH  25  26
HETATM   26  O   UNK N   1      22.050  12.058   3.748  0.00  0.00    -0.388 OA
HETATM   27  C   UNK N   1      21.348  12.239   4.957  0.00  0.00     0.202 C 
ENDBRANCH  25  26
BRANCH  25  28
HETATM   28  C   UNK N   1      24.372  12.680   4.500  0.00  0.00     0.184 C 
HETATM   29  O   UNK N   1      25.298  13.543   3.998  0.00  0.00    -0.344 OA
HETATM   30  C   UNK N   1      26.523  12.905   3.868  0.00  0.00     0.176 C 
HETATM   31  O   UNK N   1      27.066  13.301   2.622  0.00  0.00    -0.348 OA
HETATM   32  C   UNK N   1      26.287  11.393   3.815  0.00  0.00     0.038 C 
HETATM   33  C   UNK N   1      27.309  13.373   5.128  0.00  0.00     0.101 C 
HETATM   34  C   UNK N   1      27.482  14.628   2.670  0.00  0.00     0.134 C 
HETATM   35  C   UNK N   1      28.784  14.654   3.473  0.00  0.00     0.040 C 
HETATM   36  C   UNK N   1      28.694  13.910   4.827  0.00  0.00     0.129 C 
HETATM   37  C   UNK N   1      29.909  14.131   2.592  0.00  0.00     0.015 C 
HETATM   38  C   UNK N   1      25.022  11.299   4.620  0.00  0.00     0.178 C 
HETATM   39  C   UNK N   1      27.468  10.632   4.415  0.00  0.00     0.023 C 
HETATM   40  C   UNK N   1      26.040  10.887   2.396  0.00  0.00     0.023 C 
BRANCH  34  41
HETATM   41  C   UNK N   1      26.327  15.648   2.946  0.00  0.00     0.059 C 
BRANCH  41  42
HETATM   42  C   UNK N   1      26.810  17.011   3.436  0.00  0.00    -0.022 C 
BRANCH  42  43
HETATM   43  C   UNK N   1      26.351  17.502   4.580  0.00  0.00     0.027 C 
BRANCH  43  44
HETATM   44  C   UNK N   1      27.335  17.615   5.623  0.00  0.00     0.056 A 
HETATM   45  N   UNK N   1      27.024  18.196   6.778  0.00  0.00    -0.338 N 
HETATM   46  C   UNK N   1      28.205  18.537   7.300  0.00  0.00     0.127 A 
ATOM     47  HN  UNK N   1      26.097  18.347   7.174  1.00  0.00     0.168 HD
HETATM   48  O   UNK N   1      29.198  18.216   6.505  0.00  0.00    -0.307 OA
HETATM   49  C   UNK N   1      28.695  17.659   5.438  0.00  0.00     0.173 A 
BRANCH  46  50
HETATM   50  C   UNK N   1      28.370  18.560   8.761  0.00  0.00     0.058 C 
HETATM   51  C   UNK N   1      28.039  17.188   9.324  0.00  0.00     0.018 C 
BRANCH  50  52
HETATM   52  C   UNK N   1      29.875  18.856   9.039  0.00  0.00     0.032 C 
BRANCH  52  53
HETATM   53  C   UNK N   1      30.851  17.633   9.067  0.00  0.00     0.123 C 
BRANCH  53  54
HETATM   54  N   UNK N   1      31.940  17.936   8.184  0.00  0.00    -0.359 N 
HETATM   55  C   UNK N   1      32.517  16.964   7.486  0.00  0.00     0.249 C 
HETATM   56  O   UNK N   1      31.868  15.974   7.178  0.00  0.00    -0.271 OA
HETATM   57  H   UNK N   1      32.261  18.862   8.097  0.00  0.00     0.162 HD
BRANCH  55  58
HETATM   58  C   UNK N   1      34.016  16.950   7.438  0.00  0.00     0.240 C 
BRANCH  58  59
HETATM   59  O   UNK N   1      34.562  17.937   6.615  0.00  0.00    -0.383 OA
HETATM   60  H   UNK N   1      34.074  18.753   6.422  0.00  0.00     0.210 HD
ENDBRANCH  58  59
BRANCH  58  61
HETATM   61  C   UNK N   1      34.590  15.557   7.202  0.00  0.00     0.191 C 
BRANCH  61  62
HETATM   62  O   UNK N   1      35.463  15.628   6.106  0.00  0.00    -0.390 OA
HETATM   63  H   UNK N   1      35.174  16.043   5.280  0.00  0.00     0.210 HD
ENDBRANCH  61  62
BRANCH  61  64
HETATM   64  C   UNK N   1      35.332  15.025   8.432  0.00  0.00     0.277 C 
BRANCH  64  65
HETATM   65  N   UNK N   1      34.822  15.690   9.649  0.00  0.00     0.089 N 
HETATM   66  C   UNK N   1      33.814  14.938  10.381  0.00  0.00     0.310 C 
HETATM   67  C   UNK N   1      35.940  15.877  10.561  0.00  0.00     0.310 C 
ENDBRANCH  64  65
BRANCH  64  68
HETATM   68  C   UNK N   1      35.239  13.497   8.437  0.00  0.00     0.205 C 
BRANCH  68  69
HETATM   69  O   UNK N   1      34.530  13.061   7.319  0.00  0.00    -0.394 OA
HETATM   70  C   UNK N   1      34.502  11.674   7.449  0.00  0.00     0.201 C 
ENDBRANCH  68  69
ENDBRANCH  64  68
ENDBRANCH  61  64
ENDBRANCH  58  61
ENDBRANCH  55  58
ENDBRANCH  53  54
ENDBRANCH  52  53
ENDBRANCH  50  52
ENDBRANCH  46  50
ENDBRANCH  43  44
ENDBRANCH  42  43
ENDBRANCH  41  42
ENDBRANCH  34  41
BRANCH  36  71
HETATM   71  O   UNK N   1      29.616  12.870   4.938  0.00  0.00    -0.395 OA
HETATM   72  H   UNK N   1      29.576  12.245   5.680  0.00  0.00     0.210 HD
ENDBRANCH  36  71
BRANCH  38  73
HETATM   73  O   UNK N   1      24.175  10.186   4.427  0.00  0.00    -0.288 OA
BRANCH  73  74
HETATM   74  P   UNK N   1      23.962   9.393   5.976  0.00  0.00     0.391 P 
HETATM   75  O   UNK N   1      22.585   8.671   6.035  0.00  0.00    -0.632 OA
BRANCH  74  76
HETATM   76  O   UNK N   1      25.186   8.241   6.407  0.00  0.00    -0.307 OA
HETATM   77  H   UNK N   1      26.109   8.388   6.147  0.00  0.00     0.222 HD
ENDBRANCH  74  76
BRANCH  74  78
HETATM   78  O   UNK N   1      23.944  10.614   7.199  0.00  0.00    -0.307 OA
HETATM   79  H   UNK N   1      24.484  11.050   7.876  0.00  0.00     0.222 HD
ENDBRANCH  74  78
ENDBRANCH  73  74
ENDBRANCH  38  73
ENDBRANCH  25  28
ENDBRANCH  24  25
ENDBRANCH  21  24
ENDBRANCH  19  21
ENDBRANCH  16  19
ENDBRANCH  14  16
ENDBRANCH  12  14
ENDBRANCH   9  11
ENDBRANCH   7   8
ENDBRANCH   2   6
TORSDOF 34
ENDMDL
MODEL 5
REMARK VINA RESULT:      -7.6      3.940     13.961
REMARK WARNING: 32 MAX_TORS EXCEEDED!!!
REMARK  34 active torsions:
REMARK  status: ('A' for Active; 'I' for Inactive)
REMARK    1  A    between atoms: P_1  and  O_4 
REMARK    2  A    between atoms: P_1  and  O_8 
REMARK    3  A    between atoms: P_1  and  O_9 
REMARK    4  A    between atoms: C_24  and  O_4 
REMARK    5  A    between atoms: C_28  and  O_5 
REMARK    6  A    between atoms: C_29  and  O_6 
REMARK    7  A    between atoms: C_36  and  O_10 
REMARK    8  A    between atoms: C_41  and  O_11 
REMARK    9  A    between atoms: C_58  and  O_13 
REMARK   10  A    between atoms: C_60  and  O_14 
REMARK   11  A    between atoms: O_16  and  C_63 
REMARK   12  A    between atoms: N_19  and  C_55 
REMARK       I    between atoms: N_19  and  C_59 
REMARK   13  A    between atoms: N_20  and  C_61 
REMARK   14  A    between atoms: C_25  and  C_28 
REMARK   15  A    between atoms: C_27  and  C_34 
REMARK   16  A    between atoms: C_28  and  C_33 
REMARK   17  A    between atoms: C_33  and  C_36 
REMARK   18  A    between atoms: C_34  and  C_37 
REMARK   19  A    between atoms: C_36  and  C_38 
REMARK   20  A    between atoms: C_37  and  C_40 
REMARK   21  A    between atoms: C_38  and  C_41 
REMARK   22  A    between atoms: C_40  and  C_42 
REMARK   23  A    between atoms: C_41  and  C_44 
REMARK   24  A    between atoms: C_44  and  C_47 
REMARK   25  A    between atoms: C_46  and  C_49 
REMARK   26  A    between atoms: C_49  and  C_52 
REMARK   27  A    between atoms: C_50  and  C_51 
REMARK   28  A    between atoms: C_52  and  C_55 
REMARK   29  A    between atoms: C_56  and  C_62 
REMARK   30  A    between atoms: C_58  and  C_59 
REMARK   31  A    between atoms: C_58  and  C_60 
REMARK   32  A    between atoms: C_60  and  C_61 
REMARK   33  A    between atoms: C_61  and  C_63 
REMARK   34  A    between atoms: C_64  and  C_67 
ROOT
HETATM    1  N   UNK N   1      20.313  13.816   8.892  0.00  0.00    -0.192 NA
HETATM    2  C   UNK N   1      23.401  12.746   9.983  0.00  0.00    -0.052 C 
HETATM    3  C   UNK N   1      22.199  13.012  10.505  0.00  0.00     0.100 C 
HETATM    4  C   UNK N   1      24.524  12.313  10.869  0.00  0.00     0.049 C 
HETATM    5  C   UNK N   1      21.123  13.462   9.638  0.00  0.00     0.088 C 
ENDROOT
BRANCH   2   6
HETATM    6  C   UNK N   1      23.558  12.870   8.527  0.00  0.00     0.007 C 
HETATM    7  C   UNK N   1      23.808  11.932   7.643  0.00  0.00     0.001 C 
BRANCH   7   8
HETATM    8  C   UNK N   1      24.060  10.509   7.884  0.00  0.00     0.007 C 
HETATM    9  C   UNK N   1      23.565   9.651   6.993  0.00  0.00    -0.056 C 
HETATM   10  C   UNK N   1      23.745   8.179   7.162  0.00  0.00     0.049 C 
BRANCH   9  11
HETATM   11  C   UNK N   1      22.772  10.145   5.861  0.00  0.00    -0.059 C 
HETATM   12  C   UNK N   1      21.481  10.470   6.100  0.00  0.00    -0.013 C 
HETATM   13  C   UNK N   1      23.389  10.151   4.489  0.00  0.00     0.048 C 
BRANCH  12  14
HETATM   14  C   UNK N   1      20.453  10.674   5.031  0.00  0.00     0.034 C 
HETATM   15  C   UNK N   1      19.488   9.514   4.904  0.00  0.00     0.017 C 
BRANCH  14  16
HETATM   16  C   UNK N   1      19.766  12.012   5.314  0.00  0.00     0.131 C 
BRANCH  16  17
HETATM   17  O   UNK N   1      20.531  12.743   6.232  0.00  0.00    -0.394 OA
HETATM   18  H   UNK N   1      21.387  13.193   6.309  0.00  0.00     0.210 HD
ENDBRANCH  16  17
BRANCH  16  19
HETATM   19  C   UNK N   1      19.603  12.774   3.989  0.00  0.00     0.040 C 
HETATM   20  C   UNK N   1      19.182  14.190   4.353  0.00  0.00     0.015 C 
BRANCH  19  21
HETATM   21  C   UNK N   1      20.813  12.910   3.048  0.00  0.00     0.126 C 
BRANCH  21  22
HETATM   22  O   UNK N   1      21.028  11.751   2.303  0.00  0.00    -0.395 OA
HETATM   23  H   UNK N   1      21.057  11.445   1.383  0.00  0.00     0.210 HD
ENDBRANCH  21  22
BRANCH  21  24
HETATM   24  C   UNK N   1      22.109  13.534   3.565  0.00  0.00     0.067 C 
BRANCH  24  25
HETATM   25  C   UNK N   1      22.860  14.225   2.393  0.00  0.00     0.154 C 
BRANCH  25  26
HETATM   26  O   UNK N   1      22.333  13.978   1.096  0.00  0.00    -0.388 OA
HETATM   27  C   UNK N   1      23.337  13.443   0.263  0.00  0.00     0.202 C 
ENDBRANCH  25  26
BRANCH  25  28
HETATM   28  C   UNK N   1      23.305  15.669   2.691  0.00  0.00     0.184 C 
HETATM   29  O   UNK N   1      24.457  15.496   3.395  0.00  0.00    -0.344 OA
HETATM   30  C   UNK N   1      24.506  16.388   4.456  0.00  0.00     0.176 C 
HETATM   31  O   UNK N   1      24.988  15.672   5.578  0.00  0.00    -0.348 OA
HETATM   32  C   UNK N   1      23.082  16.852   4.775  0.00  0.00     0.038 C 
HETATM   33  C   UNK N   1      25.432  17.524   3.929  0.00  0.00     0.101 C 
HETATM   34  C   UNK N   1      26.343  15.388   5.430  0.00  0.00     0.134 C 
HETATM   35  C   UNK N   1      27.099  16.693   5.687  0.00  0.00     0.040 C 
HETATM   36  C   UNK N   1      26.554  17.895   4.878  0.00  0.00     0.129 C 
HETATM   37  C   UNK N   1      27.119  16.957   7.185  0.00  0.00     0.015 C 
HETATM   38  C   UNK N   1      22.453  16.714   3.418  0.00  0.00     0.178 C 
HETATM   39  C   UNK N   1      23.080  18.278   5.324  0.00  0.00     0.023 C 
HETATM   40  C   UNK N   1      22.376  15.936   5.772  0.00  0.00     0.023 C 
BRANCH  34  41
HETATM   41  C   UNK N   1      26.672  14.476   4.201  0.00  0.00     0.059 C 
BRANCH  41  42
HETATM   42  C   UNK N   1      28.097  13.926   4.204  0.00  0.00    -0.022 C 
BRANCH  42  43
HETATM   43  C   UNK N   1      29.028  14.505   3.458  0.00  0.00     0.027 C 
BRANCH  43  44
HETATM   44  C   UNK N   1      30.001  15.266   4.195  0.00  0.00     0.056 A 
HETATM   45  N   UNK N   1      30.286  14.951   5.455  0.00  0.00    -0.338 N 
HETATM   46  C   UNK N   1      30.831  16.063   5.955  0.00  0.00     0.127 A 
ATOM     47  HN  UNK N   1      30.124  14.064   5.931  1.00  0.00     0.168 HD
HETATM   48  O   UNK N   1      30.859  17.030   5.068  0.00  0.00    -0.307 OA
HETATM   49  C   UNK N   1      30.330  16.581   3.964  0.00  0.00     0.173 A 
BRANCH  46  50
HETATM   50  C   UNK N   1      31.851  15.958   7.007  0.00  0.00     0.058 C 
HETATM   51  C   UNK N   1      32.538  14.605   6.903  0.00  0.00     0.018 C 
BRANCH  50  52
HETATM   52  C   UNK N   1      32.907  17.069   6.722  0.00  0.00     0.032 C 
BRANCH  52  53
HETATM   53  C   UNK N   1      33.384  17.931   7.937  0.00  0.00     0.123 C 
BRANCH  53  54
HETATM   54  N   UNK N   1      33.268  17.115   9.111  0.00  0.00    -0.359 N 
HETATM   55  C   UNK N   1      34.353  16.803   9.812  0.00  0.00     0.249 C 
HETATM   56  O   UNK N   1      35.313  17.560   9.807  0.00  0.00    -0.271 OA
HETATM   57  H   UNK N   1      32.386  16.785   9.396  0.00  0.00     0.162 HD
BRANCH  55  58
HETATM   58  C   UNK N   1      34.495  15.378  10.258  0.00  0.00     0.240 C 
BRANCH  58  59
HETATM   59  O   UNK N   1      33.544  14.987  11.203  0.00  0.00    -0.383 OA
HETATM   60  H   UNK N   1      33.685  15.146  12.150  0.00  0.00     0.210 HD
ENDBRANCH  58  59
BRANCH  58  61
HETATM   61  C   UNK N   1      35.927  15.013  10.632  0.00  0.00     0.191 C 
BRANCH  61  62
HETATM   62  O   UNK N   1      36.306  15.807  11.725  0.00  0.00    -0.390 OA
HETATM   63  H   UNK N   1      36.245  16.773  11.669  0.00  0.00     0.210 HD
ENDBRANCH  61  62
BRANCH  61  64
HETATM   64  C   UNK N   1      36.069  13.529  10.987  0.00  0.00     0.277 C 
BRANCH  64  65
HETATM   65  N   UNK N   1      37.040  12.889  10.075  0.00  0.00     0.089 N 
HETATM   66  C   UNK N   1      37.882  13.814   9.330  0.00  0.00     0.310 C 
HETATM   67  C   UNK N   1      37.937  12.070  10.877  0.00  0.00     0.310 C 
ENDBRANCH  64  65
BRANCH  64  68
HETATM   68  C   UNK N   1      36.396  13.410  12.477  0.00  0.00     0.205 C 
BRANCH  68  69
HETATM   69  O   UNK N   1      35.231  13.541  13.231  0.00  0.00    -0.394 OA
HETATM   70  C   UNK N   1      35.685  13.775  14.527  0.00  0.00     0.201 C 
ENDBRANCH  68  69
ENDBRANCH  64  68
ENDBRANCH  61  64
ENDBRANCH  58  61
ENDBRANCH  55  58
ENDBRANCH  53  54
ENDBRANCH  52  53
ENDBRANCH  50  52
ENDBRANCH  46  50
ENDBRANCH  43  44
ENDBRANCH  42  43
ENDBRANCH  41  42
ENDBRANCH  34  41
BRANCH  36  71
HETATM   71  O   UNK N   1      26.132  18.948   5.688  0.00  0.00    -0.395 OA
HETATM   72  H   UNK N   1      25.263  19.361   5.556  0.00  0.00     0.210 HD
ENDBRANCH  36  71
BRANCH  38  73
HETATM   73  O   UNK N   1      21.054  16.556   3.330  0.00  0.00    -0.288 OA
BRANCH  73  74
HETATM   74  P   UNK N   1      20.415  17.898   2.399  0.00  0.00     0.391 P 
HETATM   75  O   UNK N   1      21.243  19.188   2.663  0.00  0.00    -0.632 OA
BRANCH  74  76
HETATM   76  O   UNK N   1      20.342  17.655   0.682  0.00  0.00    -0.307 OA
HETATM   77  H   UNK N   1      21.102  17.880   0.124  0.00  0.00     0.222 HD
ENDBRANCH  74  76
BRANCH  74  78
HETATM   78  O   UNK N   1      18.807  18.209   2.950  0.00  0.00    -0.307 OA
HETATM   79  H   UNK N   1      17.981  17.785   3.227  0.00  0.00     0.222 HD
ENDBRANCH  74  78
ENDBRANCH  73  74
ENDBRANCH  38  73
ENDBRANCH  25  28
ENDBRANCH  24  25
ENDBRANCH  21  24
ENDBRANCH  19  21
ENDBRANCH  16  19
ENDBRANCH  14  16
ENDBRANCH  12  14
ENDBRANCH   9  11
ENDBRANCH   7   8
ENDBRANCH   2   6
TORSDOF 34
ENDMDL
MODEL 6
REMARK VINA RESULT:      -7.6      5.513     10.401
REMARK WARNING: 32 MAX_TORS EXCEEDED!!!
REMARK  34 active torsions:
REMARK  status: ('A' for Active; 'I' for Inactive)
REMARK    1  A    between atoms: P_1  and  O_4 
REMARK    2  A    between atoms: P_1  and  O_8 
REMARK    3  A    between atoms: P_1  and  O_9 
REMARK    4  A    between atoms: C_24  and  O_4 
REMARK    5  A    between atoms: C_28  and  O_5 
REMARK    6  A    between atoms: C_29  and  O_6 
REMARK    7  A    between atoms: C_36  and  O_10 
REMARK    8  A    between atoms: C_41  and  O_11 
REMARK    9  A    between atoms: C_58  and  O_13 
REMARK   10  A    between atoms: C_60  and  O_14 
REMARK   11  A    between atoms: O_16  and  C_63 
REMARK   12  A    between atoms: N_19  and  C_55 
REMARK       I    between atoms: N_19  and  C_59 
REMARK   13  A    between atoms: N_20  and  C_61 
REMARK   14  A    between atoms: C_25  and  C_28 
REMARK   15  A    between atoms: C_27  and  C_34 
REMARK   16  A    between atoms: C_28  and  C_33 
REMARK   17  A    between atoms: C_33  and  C_36 
REMARK   18  A    between atoms: C_34  and  C_37 
REMARK   19  A    between atoms: C_36  and  C_38 
REMARK   20  A    between atoms: C_37  and  C_40 
REMARK   21  A    between atoms: C_38  and  C_41 
REMARK   22  A    between atoms: C_40  and  C_42 
REMARK   23  A    between atoms: C_41  and  C_44 
REMARK   24  A    between atoms: C_44  and  C_47 
REMARK   25  A    between atoms: C_46  and  C_49 
REMARK   26  A    between atoms: C_49  and  C_52 
REMARK   27  A    between atoms: C_50  and  C_51 
REMARK   28  A    between atoms: C_52  and  C_55 
REMARK   29  A    between atoms: C_56  and  C_62 
REMARK   30  A    between atoms: C_58  and  C_59 
REMARK   31  A    between atoms: C_58  and  C_60 
REMARK   32  A    between atoms: C_60  and  C_61 
REMARK   33  A    between atoms: C_61  and  C_63 
REMARK   34  A    between atoms: C_64  and  C_67 
ROOT
HETATM    1  N   UNK N   1      24.007   8.861   1.434  0.00  0.00    -0.192 NA
HETATM    2  C   UNK N   1      21.870  11.475   0.741  0.00  0.00    -0.052 C 
HETATM    3  C   UNK N   1      21.871  10.359   1.478  0.00  0.00     0.100 C 
HETATM    4  C   UNK N   1      20.659  12.351   0.707  0.00  0.00     0.049 C 
HETATM    5  C   UNK N   1      23.042   9.499   1.479  0.00  0.00     0.088 C 
ENDROOT
BRANCH   2   6
HETATM    6  C   UNK N   1      23.096  11.807   0.001  0.00  0.00     0.007 C 
HETATM    7  C   UNK N   1      23.787  12.923   0.012  0.00  0.00     0.001 C 
BRANCH   7   8
HETATM    8  C   UNK N   1      23.482  14.166   0.725  0.00  0.00     0.007 C 
HETATM    9  C   UNK N   1      24.087  14.350   1.899  0.00  0.00    -0.056 C 
HETATM   10  C   UNK N   1      23.822  15.572   2.715  0.00  0.00     0.049 C 
BRANCH   9  11
HETATM   11  C   UNK N   1      24.974  13.314   2.437  0.00  0.00    -0.059 C 
HETATM   12  C   UNK N   1      26.226  13.240   1.927  0.00  0.00    -0.013 C 
HETATM   13  C   UNK N   1      24.421  12.324   3.424  0.00  0.00     0.048 C 
BRANCH  12  14
HETATM   14  C   UNK N   1      27.142  12.070   2.112  0.00  0.00     0.034 C 
HETATM   15  C   UNK N   1      26.879  10.948   1.131  0.00  0.00     0.017 C 
BRANCH  14  16
HETATM   16  C   UNK N   1      28.575  12.605   2.058  0.00  0.00     0.131 C 
BRANCH  16  17
HETATM   17  O   UNK N   1      28.626  13.714   1.203  0.00  0.00    -0.394 OA
HETATM   18  H   UNK N   1      28.132  14.520   0.986  0.00  0.00     0.210 HD
ENDBRANCH  16  17
BRANCH  16  19
HETATM   19  C   UNK N   1      29.018  12.976   3.482  0.00  0.00     0.040 C 
HETATM   20  C   UNK N   1      28.686  11.781   4.364  0.00  0.00     0.015 C 
BRANCH  19  21
HETATM   21  C   UNK N   1      30.498  13.309   3.743  0.00  0.00     0.126 C 
BRANCH  21  22
HETATM   22  O   UNK N   1      31.305  12.997   2.650  0.00  0.00    -0.395 OA
HETATM   23  H   UNK N   1      31.341  13.111   1.687  0.00  0.00     0.210 HD
ENDBRANCH  21  22
BRANCH  21  24
HETATM   24  C   UNK N   1      31.136  12.931   5.080  0.00  0.00     0.067 C 
BRANCH  24  25
HETATM   25  C   UNK N   1      32.038  14.095   5.577  0.00  0.00     0.154 C 
BRANCH  25  26
HETATM   26  O   UNK N   1      32.619  14.898   4.558  0.00  0.00    -0.388 OA
HETATM   27  C   UNK N   1      33.979  14.563   4.399  0.00  0.00     0.202 C 
ENDBRANCH  25  26
BRANCH  25  28
HETATM   28  C   UNK N   1      31.489  14.839   6.809  0.00  0.00     0.184 C 
HETATM   29  O   UNK N   1      30.424  15.520   6.306  0.00  0.00    -0.344 OA
HETATM   30  C   UNK N   1      30.384  16.802   6.835  0.00  0.00     0.176 C 
HETATM   31  O   UNK N   1      30.068  17.680   5.771  0.00  0.00    -0.348 OA
HETATM   32  C   UNK N   1      31.782  17.167   7.343  0.00  0.00     0.038 C 
HETATM   33  C   UNK N   1      29.316  16.694   7.964  0.00  0.00     0.101 C 
HETATM   34  C   UNK N   1      28.738  17.528   5.391  0.00  0.00     0.134 C 
HETATM   35  C   UNK N   1      27.891  18.208   6.468  0.00  0.00     0.040 C 
HETATM   36  C   UNK N   1      28.251  17.771   7.909  0.00  0.00     0.129 C 
HETATM   37  C   UNK N   1      27.975  19.715   6.275  0.00  0.00     0.015 C 
HETATM   38  C   UNK N   1      32.302  15.799   7.683  0.00  0.00     0.178 C 
HETATM   39  C   UNK N   1      31.701  18.120   8.535  0.00  0.00     0.023 C 
HETATM   40  C   UNK N   1      32.653  17.801   6.260  0.00  0.00     0.023 C 
BRANCH  34  41
HETATM   41  C   UNK N   1      28.389  16.101   4.851  0.00  0.00     0.059 C 
BRANCH  41  42
HETATM   42  C   UNK N   1      26.902  15.894   4.567  0.00  0.00    -0.022 C 
BRANCH  42  43
HETATM   43  C   UNK N   1      26.009  16.156   5.512  0.00  0.00     0.027 C 
BRANCH  43  44
HETATM   44  C   UNK N   1      25.322  15.001   6.026  0.00  0.00     0.056 A 
HETATM   45  N   UNK N   1      24.157  15.137   6.653  0.00  0.00    -0.338 N 
HETATM   46  C   UNK N   1      24.037  14.014   7.365  0.00  0.00     0.127 A 
ATOM     47  HN  UNK N   1      23.506  15.920   6.602  1.00  0.00     0.168 HD
HETATM   48  O   UNK N   1      25.080  13.232   7.218  0.00  0.00    -0.307 OA
HETATM   49  C   UNK N   1      25.914  13.822   6.407  0.00  0.00     0.173 A 
BRANCH  46  50
HETATM   50  C   UNK N   1      22.699  13.466   7.630  0.00  0.00     0.058 C 
HETATM   51  C   UNK N   1      22.804  11.962   7.824  0.00  0.00     0.018 C 
BRANCH  50  52
HETATM   52  C   UNK N   1      22.209  14.102   8.967  0.00  0.00     0.032 C 
BRANCH  52  53
HETATM   53  C   UNK N   1      20.909  14.971   8.912  0.00  0.00     0.123 C 
BRANCH  53  54
HETATM   54  N   UNK N   1      21.124  15.997   7.934  0.00  0.00    -0.359 N 
HETATM   55  C   UNK N   1      20.168  16.287   7.057  0.00  0.00     0.249 C 
HETATM   56  O   UNK N   1      18.997  16.100   7.355  0.00  0.00    -0.271 OA
HETATM   57  H   UNK N   1      21.978  16.486   7.911  0.00  0.00     0.162 HD
BRANCH  55  58
HETATM   58  C   UNK N   1      20.582  16.464   5.626  0.00  0.00     0.240 C 
BRANCH  58  59
HETATM   59  O   UNK N   1      21.204  15.341   5.076  0.00  0.00    -0.383 OA
HETATM   60  H   UNK N   1      21.485  14.601   5.637  0.00  0.00     0.210 HD
ENDBRANCH  58  59
BRANCH  58  61
HETATM   61  C   UNK N   1      21.332  17.770   5.383  0.00  0.00     0.191 C 
BRANCH  61  62
HETATM   62  O   UNK N   1      22.581  17.677   6.015  0.00  0.00    -0.390 OA
HETATM   63  H   UNK N   1      22.661  17.227   6.869  0.00  0.00     0.210 HD
ENDBRANCH  61  62
BRANCH  61  64
HETATM   64  C   UNK N   1      21.518  18.056   3.889  0.00  0.00     0.277 C 
BRANCH  64  65
HETATM   65  N   UNK N   1      20.198  18.191   3.239  0.00  0.00     0.089 N 
HETATM   66  C   UNK N   1      19.850  19.546   2.834  0.00  0.00     0.310 C 
HETATM   67  C   UNK N   1      20.211  17.389   2.025  0.00  0.00     0.310 C 
ENDBRANCH  64  65
BRANCH  64  68
HETATM   68  C   UNK N   1      22.448  19.262   3.734  0.00  0.00     0.205 C 
BRANCH  68  69
HETATM   69  O   UNK N   1      23.776  18.854   3.844  0.00  0.00    -0.394 OA
HETATM   70  C   UNK N   1      24.513  20.000   3.548  0.00  0.00     0.201 C 
ENDBRANCH  68  69
ENDBRANCH  64  68
ENDBRANCH  61  64
ENDBRANCH  58  61
ENDBRANCH  55  58
ENDBRANCH  53  54
ENDBRANCH  52  53
ENDBRANCH  50  52
ENDBRANCH  46  50
ENDBRANCH  43  44
ENDBRANCH  42  43
ENDBRANCH  41  42
ENDBRANCH  34  41
BRANCH  36  71
HETATM   71  O   UNK N   1      28.644  18.837   8.717  0.00  0.00    -0.395 OA
HETATM   72  H   UNK N   1      28.000  19.497   9.021  0.00  0.00     0.210 HD
ENDBRANCH  36  71
BRANCH  38  73
HETATM   73  O   UNK N   1      33.697  15.592   7.717  0.00  0.00    -0.288 OA
BRANCH  73  74
HETATM   74  P   UNK N   1      34.203  15.593   9.396  0.00  0.00     0.391 P 
HETATM   75  O   UNK N   1      35.420  14.646   9.600  0.00  0.00    -0.632 OA
BRANCH  74  76
HETATM   76  O   UNK N   1      34.618  17.143  10.056  0.00  0.00    -0.307 OA
HETATM   77  H   UNK N   1      35.390  17.237  10.636  0.00  0.00     0.222 HD
ENDBRANCH  74  76
BRANCH  74  78
HETATM   78  O   UNK N   1      32.904  14.956  10.342  0.00  0.00    -0.307 OA
HETATM   79  H   UNK N   1      32.413  15.068  11.170  0.00  0.00     0.222 HD
ENDBRANCH  74  78
ENDBRANCH  73  74
ENDBRANCH  38  73
ENDBRANCH  25  28
ENDBRANCH  24  25
ENDBRANCH  21  24
ENDBRANCH  19  21
ENDBRANCH  16  19
ENDBRANCH  14  16
ENDBRANCH  12  14
ENDBRANCH   9  11
ENDBRANCH   7   8
ENDBRANCH   2   6
TORSDOF 34
ENDMDL
MODEL 7
REMARK VINA RESULT:      -7.6      5.927     11.056
REMARK WARNING: 32 MAX_TORS EXCEEDED!!!
REMARK  34 active torsions:
REMARK  status: ('A' for Active; 'I' for Inactive)
REMARK    1  A    between atoms: P_1  and  O_4 
REMARK    2  A    between atoms: P_1  and  O_8 
REMARK    3  A    between atoms: P_1  and  O_9 
REMARK    4  A    between atoms: C_24  and  O_4 
REMARK    5  A    between atoms: C_28  and  O_5 
REMARK    6  A    between atoms: C_29  and  O_6 
REMARK    7  A    between atoms: C_36  and  O_10 
REMARK    8  A    between atoms: C_41  and  O_11 
REMARK    9  A    between atoms: C_58  and  O_13 
REMARK   10  A    between atoms: C_60  and  O_14 
REMARK   11  A    between atoms: O_16  and  C_63 
REMARK   12  A    between atoms: N_19  and  C_55 
REMARK       I    between atoms: N_19  and  C_59 
REMARK   13  A    between atoms: N_20  and  C_61 
REMARK   14  A    between atoms: C_25  and  C_28 
REMARK   15  A    between atoms: C_27  and  C_34 
REMARK   16  A    between atoms: C_28  and  C_33 
REMARK   17  A    between atoms: C_33  and  C_36 
REMARK   18  A    between atoms: C_34  and  C_37 
REMARK   19  A    between atoms: C_36  and  C_38 
REMARK   20  A    between atoms: C_37  and  C_40 
REMARK   21  A    between atoms: C_38  and  C_41 
REMARK   22  A    between atoms: C_40  and  C_42 
REMARK   23  A    between atoms: C_41  and  C_44 
REMARK   24  A    between atoms: C_44  and  C_47 
REMARK   25  A    between atoms: C_46  and  C_49 
REMARK   26  A    between atoms: C_49  and  C_52 
REMARK   27  A    between atoms: C_50  and  C_51 
REMARK   28  A    between atoms: C_52  and  C_55 
REMARK   29  A    between atoms: C_56  and  C_62 
REMARK   30  A    between atoms: C_58  and  C_59 
REMARK   31  A    between atoms: C_58  and  C_60 
REMARK   32  A    between atoms: C_60  and  C_61 
REMARK   33  A    between atoms: C_61  and  C_63 
REMARK   34  A    between atoms: C_64  and  C_67 
ROOT
HETATM    1  N   UNK N   1      23.910   9.469  -0.225  0.00  0.00    -0.192 NA
HETATM    2  C   UNK N   1      20.697  10.144   0.824  0.00  0.00    -0.052 C 
HETATM    3  C   UNK N   1      21.304   9.589  -0.231  0.00  0.00     0.100 C 
HETATM    4  C   UNK N   1      19.207  10.266   0.854  0.00  0.00     0.049 C 
HETATM    5  C   UNK N   1      22.753   9.504  -0.265  0.00  0.00     0.088 C 
ENDROOT
BRANCH   2   6
HETATM    6  C   UNK N   1      21.541  10.596   1.938  0.00  0.00     0.007 C 
HETATM    7  C   UNK N   1      21.639  11.795   2.463  0.00  0.00     0.001 C 
BRANCH   7   8
HETATM    8  C   UNK N   1      20.970  13.025   2.033  0.00  0.00     0.007 C 
HETATM    9  C   UNK N   1      21.713  13.914   1.372  0.00  0.00    -0.056 C 
HETATM   10  C   UNK N   1      21.132  15.210   0.913  0.00  0.00     0.049 C 
BRANCH   9  11
HETATM   11  C   UNK N   1      23.139  13.654   1.146  0.00  0.00    -0.059 C 
HETATM   12  C   UNK N   1      24.010  14.110   2.075  0.00  0.00    -0.013 C 
HETATM   13  C   UNK N   1      23.565  13.012  -0.146  0.00  0.00     0.048 C 
BRANCH  12  14
HETATM   14  C   UNK N   1      25.487  14.225   1.860  0.00  0.00     0.034 C 
HETATM   15  C   UNK N   1      25.899  15.550   1.254  0.00  0.00     0.017 C 
BRANCH  14  16
HETATM   16  C   UNK N   1      26.164  13.929   3.200  0.00  0.00     0.131 C 
BRANCH  16  17
HETATM   17  O   UNK N   1      25.250  13.297   4.053  0.00  0.00    -0.394 OA
HETATM   18  H   UNK N   1      25.046  12.424   4.423  0.00  0.00     0.210 HD
ENDBRANCH  16  17
BRANCH  16  19
HETATM   19  C   UNK N   1      27.398  13.047   2.947  0.00  0.00     0.040 C 
HETATM   20  C   UNK N   1      26.972  11.983   1.946  0.00  0.00     0.015 C 
BRANCH  19  21
HETATM   21  C   UNK N   1      28.675  13.691   2.380  0.00  0.00     0.126 C 
BRANCH  21  22
HETATM   22  O   UNK N   1      29.559  12.739   1.874  0.00  0.00    -0.395 OA
HETATM   23  H   UNK N   1      30.184  12.060   2.174  0.00  0.00     0.210 HD
ENDBRANCH  21  22
BRANCH  21  24
HETATM   24  C   UNK N   1      29.379  14.799   3.164  0.00  0.00     0.067 C 
BRANCH  24  25
HETATM   25  C   UNK N   1      30.274  14.169   4.267  0.00  0.00     0.154 C 
BRANCH  25  26
HETATM   26  O   UNK N   1      31.607  13.865   3.877  0.00  0.00    -0.388 OA
HETATM   27  C   UNK N   1      32.076  14.836   2.968  0.00  0.00     0.202 C 
ENDBRANCH  25  26
BRANCH  25  28
HETATM   28  C   UNK N   1      30.093  14.795   5.663  0.00  0.00     0.184 C 
HETATM   29  O   UNK N   1      29.227  15.819   5.429  0.00  0.00    -0.344 OA
HETATM   30  C   UNK N   1      29.616  16.945   6.140  0.00  0.00     0.176 C 
HETATM   31  O   UNK N   1      29.464  18.055   5.275  0.00  0.00    -0.348 OA
HETATM   32  C   UNK N   1      31.103  16.820   6.484  0.00  0.00     0.038 C 
HETATM   33  C   UNK N   1      28.681  16.925   7.386  0.00  0.00     0.101 C 
HETATM   34  C   UNK N   1      28.116  18.340   5.078  0.00  0.00     0.134 C 
HETATM   35  C   UNK N   1      27.616  19.014   6.357  0.00  0.00     0.040 C 
HETATM   36  C   UNK N   1      27.976  18.241   7.648  0.00  0.00     0.129 C 
HETATM   37  C   UNK N   1      28.116  20.451   6.376  0.00  0.00     0.015 C 
HETATM   38  C   UNK N   1      31.233  15.324   6.538  0.00  0.00     0.178 C 
HETATM   39  C   UNK N   1      31.422  17.525   7.801  0.00  0.00     0.023 C 
HETATM   40  C   UNK N   1      32.007  17.382   5.389  0.00  0.00     0.023 C 
BRANCH  34  41
HETATM   41  C   UNK N   1      27.314  17.183   4.391  0.00  0.00     0.059 C 
BRANCH  41  42
HETATM   42  C   UNK N   1      25.899  17.577   3.972  0.00  0.00    -0.022 C 
BRANCH  42  43
HETATM   43  C   UNK N   1      24.856  17.077   4.622  0.00  0.00     0.027 C 
BRANCH  43  44
HETATM   44  C   UNK N   1      23.615  17.766   4.386  0.00  0.00     0.056 A 
HETATM   45  N   UNK N   1      22.499  17.079   4.160  0.00  0.00    -0.338 N 
HETATM   46  C   UNK N   1      21.694  17.955   3.555  0.00  0.00     0.127 A 
ATOM     47  HN  UNK N   1      22.304  16.106   4.394  1.00  0.00     0.168 HD
HETATM   48  O   UNK N   1      22.281  19.116   3.383  0.00  0.00    -0.307 OA
HETATM   49  C   UNK N   1      23.489  19.032   3.868  0.00  0.00     0.173 A 
BRANCH  46  50
HETATM   50  C   UNK N   1      20.240  17.853   3.746  0.00  0.00     0.058 C 
HETATM   51  C   UNK N   1      19.536  18.335   2.488  0.00  0.00     0.018 C 
BRANCH  50  52
HETATM   52  C   UNK N   1      19.918  16.340   3.941  0.00  0.00     0.032 C 
BRANCH  52  53
HETATM   53  C   UNK N   1      18.911  15.964   5.078  0.00  0.00     0.123 C 
BRANCH  53  54
HETATM   54  N   UNK N   1      19.651  15.268   6.090  0.00  0.00    -0.359 N 
HETATM   55  C   UNK N   1      19.707  15.756   7.325  0.00  0.00     0.249 C 
HETATM   56  O   UNK N   1      18.787  16.444   7.745  0.00  0.00    -0.271 OA
HETATM   57  H   UNK N   1      20.118  14.430   5.871  0.00  0.00     0.162 HD
BRANCH  55  58
HETATM   58  C   UNK N   1      21.047  15.762   8.000  0.00  0.00     0.240 C 
BRANCH  58  59
HETATM   59  O   UNK N   1      22.113  16.016   7.134  0.00  0.00    -0.383 OA
HETATM   60  H   UNK N   1      22.922  16.446   7.452  0.00  0.00     0.210 HD
ENDBRANCH  58  59
BRANCH  58  61
HETATM   61  C   UNK N   1      21.259  14.555   8.908  0.00  0.00     0.191 C 
BRANCH  61  62
HETATM   62  O   UNK N   1      20.037  13.873   9.014  0.00  0.00    -0.390 OA
HETATM   63  H   UNK N   1      19.996  13.021   9.475  0.00  0.00     0.210 HD
ENDBRANCH  61  62
BRANCH  61  64
HETATM   64  C   UNK N   1      22.341  13.614   8.369  0.00  0.00     0.277 C 
BRANCH  64  65
HETATM   65  N   UNK N   1      23.360  13.376   9.413  0.00  0.00     0.089 N 
HETATM   66  C   UNK N   1      22.897  12.600  10.555  0.00  0.00     0.310 C 
HETATM   67  C   UNK N   1      24.450  12.620   8.814  0.00  0.00     0.310 C 
ENDBRANCH  64  65
BRANCH  64  68
HETATM   68  C   UNK N   1      21.666  12.355   7.818  0.00  0.00     0.205 C 
BRANCH  68  69
HETATM   69  O   UNK N   1      21.086  12.631   6.581  0.00  0.00    -0.394 OA
HETATM   70  C   UNK N   1      20.784  11.376   6.056  0.00  0.00     0.201 C 
ENDBRANCH  68  69
ENDBRANCH  64  68
ENDBRANCH  61  64
ENDBRANCH  58  61
ENDBRANCH  55  58
ENDBRANCH  53  54
ENDBRANCH  52  53
ENDBRANCH  50  52
ENDBRANCH  46  50
ENDBRANCH  43  44
ENDBRANCH  42  43
ENDBRANCH  41  42
ENDBRANCH  34  41
BRANCH  36  71
HETATM   71  O   UNK N   1      28.740  18.994   8.537  0.00  0.00    -0.395 OA
HETATM   72  H   UNK N   1      29.518  18.612   8.976  0.00  0.00     0.210 HD
ENDBRANCH  36  71
BRANCH  38  73
HETATM   73  O   UNK N   1      32.503  14.745   6.335  0.00  0.00    -0.288 OA
BRANCH  73  74
HETATM   74  P   UNK N   1      32.988  13.966   7.830  0.00  0.00     0.391 P 
HETATM   75  O   UNK N   1      34.486  14.256   8.135  0.00  0.00    -0.632 OA
BRANCH  74  76
HETATM   76  O   UNK N   1      32.066  14.396   9.235  0.00  0.00    -0.307 OA
HETATM   77  H   UNK N   1      32.307  14.041  10.105  0.00  0.00     0.222 HD
ENDBRANCH  74  76
BRANCH  74  78
HETATM   78  O   UNK N   1      32.838  12.259   7.611  0.00  0.00    -0.307 OA
HETATM   79  H   UNK N   1      33.291  11.412   7.744  0.00  0.00     0.222 HD
ENDBRANCH  74  78
ENDBRANCH  73  74
ENDBRANCH  38  73
ENDBRANCH  25  28
ENDBRANCH  24  25
ENDBRANCH  21  24
ENDBRANCH  19  21
ENDBRANCH  16  19
ENDBRANCH  14  16
ENDBRANCH  12  14
ENDBRANCH   9  11
ENDBRANCH   7   8
ENDBRANCH   2   6
TORSDOF 34
ENDMDL
MODEL 8
REMARK VINA RESULT:      -7.5      2.226      3.900
REMARK WARNING: 32 MAX_TORS EXCEEDED!!!
REMARK  34 active torsions:
REMARK  status: ('A' for Active; 'I' for Inactive)
REMARK    1  A    between atoms: P_1  and  O_4 
REMARK    2  A    between atoms: P_1  and  O_8 
REMARK    3  A    between atoms: P_1  and  O_9 
REMARK    4  A    between atoms: C_24  and  O_4 
REMARK    5  A    between atoms: C_28  and  O_5 
REMARK    6  A    between atoms: C_29  and  O_6 
REMARK    7  A    between atoms: C_36  and  O_10 
REMARK    8  A    between atoms: C_41  and  O_11 
REMARK    9  A    between atoms: C_58  and  O_13 
REMARK   10  A    between atoms: C_60  and  O_14 
REMARK   11  A    between atoms: O_16  and  C_63 
REMARK   12  A    between atoms: N_19  and  C_55 
REMARK       I    between atoms: N_19  and  C_59 
REMARK   13  A    between atoms: N_20  and  C_61 
REMARK   14  A    between atoms: C_25  and  C_28 
REMARK   15  A    between atoms: C_27  and  C_34 
REMARK   16  A    between atoms: C_28  and  C_33 
REMARK   17  A    between atoms: C_33  and  C_36 
REMARK   18  A    between atoms: C_34  and  C_37 
REMARK   19  A    between atoms: C_36  and  C_38 
REMARK   20  A    between atoms: C_37  and  C_40 
REMARK   21  A    between atoms: C_38  and  C_41 
REMARK   22  A    between atoms: C_40  and  C_42 
REMARK   23  A    between atoms: C_41  and  C_44 
REMARK   24  A    between atoms: C_44  and  C_47 
REMARK   25  A    between atoms: C_46  and  C_49 
REMARK   26  A    between atoms: C_49  and  C_52 
REMARK   27  A    between atoms: C_50  and  C_51 
REMARK   28  A    between atoms: C_52  and  C_55 
REMARK   29  A    between atoms: C_56  and  C_62 
REMARK   30  A    between atoms: C_58  and  C_59 
REMARK   31  A    between atoms: C_58  and  C_60 
REMARK   32  A    between atoms: C_60  and  C_61 
REMARK   33  A    between atoms: C_61  and  C_63 
REMARK   34  A    between atoms: C_64  and  C_67 
ROOT
HETATM    1  N   UNK N   1      36.718   8.635  15.497  0.00  0.00    -0.192 NA
HETATM    2  C   UNK N   1      35.857  10.631  18.171  0.00  0.00    -0.052 C 
HETATM    3  C   UNK N   1      36.764   9.692  17.882  0.00  0.00     0.100 C 
HETATM    4  C   UNK N   1      35.821  11.245  19.534  0.00  0.00     0.049 C 
HETATM    5  C   UNK N   1      36.770   9.080  16.565  0.00  0.00     0.088 C 
ENDROOT
BRANCH   2   6
HETATM    6  C   UNK N   1      34.933  11.041  17.105  0.00  0.00     0.007 C 
HETATM    7  C   UNK N   1      34.830  12.206  16.508  0.00  0.00     0.001 C 
BRANCH   7   8
HETATM    8  C   UNK N   1      35.575  13.435  16.794  0.00  0.00     0.007 C 
HETATM    9  C   UNK N   1      36.378  13.889  15.832  0.00  0.00    -0.056 C 
HETATM   10  C   UNK N   1      37.200  15.118  16.035  0.00  0.00     0.049 C 
BRANCH   9  11
HETATM   11  C   UNK N   1      36.516  13.140  14.578  0.00  0.00    -0.059 C 
HETATM   12  C   UNK N   1      35.617  13.395  13.599  0.00  0.00    -0.013 C 
HETATM   13  C   UNK N   1      37.557  12.059  14.487  0.00  0.00     0.048 C 
BRANCH  12  14
HETATM   14  C   UNK N   1      35.403  12.519  12.404  0.00  0.00     0.034 C 
HETATM   15  C   UNK N   1      34.538  11.312  12.699  0.00  0.00     0.017 C 
BRANCH  14  16
HETATM   16  C   UNK N   1      34.853  13.406  11.285  0.00  0.00     0.131 C 
BRANCH  16  17
HETATM   17  O   UNK N   1      34.690  14.713  11.765  0.00  0.00    -0.394 OA
HETATM   18  H   UNK N   1      34.028  15.282  12.186  0.00  0.00     0.210 HD
ENDBRANCH  16  17
BRANCH  16  19
HETATM   19  C   UNK N   1      35.825  13.363  10.096  0.00  0.00     0.040 C 
HETATM   20  C   UNK N   1      37.085  12.669  10.591  0.00  0.00     0.015 C 
BRANCH  19  21
HETATM   21  C   UNK N   1      35.404  12.631   8.809  0.00  0.00     0.126 C 
BRANCH  21  22
HETATM   22  O   UNK N   1      36.011  13.172   7.677  0.00  0.00    -0.395 OA
HETATM   23  H   UNK N   1      36.039  13.992   7.160  0.00  0.00     0.210 HD
ENDBRANCH  21  22
BRANCH  21  24
HETATM   24  C   UNK N   1      33.933  12.279   8.584  0.00  0.00     0.067 C 
BRANCH  24  25
HETATM   25  C   UNK N   1      33.480  12.798   7.192  0.00  0.00     0.154 C 
BRANCH  25  26
HETATM   26  O   UNK N   1      33.070  11.798   6.268  0.00  0.00    -0.388 OA
HETATM   27  C   UNK N   1      33.137  10.526   6.874  0.00  0.00     0.202 C 
ENDBRANCH  25  26
BRANCH  25  28
HETATM   28  C   UNK N   1      32.626  14.079   7.241  0.00  0.00     0.184 C 
HETATM   29  O   UNK N   1      31.742  13.897   6.221  0.00  0.00    -0.344 OA
HETATM   30  C   UNK N   1      31.574  15.081   5.519  0.00  0.00     0.176 C 
HETATM   31  O   UNK N   1      31.566  14.750   4.143  0.00  0.00    -0.348 OA
HETATM   32  C   UNK N   1      32.785  15.982   5.776  0.00  0.00     0.038 C 
HETATM   33  C   UNK N   1      30.239  15.650   6.085  0.00  0.00     0.101 C 
HETATM   34  C   UNK N   1      30.387  14.092   3.806  0.00  0.00     0.134 C 
HETATM   35  C   UNK N   1      29.286  15.154   3.761  0.00  0.00     0.040 C 
HETATM   36  C   UNK N   1      29.239  16.053   5.020  0.00  0.00     0.129 C 
HETATM   37  C   UNK N   1      29.435  15.955   2.476  0.00  0.00     0.015 C 
HETATM   38  C   UNK N   1      33.180  15.503   7.144  0.00  0.00     0.178 C 
HETATM   39  C   UNK N   1      32.394  17.457   5.718  0.00  0.00     0.023 C 
HETATM   40  C   UNK N   1      33.923  15.731   4.788  0.00  0.00     0.023 C 
BRANCH  34  41
HETATM   41  C   UNK N   1      30.183  12.729   4.548  0.00  0.00     0.059 C 
BRANCH  41  42
HETATM   42  C   UNK N   1      28.859  12.041   4.223  0.00  0.00    -0.022 C 
BRANCH  42  43
HETATM   43  C   UNK N   1      28.641  11.572   3.002  0.00  0.00     0.027 C 
BRANCH  43  44
HETATM   44  C   UNK N   1      27.491  12.128   2.341  0.00  0.00     0.056 A 
HETATM   45  N   UNK N   1      26.815  13.129   2.898  0.00  0.00    -0.338 N 
HETATM   46  C   UNK N   1      25.622  13.089   2.301  0.00  0.00     0.127 A 
ATOM     47  HN  UNK N   1      27.135  13.777   3.617  1.00  0.00     0.168 HD
HETATM   48  O   UNK N   1      25.542  12.102   1.440  0.00  0.00    -0.307 OA
HETATM   49  C   UNK N   1      26.680  11.465   1.452  0.00  0.00     0.173 A 
BRANCH  46  50
HETATM   50  C   UNK N   1      24.868  14.336   2.108  0.00  0.00     0.058 C 
HETATM   51  C   UNK N   1      25.843  15.477   1.865  0.00  0.00     0.018 C 
BRANCH  50  52
HETATM   52  C   UNK N   1      24.004  14.146   0.824  0.00  0.00     0.032 C 
BRANCH  52  53
HETATM   53  C   UNK N   1      22.482  13.845   1.025  0.00  0.00     0.123 C 
BRANCH  53  54
HETATM   54  N   UNK N   1      21.852  15.072   1.416  0.00  0.00    -0.359 N 
HETATM   55  C   UNK N   1      21.237  15.157   2.591  0.00  0.00     0.249 C 
HETATM   56  O   UNK N   1      21.609  14.453   3.520  0.00  0.00    -0.271 OA
HETATM   57  H   UNK N   1      21.874  15.851   0.815  0.00  0.00     0.162 HD
BRANCH  55  58
HETATM   58  C   UNK N   1      19.892  15.820   2.615  0.00  0.00     0.240 C 
BRANCH  58  59
HETATM   59  O   UNK N   1      19.425  16.193   1.352  0.00  0.00    -0.383 OA
HETATM   60  H   UNK N   1      19.976  16.721   0.752  0.00  0.00     0.210 HD
ENDBRANCH  58  59
BRANCH  58  61
HETATM   61  C   UNK N   1      19.792  16.923   3.663  0.00  0.00     0.191 C 
BRANCH  61  62
HETATM   62  O   UNK N   1      19.980  16.339   4.925  0.00  0.00    -0.390 OA
HETATM   63  H   UNK N   1      20.149  15.388   5.000  0.00  0.00     0.210 HD
ENDBRANCH  61  62
BRANCH  61  64
HETATM   64  C   UNK N   1      20.828  18.028   3.436  0.00  0.00     0.277 C 
BRANCH  64  65
HETATM   65  N   UNK N   1      20.184  19.191   2.792  0.00  0.00     0.089 N 
HETATM   66  C   UNK N   1      20.399  20.462   3.468  0.00  0.00     0.310 C 
HETATM   67  C   UNK N   1      20.746  19.334   1.457  0.00  0.00     0.310 C 
ENDBRANCH  64  65
BRANCH  64  68
HETATM   68  C   UNK N   1      21.529  18.324   4.765  0.00  0.00     0.205 C 
BRANCH  68  69
HETATM   69  O   UNK N   1      22.640  17.495   4.910  0.00  0.00    -0.394 OA
HETATM   70  C   UNK N   1      23.469  17.842   3.845  0.00  0.00     0.201 C 
ENDBRANCH  68  69
ENDBRANCH  64  68
ENDBRANCH  61  64
ENDBRANCH  58  61
ENDBRANCH  55  58
ENDBRANCH  53  54
ENDBRANCH  52  53
ENDBRANCH  50  52
ENDBRANCH  46  50
ENDBRANCH  43  44
ENDBRANCH  42  43
ENDBRANCH  41  42
ENDBRANCH  34  41
BRANCH  36  71
HETATM   71  O   UNK N   1      29.409  17.405   4.729  0.00  0.00    -0.395 OA
HETATM   72  H   UNK N   1      28.863  17.843   4.056  0.00  0.00     0.210 HD
ENDBRANCH  36  71
BRANCH  38  73
HETATM   73  O   UNK N   1      34.512  15.690   7.571  0.00  0.00    -0.288 OA
BRANCH  73  74
HETATM   74  P   UNK N   1      34.541  17.055   8.672  0.00  0.00     0.391 P 
HETATM   75  O   UNK N   1      35.542  16.797   9.834  0.00  0.00    -0.632 OA
BRANCH  74  76
HETATM   76  O   UNK N   1      34.935  18.587   7.960  0.00  0.00    -0.307 OA
HETATM   77  H   UNK N   1      34.290  19.047   7.400  0.00  0.00     0.222 HD
ENDBRANCH  74  76
BRANCH  74  78
HETATM   78  O   UNK N   1      32.971  17.199   9.379  0.00  0.00    -0.307 OA
HETATM   79  H   UNK N   1      32.493  17.214  10.222  0.00  0.00     0.222 HD
ENDBRANCH  74  78
ENDBRANCH  73  74
ENDBRANCH  38  73
ENDBRANCH  25  28
ENDBRANCH  24  25
ENDBRANCH  21  24
ENDBRANCH  19  21
ENDBRANCH  16  19
ENDBRANCH  14  16
ENDBRANCH  12  14
ENDBRANCH   9  11
ENDBRANCH   7   8
ENDBRANCH   2   6
TORSDOF 34
ENDMDL
MODEL 9
REMARK VINA RESULT:      -7.5      4.244     13.505
REMARK WARNING: 32 MAX_TORS EXCEEDED!!!
REMARK  34 active torsions:
REMARK  status: ('A' for Active; 'I' for Inactive)
REMARK    1  A    between atoms: P_1  and  O_4 
REMARK    2  A    between atoms: P_1  and  O_8 
REMARK    3  A    between atoms: P_1  and  O_9 
REMARK    4  A    between atoms: C_24  and  O_4 
REMARK    5  A    between atoms: C_28  and  O_5 
REMARK    6  A    between atoms: C_29  and  O_6 
REMARK    7  A    between atoms: C_36  and  O_10 
REMARK    8  A    between atoms: C_41  and  O_11 
REMARK    9  A    between atoms: C_58  and  O_13 
REMARK   10  A    between atoms: C_60  and  O_14 
REMARK   11  A    between atoms: O_16  and  C_63 
REMARK   12  A    between atoms: N_19  and  C_55 
REMARK       I    between atoms: N_19  and  C_59 
REMARK   13  A    between atoms: N_20  and  C_61 
REMARK   14  A    between atoms: C_25  and  C_28 
REMARK   15  A    between atoms: C_27  and  C_34 
REMARK   16  A    between atoms: C_28  and  C_33 
REMARK   17  A    between atoms: C_33  and  C_36 
REMARK   18  A    between atoms: C_34  and  C_37 
REMARK   19  A    between atoms: C_36  and  C_38 
REMARK   20  A    between atoms: C_37  and  C_40 
REMARK   21  A    between atoms: C_38  and  C_41 
REMARK   22  A    between atoms: C_40  and  C_42 
REMARK   23  A    between atoms: C_41  and  C_44 
REMARK   24  A    between atoms: C_44  and  C_47 
REMARK   25  A    between atoms: C_46  and  C_49 
REMARK   26  A    between atoms: C_49  and  C_52 
REMARK   27  A    between atoms: C_50  and  C_51 
REMARK   28  A    between atoms: C_52  and  C_55 
REMARK   29  A    between atoms: C_56  and  C_62 
REMARK   30  A    between atoms: C_58  and  C_59 
REMARK   31  A    between atoms: C_58  and  C_60 
REMARK   32  A    between atoms: C_60  and  C_61 
REMARK   33  A    between atoms: C_61  and  C_63 
REMARK   34  A    between atoms: C_64  and  C_67 
ROOT
HETATM    1  N   UNK N   1      24.240   7.526   5.724  0.00  0.00    -0.192 NA
HETATM    2  C   UNK N   1      22.289  10.346   6.070  0.00  0.00    -0.052 C 
HETATM    3  C   UNK N   1      22.135   9.067   5.711  0.00  0.00     0.100 C 
HETATM    4  C   UNK N   1      21.121  11.278   6.049  0.00  0.00     0.049 C 
HETATM    5  C   UNK N   1      23.283   8.178   5.705  0.00  0.00     0.088 C 
ENDROOT
BRANCH   2   6
HETATM    6  C   UNK N   1      23.626  10.778   6.501  0.00  0.00     0.007 C 
HETATM    7  C   UNK N   1      24.061  11.016   7.717  0.00  0.00     0.001 C 
BRANCH   7   8
HETATM    8  C   UNK N   1      23.305  10.972   8.971  0.00  0.00     0.007 C 
HETATM    9  C   UNK N   1      22.994  12.144   9.527  0.00  0.00    -0.056 C 
HETATM   10  C   UNK N   1      22.248  12.206  10.818  0.00  0.00     0.049 C 
BRANCH   9  11
HETATM   11  C   UNK N   1      23.445  13.393   8.905  0.00  0.00    -0.059 C 
HETATM   12  C   UNK N   1      22.563  14.049   8.114  0.00  0.00    -0.013 C 
HETATM   13  C   UNK N   1      24.878  13.815   9.075  0.00  0.00     0.048 C 
BRANCH  12  14
HETATM   14  C   UNK N   1      22.938  15.138   7.158  0.00  0.00     0.034 C 
HETATM   15  C   UNK N   1      23.688  14.631   5.944  0.00  0.00     0.017 C 
BRANCH  14  16
HETATM   16  C   UNK N   1      21.655  15.896   6.811  0.00  0.00     0.131 C 
BRANCH  16  17
HETATM   17  O   UNK N   1      21.912  17.274   6.817  0.00  0.00    -0.394 OA
HETATM   18  H   UNK N   1      22.308  17.962   7.374  0.00  0.00     0.210 HD
ENDBRANCH  16  17
BRANCH  16  19
HETATM   19  C   UNK N   1      21.158  15.425   5.435  0.00  0.00     0.040 C 
HETATM   20  C   UNK N   1      19.845  14.695   5.675  0.00  0.00     0.015 C 
BRANCH  19  21
HETATM   21  C   UNK N   1      20.879  16.471   4.341  0.00  0.00     0.126 C 
BRANCH  21  22
HETATM   22  O   UNK N   1      19.521  16.564   4.041  0.00  0.00    -0.395 OA
HETATM   23  H   UNK N   1      18.683  16.853   4.436  0.00  0.00     0.210 HD
ENDBRANCH  21  22
BRANCH  21  24
HETATM   24  C   UNK N   1      21.767  16.523   3.097  0.00  0.00     0.067 C 
BRANCH  24  25
HETATM   25  C   UNK N   1      21.504  15.270   2.216  0.00  0.00     0.154 C 
BRANCH  25  26
HETATM   26  O   UNK N   1      21.295  15.526   0.833  0.00  0.00    -0.388 OA
HETATM   27  C   UNK N   1      19.941  15.845   0.602  0.00  0.00     0.202 C 
ENDBRANCH  25  26
BRANCH  25  28
HETATM   28  C   UNK N   1      22.385  14.055   2.565  0.00  0.00     0.184 C 
HETATM   29  O   UNK N   1      23.632  14.594   2.647  0.00  0.00    -0.344 OA
HETATM   30  C   UNK N   1      24.556  13.752   2.046  0.00  0.00     0.176 C 
HETATM   31  O   UNK N   1      25.432  14.569   1.291  0.00  0.00    -0.348 OA
HETATM   32  C   UNK N   1      23.820  12.830   1.070  0.00  0.00     0.038 C 
HETATM   33  C   UNK N   1      25.199  13.003   3.251  0.00  0.00     0.101 C 
HETATM   34  C   UNK N   1      26.269  15.295   2.133  0.00  0.00     0.134 C 
HETATM   35  C   UNK N   1      27.318  14.316   2.664  0.00  0.00     0.040 C 
HETATM   36  C   UNK N   1      26.715  13.015   3.246  0.00  0.00     0.129 C 
HETATM   37  C   UNK N   1      28.335  14.049   1.564  0.00  0.00     0.015 C 
HETATM   38  C   UNK N   1      22.472  12.772   1.732  0.00  0.00     0.178 C 
HETATM   39  C   UNK N   1      24.521  11.477   0.957  0.00  0.00     0.023 C 
HETATM   40  C   UNK N   1      23.688  13.438  -0.325  0.00  0.00     0.023 C 
BRANCH  34  41
HETATM   41  C   UNK N   1      25.514  16.285   3.082  0.00  0.00     0.059 C 
BRANCH  41  42
HETATM   42  C   UNK N   1      26.380  16.836   4.214  0.00  0.00    -0.022 C 
BRANCH  42  43
HETATM   43  C   UNK N   1      27.232  17.824   3.971  0.00  0.00     0.027 C 
BRANCH  43  44
HETATM   44  C   UNK N   1      27.797  18.432   5.146  0.00  0.00     0.056 A 
HETATM   45  N   UNK N   1      28.315  17.676   6.110  0.00  0.00    -0.338 N 
HETATM   46  C   UNK N   1      28.318  18.471   7.183  0.00  0.00     0.127 A 
ATOM     47  HN  UNK N   1      28.636  16.710   6.045  1.00  0.00     0.168 HD
HETATM   48  O   UNK N   1      27.803  19.648   6.915  0.00  0.00    -0.307 OA
HETATM   49  C   UNK N   1      27.445  19.656   5.661  0.00  0.00     0.173 A 
BRANCH  46  50
HETATM   50  C   UNK N   1      29.363  18.305   8.203  0.00  0.00     0.058 C 
HETATM   51  C   UNK N   1      28.721  17.863   9.508  0.00  0.00     0.018 C 
BRANCH  50  52
HETATM   52  C   UNK N   1      30.301  17.164   7.704  0.00  0.00     0.032 C 
BRANCH  52  53
HETATM   53  C   UNK N   1      31.843  17.407   7.813  0.00  0.00     0.123 C 
BRANCH  53  54
HETATM   54  N   UNK N   1      32.275  16.851   9.062  0.00  0.00    -0.359 N 
HETATM   55  C   UNK N   1      33.571  16.676   9.297  0.00  0.00     0.249 C 
HETATM   56  O   UNK N   1      34.388  17.403   8.750  0.00  0.00    -0.271 OA
HETATM   57  H   UNK N   1      31.612  16.598   9.744  0.00  0.00     0.162 HD
BRANCH  55  58
HETATM   58  C   UNK N   1      33.987  15.371   9.910  0.00  0.00     0.240 C 
BRANCH  58  59
HETATM   59  O   UNK N   1      33.146  14.938  10.938  0.00  0.00    -0.383 OA
HETATM   60  H   UNK N   1      32.294  14.516  10.742  0.00  0.00     0.210 HD
ENDBRANCH  58  59
BRANCH  58  61
HETATM   61  C   UNK N   1      35.470  15.326  10.262  0.00  0.00     0.191 C 
BRANCH  61  62
HETATM   62  O   UNK N   1      35.737  16.379  11.149  0.00  0.00    -0.390 OA
HETATM   63  H   UNK N   1      36.114  17.209  10.819  0.00  0.00     0.210 HD
ENDBRANCH  61  62
BRANCH  61  64
HETATM   64  C   UNK N   1      35.870  13.990  10.896  0.00  0.00     0.277 C 
BRANCH  64  65
HETATM   65  N   UNK N   1      36.894  13.329  10.061  0.00  0.00     0.089 N 
HETATM   66  C   UNK N   1      37.521  14.187   9.066  0.00  0.00     0.310 C 
HETATM   67  C   UNK N   1      37.960  12.866  10.937  0.00  0.00     0.310 C 
ENDBRANCH  64  65
BRANCH  64  68
HETATM   68  C   UNK N   1      36.277  14.240  12.350  0.00  0.00     0.205 C 
BRANCH  68  69
HETATM   69  O   UNK N   1      35.185  14.032  13.191  0.00  0.00    -0.394 OA
HETATM   70  C   UNK N   1      34.937  12.663  13.099  0.00  0.00     0.201 C 
ENDBRANCH  68  69
ENDBRANCH  64  68
ENDBRANCH  61  64
ENDBRANCH  58  61
ENDBRANCH  55  58
ENDBRANCH  53  54
ENDBRANCH  52  53
ENDBRANCH  50  52
ENDBRANCH  46  50
ENDBRANCH  43  44
ENDBRANCH  42  43
ENDBRANCH  41  42
ENDBRANCH  34  41
BRANCH  36  71
HETATM   71  O   UNK N   1      27.174  11.868   2.601  0.00  0.00    -0.395 OA
HETATM   72  H   UNK N   1      28.122  11.726   2.449  0.00  0.00     0.210 HD
ENDBRANCH  36  71
BRANCH  38  73
HETATM   73  O   UNK N   1      21.343  12.451   0.949  0.00  0.00    -0.288 OA
BRANCH  73  74
HETATM   74  P   UNK N   1      20.403  11.255   1.821  0.00  0.00     0.391 P 
HETATM   75  O   UNK N   1      19.588  11.927   2.963  0.00  0.00    -0.632 OA
BRANCH  74  76
HETATM   76  O   UNK N   1      19.301  10.319   0.862  0.00  0.00    -0.307 OA
HETATM   77  H   UNK N   1      18.413  10.116   1.195  0.00  0.00     0.222 HD
ENDBRANCH  74  76
BRANCH  74  78
HETATM   78  O   UNK N   1      21.506  10.155   2.569  0.00  0.00    -0.307 OA
HETATM   79  H   UNK N   1      21.578   9.280   2.980  0.00  0.00     0.222 HD
ENDBRANCH  74  78
ENDBRANCH  73  74
ENDBRANCH  38  73
ENDBRANCH  25  28
ENDBRANCH  24  25
ENDBRANCH  21  24
ENDBRANCH  19  21
ENDBRANCH  16  19
ENDBRANCH  14  16
ENDBRANCH  12  14
ENDBRANCH   9  11
ENDBRANCH   7   8
ENDBRANCH   2   6
TORSDOF 34
ENDMDL
