REMARK  2 active torsions:
REMARK  status: ('A' for Active; 'I' for Inactive)
REMARK    1  A    between atoms: C_3  and  O_5 
REMARK    2  A    between atoms: C_4  and  O_6 
ROOT
HETATM    1  C   UNK N   1       2.057   1.239   0.001  0.00  0.00     0.120 A 
HETATM    2  C   UNK N   1      -0.367  -0.857  -0.002  0.00  0.00     0.120 A 
HETATM    3  C   UNK N   1       0.602   1.715  -0.004  0.00  0.00     0.157 A 
HETATM    4  C   UNK N   1      -0.559   0.647   0.004  0.00  0.00     0.157 A 
HETATM    5  S   UNK N   1       2.779  -0.447  -0.001  0.00  0.00    -0.095 SA
HETATM    6  S   UNK N   1       1.165  -1.826   0.001  0.00  0.00    -0.095 SA
ENDROOT
BRANCH   3   7
HETATM    7  O   UNK N   1       0.284   3.089   0.001  0.00  0.00    -0.392 OA
HETATM    8  H   UNK N   1       0.993   3.751   0.004  0.00  0.00     0.210 HD
ENDBRANCH   3   7
BRANCH   4   9
HETATM    9  O   UNK N   1      -1.951   0.714  -0.001  0.00  0.00    -0.392 OA
HETATM   10  H   UNK N   1      -2.395   1.576  -0.004  0.00  0.00     0.210 HD
ENDBRANCH   4   9
TORSDOF 2
