MODEL 1
REMARK VINA RESULT:      -5.9      0.000      0.000
REMARK  12 active torsions:
REMARK  status: ('A' for Active; 'I' for Inactive)
REMARK    1  A    between atoms: P_1  and  O_3 
REMARK    2  A    between atoms: P_1  and  O_5 
REMARK    3  A    between atoms: P_1  and  O_6 
REMARK    4  A    between atoms: P_2  and  O_4 
REMARK    5  A    between atoms: P_2  and  O_7 
REMARK    6  A    between atoms: P_2  and  O_8 
REMARK    7  A    between atoms: O_3  and  C_15 
REMARK    8  A    between atoms: C_16  and  O_4 
REMARK    9  A    between atoms: C_18  and  O_9 
REMARK   10  A    between atoms: C_19  and  O_10 
REMARK   11  A    between atoms: C_20  and  O_11 
REMARK   12  A    between atoms: C_17  and  C_15 
ROOT
HETATM    1  O   UNK N   1      31.787  16.905   8.331  0.00  0.00    -0.348 OA
HETATM    2  C   UNK N   1      30.736  17.370   7.518  0.00  0.00     0.303 C 
HETATM    3  C   UNK N   1      32.942  17.580   7.909  0.00  0.00     0.180 C 
HETATM    4  C   UNK N   1      30.916  16.828   6.093  0.00  0.00     0.205 C 
HETATM    5  C   UNK N   1      33.390  16.993   6.570  0.00  0.00     0.180 C 
HETATM    6  C   UNK N   1      32.276  17.289   5.560  0.00  0.00     0.183 C 
ENDROOT
BRANCH   3   7
HETATM    7  C   UNK N   1      34.014  17.475   8.978  0.00  0.00     0.215 C 
BRANCH   7   8
HETATM    8  O   UNK N   1      34.749  16.303   8.773  0.00  0.00    -0.294 OA
BRANCH   8   9
HETATM    9  P   UNK N   1      35.262  15.791  10.354  0.00  0.00     0.390 P 
HETATM   10  O   UNK N   1      36.155  14.930   9.417  0.00  0.00    -0.632 OA
BRANCH   9  11
HETATM   11  O   UNK N   1      35.615  17.478  10.136  0.00  0.00    -0.307 OA
HETATM   12  H   UNK N   1      36.498  17.855  10.000  0.00  0.00     0.222 HD
ENDBRANCH   9  11
BRANCH   9  13
HETATM   13  O   UNK N   1      36.871  16.151  10.894  0.00  0.00    -0.307 OA
HETATM   14  H   UNK N   1      37.135  16.169  11.827  0.00  0.00     0.222 HD
ENDBRANCH   9  13
ENDBRANCH   8   9
ENDBRANCH   7   8
ENDBRANCH   3   7
BRANCH   5  15
HETATM   15  O   UNK N   1      34.575  17.596   6.144  0.00  0.00    -0.390 OA
HETATM   16  H   UNK N   1      34.753  17.974   5.269  0.00  0.00     0.210 HD
ENDBRANCH   5  15
BRANCH   2  17
HETATM   17  O   UNK N   1      29.518  16.936   8.056  0.00  0.00    -0.263 OA
BRANCH  17  18
HETATM   18  P   UNK N   1      28.879  18.310   8.916  0.00  0.00     0.393 P 
HETATM   19  O   UNK N   1      28.790  17.193   9.993  0.00  0.00    -0.631 OA
BRANCH  18  20
HETATM   20  O   UNK N   1      27.841  17.913   7.582  0.00  0.00    -0.307 OA
HETATM   21  H   UNK N   1      27.090  18.474   7.331  0.00  0.00     0.222 HD
ENDBRANCH  18  20
BRANCH  18  22
HETATM   22  O   UNK N   1      27.213  18.357   9.398  0.00  0.00    -0.307 OA
HETATM   23  H   UNK N   1      26.822  17.653   9.940  0.00  0.00     0.222 HD
ENDBRANCH  18  22
ENDBRANCH  17  18
ENDBRANCH   2  17
BRANCH   6  24
HETATM   24  O   UNK N   1      32.553  16.677   4.337  0.00  0.00    -0.390 OA
HETATM   25  H   UNK N   1      32.443  15.724   4.189  0.00  0.00     0.210 HD
ENDBRANCH   6  24
BRANCH   4  26
HETATM   26  O   UNK N   1      29.901  17.314   5.265  0.00  0.00    -0.388 OA
HETATM   27  H   UNK N   1      29.049  17.693   5.534  0.00  0.00     0.210 HD
ENDBRANCH   4  26
TORSDOF 12
ENDMDL
MODEL 2
REMARK VINA RESULT:      -5.8      1.880      2.286
REMARK  12 active torsions:
REMARK  status: ('A' for Active; 'I' for Inactive)
REMARK    1  A    between atoms: P_1  and  O_3 
REMARK    2  A    between atoms: P_1  and  O_5 
REMARK    3  A    between atoms: P_1  and  O_6 
REMARK    4  A    between atoms: P_2  and  O_4 
REMARK    5  A    between atoms: P_2  and  O_7 
REMARK    6  A    between atoms: P_2  and  O_8 
REMARK    7  A    between atoms: O_3  and  C_15 
REMARK    8  A    between atoms: C_16  and  O_4 
REMARK    9  A    between atoms: C_18  and  O_9 
REMARK   10  A    between atoms: C_19  and  O_10 
REMARK   11  A    between atoms: C_20  and  O_11 
REMARK   12  A    between atoms: C_17  and  C_15 
ROOT
HETATM    1  O   UNK N   1      30.488  16.423   6.848  0.00  0.00    -0.348 OA
HETATM    2  C   UNK N   1      29.781  17.493   6.272  0.00  0.00     0.303 C 
HETATM    3  C   UNK N   1      31.843  16.639   6.554  0.00  0.00     0.180 C 
HETATM    4  C   UNK N   1      29.799  17.352   4.743  0.00  0.00     0.205 C 
HETATM    5  C   UNK N   1      32.079  16.322   5.077  0.00  0.00     0.180 C 
HETATM    6  C   UNK N   1      31.255  17.329   4.269  0.00  0.00     0.183 C 
ENDROOT
BRANCH   3   7
HETATM    7  C   UNK N   1      32.706  15.797   7.475  0.00  0.00     0.215 C 
BRANCH   7   8
HETATM    8  O   UNK N   1      33.961  16.401   7.604  0.00  0.00    -0.294 OA
BRANCH   8   9
HETATM    9  P   UNK N   1      33.645  18.024   8.141  0.00  0.00     0.390 P 
HETATM   10  O   UNK N   1      34.385  17.406   9.360  0.00  0.00    -0.632 OA
BRANCH   9  11
HETATM   11  O   UNK N   1      34.694  18.053   6.756  0.00  0.00    -0.307 OA
HETATM   12  H   UNK N   1      35.498  18.589   6.669  0.00  0.00     0.222 HD
ENDBRANCH   9  11
BRANCH   9  13
HETATM   13  O   UNK N   1      34.970  19.115   8.401  0.00  0.00    -0.307 OA
HETATM   14  H   UNK N   1      35.852  18.832   8.690  0.00  0.00     0.222 HD
ENDBRANCH   9  13
ENDBRANCH   8   9
ENDBRANCH   7   8
ENDBRANCH   3   7
BRANCH   5  15
HETATM   15  O   UNK N   1      33.431  16.464   4.757  0.00  0.00    -0.390 OA
HETATM   16  H   UNK N   1      34.047  15.757   4.512  0.00  0.00     0.210 HD
ENDBRANCH   5  15
BRANCH   2  17
HETATM   17  O   UNK N   1      28.464  17.479   6.748  0.00  0.00    -0.263 OA
BRANCH  17  18
HETATM   18  P   UNK N   1      28.598  17.661   8.476  0.00  0.00     0.393 P 
HETATM   19  O   UNK N   1      27.401  16.677   8.354  0.00  0.00    -0.631 OA
BRANCH  18  20
HETATM   20  O   UNK N   1      28.174  19.181   7.752  0.00  0.00    -0.307 OA
HETATM   21  H   UNK N   1      27.469  19.256   7.089  0.00  0.00     0.222 HD
ENDBRANCH  18  20
BRANCH  18  22
HETATM   22  O   UNK N   1      27.344  18.446   9.384  0.00  0.00    -0.307 OA
HETATM   23  H   UNK N   1      27.349  18.451  10.354  0.00  0.00     0.222 HD
ENDBRANCH  18  22
ENDBRANCH  17  18
ENDBRANCH   2  17
BRANCH   6  24
HETATM   24  O   UNK N   1      31.319  17.029   2.907  0.00  0.00    -0.390 OA
HETATM   25  H   UNK N   1      31.429  17.708   2.222  0.00  0.00     0.210 HD
ENDBRANCH   6  24
BRANCH   4  26
HETATM   26  O   UNK N   1      29.133  18.431   4.155  0.00  0.00    -0.388 OA
HETATM   27  H   UNK N   1      29.420  18.957   3.392  0.00  0.00     0.210 HD
ENDBRANCH   4  26
TORSDOF 12
ENDMDL
MODEL 3
REMARK VINA RESULT:      -5.7     13.034     15.438
REMARK  12 active torsions:
REMARK  status: ('A' for Active; 'I' for Inactive)
REMARK    1  A    between atoms: P_1  and  O_3 
REMARK    2  A    between atoms: P_1  and  O_5 
REMARK    3  A    between atoms: P_1  and  O_6 
REMARK    4  A    between atoms: P_2  and  O_4 
REMARK    5  A    between atoms: P_2  and  O_7 
REMARK    6  A    between atoms: P_2  and  O_8 
REMARK    7  A    between atoms: O_3  and  C_15 
REMARK    8  A    between atoms: C_16  and  O_4 
REMARK    9  A    between atoms: C_18  and  O_9 
REMARK   10  A    between atoms: C_19  and  O_10 
REMARK   11  A    between atoms: C_20  and  O_11 
REMARK   12  A    between atoms: C_17  and  C_15 
ROOT
HETATM    1  O   UNK N   1      28.269  23.282  -6.237  0.00  0.00    -0.348 OA
HETATM    2  C   UNK N   1      26.863  23.255  -6.289  0.00  0.00     0.303 C 
HETATM    3  C   UNK N   1      28.623  22.907  -4.932  0.00  0.00     0.180 C 
HETATM    4  C   UNK N   1      26.300  24.419  -5.463  0.00  0.00     0.205 C 
HETATM    5  C   UNK N   1      28.320  24.073  -3.990  0.00  0.00     0.180 C 
HETATM    6  C   UNK N   1      26.804  24.289  -4.022  0.00  0.00     0.183 C 
ENDROOT
BRANCH   3   7
HETATM    7  C   UNK N   1      30.083  22.496  -4.898  0.00  0.00     0.215 C 
BRANCH   7   8
HETATM    8  O   UNK N   1      30.312  21.715  -3.760  0.00  0.00    -0.294 OA
BRANCH   8   9
HETATM    9  P   UNK N   1      31.960  22.027  -3.302  0.00  0.00     0.390 P 
HETATM   10  O   UNK N   1      31.170  22.486  -2.045  0.00  0.00    -0.632 OA
BRANCH   9  11
HETATM   11  O   UNK N   1      31.733  20.325  -3.565  0.00  0.00    -0.307 OA
HETATM   12  H   UNK N   1      30.896  19.845  -3.458  0.00  0.00     0.222 HD
ENDBRANCH   9  11
BRANCH   9  13
HETATM   13  O   UNK N   1      32.683  21.110  -2.019  0.00  0.00    -0.307 OA
HETATM   14  H   UNK N   1      33.515  21.355  -1.584  0.00  0.00     0.222 HD
ENDBRANCH   9  13
ENDBRANCH   8   9
ENDBRANCH   7   8
ENDBRANCH   3   7
BRANCH   5  15
HETATM   15  O   UNK N   1      28.718  23.764  -2.687  0.00  0.00    -0.390 OA
HETATM   16  H   UNK N   1      28.332  23.090  -2.107  0.00  0.00     0.210 HD
ENDBRANCH   5  15
BRANCH   2  17
HETATM   17  O   UNK N   1      26.454  23.361  -7.625  0.00  0.00    -0.263 OA
BRANCH  17  18
HETATM   18  P   UNK N   1      25.787  21.803  -8.027  0.00  0.00     0.393 P 
HETATM   19  O   UNK N   1      26.916  21.945  -9.085  0.00  0.00    -0.631 OA
BRANCH  18  20
HETATM   20  O   UNK N   1      24.595  23.041  -8.280  0.00  0.00    -0.307 OA
HETATM   21  H   UNK N   1      24.820  23.984  -8.248  0.00  0.00     0.222 HD
ENDBRANCH  18  20
BRANCH  18  22
HETATM   22  O   UNK N   1      24.955  21.557  -9.530  0.00  0.00    -0.307 OA
HETATM   23  H   UNK N   1      23.987  21.499  -9.570  0.00  0.00     0.222 HD
ENDBRANCH  18  22
ENDBRANCH  17  18
ENDBRANCH   2  17
BRANCH   6  24
HETATM   24  O   UNK N   1      26.457  25.419  -3.281  0.00  0.00    -0.390 OA
HETATM   25  H   UNK N   1      26.679  25.521  -2.341  0.00  0.00     0.210 HD
ENDBRANCH   6  24
BRANCH   4  26
HETATM   26  O   UNK N   1      24.903  24.382  -5.473  0.00  0.00    -0.388 OA
HETATM   27  H   UNK N   1      24.315  24.046  -4.778  0.00  0.00     0.210 HD
ENDBRANCH   4  26
TORSDOF 12
ENDMDL
MODEL 4
REMARK VINA RESULT:      -5.7      2.187      4.348
REMARK  12 active torsions:
REMARK  status: ('A' for Active; 'I' for Inactive)
REMARK    1  A    between atoms: P_1  and  O_3 
REMARK    2  A    between atoms: P_1  and  O_5 
REMARK    3  A    between atoms: P_1  and  O_6 
REMARK    4  A    between atoms: P_2  and  O_4 
REMARK    5  A    between atoms: P_2  and  O_7 
REMARK    6  A    between atoms: P_2  and  O_8 
REMARK    7  A    between atoms: O_3  and  C_15 
REMARK    8  A    between atoms: C_16  and  O_4 
REMARK    9  A    between atoms: C_18  and  O_9 
REMARK   10  A    between atoms: C_19  and  O_10 
REMARK   11  A    between atoms: C_20  and  O_11 
REMARK   12  A    between atoms: C_17  and  C_15 
ROOT
HETATM    1  O   UNK N   1      30.782  17.683   7.004  0.00  0.00    -0.348 OA
HETATM    2  C   UNK N   1      29.558  17.405   6.369  0.00  0.00     0.303 C 
HETATM    3  C   UNK N   1      30.788  16.941   8.196  0.00  0.00     0.180 C 
HETATM    4  C   UNK N   1      28.415  18.061   7.156  0.00  0.00     0.205 C 
HETATM    5  C   UNK N   1      29.839  17.609   9.191  0.00  0.00     0.180 C 
HETATM    6  C   UNK N   1      28.432  17.523   8.590  0.00  0.00     0.183 C 
ENDROOT
BRANCH   3   7
HETATM    7  C   UNK N   1      32.207  16.837   8.725  0.00  0.00     0.215 C 
BRANCH   7   8
HETATM    8  O   UNK N   1      32.907  18.000   8.388  0.00  0.00    -0.294 OA
BRANCH   8   9
HETATM    9  P   UNK N   1      34.588  17.556   8.411  0.00  0.00     0.390 P 
HETATM   10  O   UNK N   1      34.652  19.107   8.323  0.00  0.00    -0.632 OA
BRANCH   9  11
HETATM   11  O   UNK N   1      33.828  17.071   9.896  0.00  0.00    -0.307 OA
HETATM   12  H   UNK N   1      34.044  16.274  10.404  0.00  0.00     0.222 HD
ENDBRANCH   9  11
BRANCH   9  13
HETATM   13  O   UNK N   1      35.572  17.994   9.771  0.00  0.00    -0.307 OA
HETATM   14  H   UNK N   1      35.310  18.650  10.437  0.00  0.00     0.222 HD
ENDBRANCH   9  13
ENDBRANCH   8   9
ENDBRANCH   7   8
ENDBRANCH   3   7
BRANCH   5  15
HETATM   15  O   UNK N   1      29.863  16.937  10.414  0.00  0.00    -0.390 OA
HETATM   16  H   UNK N   1      29.152  16.397  10.795  0.00  0.00     0.210 HD
ENDBRANCH   5  15
BRANCH   2  17
HETATM   17  O   UNK N   1      29.599  17.902   5.061  0.00  0.00    -0.263 OA
BRANCH  17  18
HETATM   18  P   UNK N   1      30.389  16.664   4.123  0.00  0.00     0.393 P 
HETATM   19  O   UNK N   1      31.488  17.761   4.186  0.00  0.00    -0.631 OA
BRANCH  18  20
HETATM   20  O   UNK N   1      29.011  17.272   3.259  0.00  0.00    -0.307 OA
HETATM   21  H   UNK N   1      28.406  16.684   2.779  0.00  0.00     0.222 HD
ENDBRANCH  18  20
BRANCH  18  22
HETATM   22  O   UNK N   1      30.779  16.930   2.453  0.00  0.00    -0.307 OA
HETATM   23  H   UNK N   1      30.226  17.493   1.888  0.00  0.00     0.222 HD
ENDBRANCH  18  22
ENDBRANCH  17  18
ENDBRANCH   2  17
BRANCH   6  24
HETATM   24  O   UNK N   1      27.521  18.222   9.383  0.00  0.00    -0.390 OA
HETATM   25  H   UNK N   1      27.794  18.817  10.099  0.00  0.00     0.210 HD
ENDBRANCH   6  24
BRANCH   4  26
HETATM   26  O   UNK N   1      27.188  17.761   6.559  0.00  0.00    -0.388 OA
HETATM   27  H   UNK N   1      26.852  18.080   5.706  0.00  0.00     0.210 HD
ENDBRANCH   4  26
TORSDOF 12
ENDMDL
MODEL 5
REMARK VINA RESULT:      -5.6     11.154     13.573
REMARK  12 active torsions:
REMARK  status: ('A' for Active; 'I' for Inactive)
REMARK    1  A    between atoms: P_1  and  O_3 
REMARK    2  A    between atoms: P_1  and  O_5 
REMARK    3  A    between atoms: P_1  and  O_6 
REMARK    4  A    between atoms: P_2  and  O_4 
REMARK    5  A    between atoms: P_2  and  O_7 
REMARK    6  A    between atoms: P_2  and  O_8 
REMARK    7  A    between atoms: O_3  and  C_15 
REMARK    8  A    between atoms: C_16  and  O_4 
REMARK    9  A    between atoms: C_18  and  O_9 
REMARK   10  A    between atoms: C_19  and  O_10 
REMARK   11  A    between atoms: C_20  and  O_11 
REMARK   12  A    between atoms: C_17  and  C_15 
ROOT
HETATM    1  O   UNK N   1      20.312  17.977   3.427  0.00  0.00    -0.348 OA
HETATM    2  C   UNK N   1      21.150  19.071   3.711  0.00  0.00     0.303 C 
HETATM    3  C   UNK N   1      20.654  17.541   2.137  0.00  0.00     0.180 C 
HETATM    4  C   UNK N   1      20.731  20.271   2.851  0.00  0.00     0.205 C 
HETATM    5  C   UNK N   1      20.103  18.542   1.122  0.00  0.00     0.180 C 
HETATM    6  C   UNK N   1      20.820  19.872   1.375  0.00  0.00     0.183 C 
ENDROOT
BRANCH   3   7
HETATM    7  C   UNK N   1      20.124  16.136   1.916  0.00  0.00     0.215 C 
BRANCH   7   8
HETATM    8  O   UNK N   1      19.569  15.664   3.110  0.00  0.00    -0.294 OA
BRANCH   8   9
HETATM    9  P   UNK N   1      19.595  13.930   2.984  0.00  0.00     0.390 P 
HETATM   10  O   UNK N   1      18.716  14.161   4.245  0.00  0.00    -0.632 OA
BRANCH   9  11
HETATM   11  O   UNK N   1      18.826  14.613   1.583  0.00  0.00    -0.307 OA
HETATM   12  H   UNK N   1      17.869  14.642   1.424  0.00  0.00     0.222 HD
ENDBRANCH   9  11
BRANCH   9  13
HETATM   13  O   UNK N   1      18.131  13.075   2.613  0.00  0.00    -0.307 OA
HETATM   14  H   UNK N   1      18.067  12.107   2.577  0.00  0.00     0.222 HD
ENDBRANCH   9  13
ENDBRANCH   8   9
ENDBRANCH   7   8
ENDBRANCH   3   7
BRANCH   5  15
HETATM   15  O   UNK N   1      20.367  18.112  -0.180  0.00  0.00    -0.390 OA
HETATM   16  H   UNK N   1      20.461  17.195  -0.481  0.00  0.00     0.210 HD
ENDBRANCH   5  15
BRANCH   2  17
HETATM   17  O   UNK N   1      21.044  19.384   5.073  0.00  0.00    -0.263 OA
BRANCH  17  18
HETATM   18  P   UNK N   1      21.050  17.851   5.900  0.00  0.00     0.393 P 
HETATM   19  O   UNK N   1      20.988  18.851   7.088  0.00  0.00    -0.631 OA
BRANCH  18  20
HETATM   20  O   UNK N   1      22.543  18.065   5.040  0.00  0.00    -0.307 OA
HETATM   21  H   UNK N   1      22.836  18.937   4.728  0.00  0.00     0.222 HD
ENDBRANCH  18  20
BRANCH  18  22
HETATM   22  O   UNK N   1      22.400  17.381   6.884  0.00  0.00    -0.307 OA
HETATM   23  H   UNK N   1      23.295  17.712   6.708  0.00  0.00     0.222 HD
ENDBRANCH  18  22
ENDBRANCH  17  18
ENDBRANCH   2  17
BRANCH   6  24
HETATM   24  O   UNK N   1      20.283  20.876   0.567  0.00  0.00    -0.390 OA
HETATM   25  H   UNK N   1      20.746  21.232  -0.208  0.00  0.00     0.210 HD
ENDBRANCH   6  24
BRANCH   4  26
HETATM   26  O   UNK N   1      21.579  21.354   3.094  0.00  0.00    -0.388 OA
HETATM   27  H   UNK N   1      21.344  22.295   3.116  0.00  0.00     0.210 HD
ENDBRANCH   4  26
TORSDOF 12
ENDMDL
MODEL 6
REMARK VINA RESULT:      -5.6      2.558      4.316
REMARK  12 active torsions:
REMARK  status: ('A' for Active; 'I' for Inactive)
REMARK    1  A    between atoms: P_1  and  O_3 
REMARK    2  A    between atoms: P_1  and  O_5 
REMARK    3  A    between atoms: P_1  and  O_6 
REMARK    4  A    between atoms: P_2  and  O_4 
REMARK    5  A    between atoms: P_2  and  O_7 
REMARK    6  A    between atoms: P_2  and  O_8 
REMARK    7  A    between atoms: O_3  and  C_15 
REMARK    8  A    between atoms: C_16  and  O_4 
REMARK    9  A    between atoms: C_18  and  O_9 
REMARK   10  A    between atoms: C_19  and  O_10 
REMARK   11  A    between atoms: C_20  and  O_11 
REMARK   12  A    between atoms: C_17  and  C_15 
ROOT
HETATM    1  O   UNK N   1      29.480  17.629   6.486  0.00  0.00    -0.348 OA
HETATM    2  C   UNK N   1      28.256  17.729   7.172  0.00  0.00     0.303 C 
HETATM    3  C   UNK N   1      30.298  16.788   7.256  0.00  0.00     0.180 C 
HETATM    4  C   UNK N   1      28.452  18.561   8.447  0.00  0.00     0.205 C 
HETATM    5  C   UNK N   1      30.770  17.561   8.489  0.00  0.00     0.180 C 
HETATM    6  C   UNK N   1      29.521  17.888   9.314  0.00  0.00     0.183 C 
ENDROOT
BRANCH   3   7
HETATM    7  C   UNK N   1      31.452  16.283   6.409  0.00  0.00     0.215 C 
BRANCH   7   8
HETATM    8  O   UNK N   1      32.573  17.087   6.638  0.00  0.00    -0.294 OA
BRANCH   8   9
HETATM    9  P   UNK N   1      33.868  16.346   5.746  0.00  0.00     0.390 P 
HETATM   10  O   UNK N   1      34.496  17.698   6.187  0.00  0.00    -0.632 OA
BRANCH   9  11
HETATM   11  O   UNK N   1      33.483  15.381   7.138  0.00  0.00    -0.307 OA
HETATM   12  H   UNK N   1      32.588  15.178   7.452  0.00  0.00     0.222 HD
ENDBRANCH   9  11
BRANCH   9  13
HETATM   13  O   UNK N   1      35.315  15.864   6.574  0.00  0.00    -0.307 OA
HETATM   14  H   UNK N   1      35.513  14.948   6.824  0.00  0.00     0.222 HD
ENDBRANCH   9  13
ENDBRANCH   8   9
ENDBRANCH   7   8
ENDBRANCH   3   7
BRANCH   5  15
HETATM   15  O   UNK N   1      31.639  16.779   9.251  0.00  0.00    -0.390 OA
HETATM   16  H   UNK N   1      32.251  17.091   9.937  0.00  0.00     0.210 HD
ENDBRANCH   5  15
BRANCH   2  17
HETATM   17  O   UNK N   1      27.312  18.335   6.334  0.00  0.00    -0.263 OA
BRANCH  17  18
HETATM   18  P   UNK N   1      28.242  19.217   5.154  0.00  0.00     0.393 P 
HETATM   19  O   UNK N   1      27.152  20.257   5.538  0.00  0.00    -0.631 OA
BRANCH  18  20
HETATM   20  O   UNK N   1      27.493  17.840   4.407  0.00  0.00    -0.307 OA
HETATM   21  H   UNK N   1      27.295  17.816   3.457  0.00  0.00     0.222 HD
ENDBRANCH  18  20
BRANCH  18  22
HETATM   22  O   UNK N   1      27.550  19.649   3.623  0.00  0.00    -0.307 OA
HETATM   23  H   UNK N   1      26.721  20.150   3.565  0.00  0.00     0.222 HD
ENDBRANCH  18  22
ENDBRANCH  17  18
ENDBRANCH   2  17
BRANCH   6  24
HETATM   24  O   UNK N   1      29.854  18.702  10.397  0.00  0.00    -0.390 OA
HETATM   25  H   UNK N   1      29.950  18.363  11.301  0.00  0.00     0.210 HD
ENDBRANCH   6  24
BRANCH   4  26
HETATM   26  O   UNK N   1      27.253  18.636   9.159  0.00  0.00    -0.388 OA
HETATM   27  H   UNK N   1      27.139  18.657  10.123  0.00  0.00     0.210 HD
ENDBRANCH   4  26
TORSDOF 12
ENDMDL
MODEL 7
REMARK VINA RESULT:      -5.6     11.881     13.167
REMARK  12 active torsions:
REMARK  status: ('A' for Active; 'I' for Inactive)
REMARK    1  A    between atoms: P_1  and  O_3 
REMARK    2  A    between atoms: P_1  and  O_5 
REMARK    3  A    between atoms: P_1  and  O_6 
REMARK    4  A    between atoms: P_2  and  O_4 
REMARK    5  A    between atoms: P_2  and  O_7 
REMARK    6  A    between atoms: P_2  and  O_8 
REMARK    7  A    between atoms: O_3  and  C_15 
REMARK    8  A    between atoms: C_16  and  O_4 
REMARK    9  A    between atoms: C_18  and  O_9 
REMARK   10  A    between atoms: C_19  and  O_10 
REMARK   11  A    between atoms: C_20  and  O_11 
REMARK   12  A    between atoms: C_17  and  C_15 
ROOT
HETATM    1  O   UNK N   1      20.142  17.361   3.554  0.00  0.00    -0.348 OA
HETATM    2  C   UNK N   1      20.541  17.910   2.322  0.00  0.00     0.303 C 
HETATM    3  C   UNK N   1      20.746  16.097   3.639  0.00  0.00     0.180 C 
HETATM    4  C   UNK N   1      19.851  17.154   1.179  0.00  0.00     0.205 C 
HETATM    5  C   UNK N   1      20.013  15.142   2.696  0.00  0.00     0.180 C 
HETATM    6  C   UNK N   1      20.225  15.671   1.274  0.00  0.00     0.183 C 
ENDROOT
BRANCH   3   7
HETATM    7  C   UNK N   1      20.730  15.619   5.079  0.00  0.00     0.215 C 
BRANCH   7   8
HETATM    8  O   UNK N   1      20.030  16.545   5.860  0.00  0.00    -0.294 OA
BRANCH   8   9
HETATM    9  P   UNK N   1      20.743  16.455   7.443  0.00  0.00     0.390 P 
HETATM   10  O   UNK N   1      21.147  17.881   6.974  0.00  0.00    -0.632 OA
BRANCH   9  11
HETATM   11  O   UNK N   1      19.015  16.331   7.566  0.00  0.00    -0.307 OA
HETATM   12  H   UNK N   1      18.478  16.663   8.303  0.00  0.00     0.222 HD
ENDBRANCH   9  11
BRANCH   9  13
HETATM   13  O   UNK N   1      20.148  17.477   8.712  0.00  0.00    -0.307 OA
HETATM   14  H   UNK N   1      19.568  18.240   8.562  0.00  0.00     0.222 HD
ENDBRANCH   9  13
ENDBRANCH   8   9
ENDBRANCH   7   8
ENDBRANCH   3   7
BRANCH   5  15
HETATM   15  O   UNK N   1      20.543  13.855   2.796  0.00  0.00    -0.390 OA
HETATM   16  H   UNK N   1      20.124  13.030   2.505  0.00  0.00     0.210 HD
ENDBRANCH   5  15
BRANCH   2  17
HETATM   17  O   UNK N   1      20.192  19.267   2.292  0.00  0.00    -0.263 OA
BRANCH  17  18
HETATM   18  P   UNK N   1      21.583  20.114   2.909  0.00  0.00     0.393 P 
HETATM   19  O   UNK N   1      20.440  20.711   3.776  0.00  0.00    -0.631 OA
BRANCH  18  20
HETATM   20  O   UNK N   1      21.327  20.532   1.243  0.00  0.00    -0.307 OA
HETATM   21  H   UNK N   1      22.038  20.888   0.688  0.00  0.00     0.222 HD
ENDBRANCH  18  20
BRANCH  18  22
HETATM   22  O   UNK N   1      21.757  21.824   2.670  0.00  0.00    -0.307 OA
HETATM   23  H   UNK N   1      22.210  22.383   3.321  0.00  0.00     0.222 HD
ENDBRANCH  18  22
ENDBRANCH  17  18
ENDBRANCH   2  17
BRANCH   6  24
HETATM   24  O   UNK N   1      19.482  14.922   0.360  0.00  0.00    -0.390 OA
HETATM   25  H   UNK N   1      19.503  13.952   0.334  0.00  0.00     0.210 HD
ENDBRANCH   6  24
BRANCH   4  26
HETATM   26  O   UNK N   1      20.268  17.663  -0.053  0.00  0.00    -0.388 OA
HETATM   27  H   UNK N   1      19.996  18.495  -0.472  0.00  0.00     0.210 HD
ENDBRANCH   4  26
TORSDOF 12
ENDMDL
MODEL 8
REMARK VINA RESULT:      -5.6      2.400      6.333
REMARK  12 active torsions:
REMARK  status: ('A' for Active; 'I' for Inactive)
REMARK    1  A    between atoms: P_1  and  O_3 
REMARK    2  A    between atoms: P_1  and  O_5 
REMARK    3  A    between atoms: P_1  and  O_6 
REMARK    4  A    between atoms: P_2  and  O_4 
REMARK    5  A    between atoms: P_2  and  O_7 
REMARK    6  A    between atoms: P_2  and  O_8 
REMARK    7  A    between atoms: O_3  and  C_15 
REMARK    8  A    between atoms: C_16  and  O_4 
REMARK    9  A    between atoms: C_18  and  O_9 
REMARK   10  A    between atoms: C_19  and  O_10 
REMARK   11  A    between atoms: C_20  and  O_11 
REMARK   12  A    between atoms: C_17  and  C_15 
ROOT
HETATM    1  O   UNK N   1      31.372  16.645   5.934  0.00  0.00    -0.348 OA
HETATM    2  C   UNK N   1      32.517  17.454   5.816  0.00  0.00     0.303 C 
HETATM    3  C   UNK N   1      30.627  17.167   7.002  0.00  0.00     0.180 C 
HETATM    4  C   UNK N   1      33.449  17.195   7.008  0.00  0.00     0.205 C 
HETATM    5  C   UNK N   1      31.324  16.797   8.311  0.00  0.00     0.180 C 
HETATM    6  C   UNK N   1      32.687  17.496   8.302  0.00  0.00     0.183 C 
ENDROOT
BRANCH   3   7
HETATM    7  C   UNK N   1      29.203  16.647   6.933  0.00  0.00     0.215 C 
BRANCH   7   8
HETATM    8  O   UNK N   1      28.399  17.401   7.794  0.00  0.00    -0.294 OA
BRANCH   8   9
HETATM    9  P   UNK N   1      28.242  18.960   7.041  0.00  0.00     0.390 P 
HETATM   10  O   UNK N   1      27.372  18.056   6.123  0.00  0.00    -0.632 OA
BRANCH   9  11
HETATM   11  O   UNK N   1      27.572  19.009   8.643  0.00  0.00    -0.307 OA
HETATM   12  H   UNK N   1      27.407  18.238   9.208  0.00  0.00     0.222 HD
ENDBRANCH   9  11
BRANCH   9  13
HETATM   13  O   UNK N   1      26.702  19.760   7.035  0.00  0.00    -0.307 OA
HETATM   14  H   UNK N   1      26.453  20.454   7.666  0.00  0.00     0.222 HD
ENDBRANCH   9  13
ENDBRANCH   8   9
ENDBRANCH   7   8
ENDBRANCH   3   7
BRANCH   5  15
HETATM   15  O   UNK N   1      30.580  17.244   9.404  0.00  0.00    -0.390 OA
HETATM   16  H   UNK N   1      30.717  17.010  10.336  0.00  0.00     0.210 HD
ENDBRANCH   5  15
BRANCH   2  17
HETATM   17  O   UNK N   1      33.167  17.152   4.613  0.00  0.00    -0.263 OA
BRANCH  17  18
HETATM   18  P   UNK N   1      31.934  16.486   3.578  0.00  0.00     0.393 P 
HETATM   19  O   UNK N   1      33.221  16.210   2.752  0.00  0.00    -0.631 OA
BRANCH  18  20
HETATM   20  O   UNK N   1      31.707  18.200   3.742  0.00  0.00    -0.307 OA
HETATM   21  H   UNK N   1      31.921  18.670   4.564  0.00  0.00     0.222 HD
ENDBRANCH  18  20
BRANCH  18  22
HETATM   22  O   UNK N   1      31.582  17.210   2.040  0.00  0.00    -0.307 OA
HETATM   23  H   UNK N   1      32.255  17.709   1.549  0.00  0.00     0.222 HD
ENDBRANCH  18  22
ENDBRANCH  17  18
ENDBRANCH   2  17
BRANCH   6  24
HETATM   24  O   UNK N   1      33.440  17.108   9.411  0.00  0.00    -0.390 OA
HETATM   25  H   UNK N   1      34.161  17.648   9.774  0.00  0.00     0.210 HD
ENDBRANCH   6  24
BRANCH   4  26
HETATM   26  O   UNK N   1      34.573  18.020   6.925  0.00  0.00    -0.388 OA
HETATM   27  H   UNK N   1      34.743  18.838   7.419  0.00  0.00     0.210 HD
ENDBRANCH   4  26
TORSDOF 12
ENDMDL
MODEL 9
REMARK VINA RESULT:      -5.6      3.026      5.223
REMARK  12 active torsions:
REMARK  status: ('A' for Active; 'I' for Inactive)
REMARK    1  A    between atoms: P_1  and  O_3 
REMARK    2  A    between atoms: P_1  and  O_5 
REMARK    3  A    between atoms: P_1  and  O_6 
REMARK    4  A    between atoms: P_2  and  O_4 
REMARK    5  A    between atoms: P_2  and  O_7 
REMARK    6  A    between atoms: P_2  and  O_8 
REMARK    7  A    between atoms: O_3  and  C_15 
REMARK    8  A    between atoms: C_16  and  O_4 
REMARK    9  A    between atoms: C_18  and  O_9 
REMARK   10  A    between atoms: C_19  and  O_10 
REMARK   11  A    between atoms: C_20  and  O_11 
REMARK   12  A    between atoms: C_17  and  C_15 
ROOT
HETATM    1  O   UNK N   1      29.613  17.661   6.508  0.00  0.00    -0.348 OA
HETATM    2  C   UNK N   1      28.417  17.500   7.232  0.00  0.00     0.303 C 
HETATM    3  C   UNK N   1      30.617  17.028   7.257  0.00  0.00     0.180 C 
HETATM    4  C   UNK N   1      28.465  18.371   8.495  0.00  0.00     0.205 C 
HETATM    5  C   UNK N   1      30.945  17.900   8.469  0.00  0.00     0.180 C 
HETATM    6  C   UNK N   1      29.681  17.958   9.331  0.00  0.00     0.183 C 
ENDROOT
BRANCH   3   7
HETATM    7  C   UNK N   1      31.827  16.775   6.377  0.00  0.00     0.215 C 
BRANCH   7   8
HETATM    8  O   UNK N   1      31.394  16.371   5.110  0.00  0.00    -0.294 OA
BRANCH   8   9
HETATM    9  P   UNK N   1      32.362  17.268   3.978  0.00  0.00     0.390 P 
HETATM   10  O   UNK N   1      32.654  15.795   3.575  0.00  0.00    -0.632 OA
BRANCH   9  11
HETATM   11  O   UNK N   1      30.681  17.633   3.737  0.00  0.00    -0.307 OA
HETATM   12  H   UNK N   1      30.297  18.015   2.932  0.00  0.00     0.222 HD
ENDBRANCH   9  11
BRANCH   9  13
HETATM   13  O   UNK N   1      31.965  17.229   2.289  0.00  0.00    -0.307 OA
HETATM   14  H   UNK N   1      31.082  17.426   1.939  0.00  0.00     0.222 HD
ENDBRANCH   9  13
ENDBRANCH   8   9
ENDBRANCH   7   8
ENDBRANCH   3   7
BRANCH   5  15
HETATM   15  O   UNK N   1      31.986  17.336   9.209  0.00  0.00    -0.390 OA
HETATM   16  H   UNK N   1      32.115  16.395   9.407  0.00  0.00     0.210 HD
ENDBRANCH   5  15
BRANCH   2  17
HETATM   17  O   UNK N   1      27.339  17.876   6.421  0.00  0.00    -0.263 OA
BRANCH  17  18
HETATM   18  P   UNK N   1      27.919  19.223   5.479  0.00  0.00     0.393 P 
HETATM   19  O   UNK N   1      26.489  19.696   5.861  0.00  0.00    -0.631 OA
BRANCH  18  20
HETATM   20  O   UNK N   1      27.812  17.805   4.481  0.00  0.00    -0.307 OA
HETATM   21  H   UNK N   1      28.495  17.115   4.495  0.00  0.00     0.222 HD
ENDBRANCH  18  20
BRANCH  18  22
HETATM   22  O   UNK N   1      27.204  19.603   3.944  0.00  0.00    -0.307 OA
HETATM   23  H   UNK N   1      26.270  19.856   3.869  0.00  0.00     0.222 HD
ENDBRANCH  18  22
ENDBRANCH  17  18
ENDBRANCH   2  17
BRANCH   6  24
HETATM   24  O   UNK N   1      29.859  18.839  10.399  0.00  0.00    -0.390 OA
HETATM   25  H   UNK N   1      29.181  19.476  10.675  0.00  0.00     0.210 HD
ENDBRANCH   6  24
BRANCH   4  26
HETATM   26  O   UNK N   1      27.300  18.192   9.245  0.00  0.00    -0.388 OA
HETATM   27  H   UNK N   1      26.391  18.112   8.914  0.00  0.00     0.210 HD
ENDBRANCH   4  26
TORSDOF 12
ENDMDL
