MODEL 1
REMARK VINA RESULT:      -5.6      0.000      0.000
REMARK  6 active torsions:
REMARK  status: ('A' for Active; 'I' for Inactive)
REMARK    1  A    between atoms: C_3  and  O_2 
REMARK    2  A    between atoms: C_4  and  O_5 
REMARK    3  A    between atoms: C_6  and  O_7 
REMARK    4  A    between atoms: C_8  and  O_9 
REMARK    5  A    between atoms: C_11  and  C_12 
REMARK    6  A    between atoms: C_12  and  O_13 
ROOT
HETATM    1  C   UNK N   1      20.276  17.727   3.707  0.00  0.00     0.191 C 
HETATM    2  C   UNK N   1      20.324  18.103   2.222  0.00  0.00     0.183 C 
HETATM    3  C   UNK N   1      20.434  19.615   2.045  0.00  0.00     0.204 C 
HETATM    4  C   UNK N   1      21.605  20.103   2.899  0.00  0.00     0.289 C 
HETATM    5  O   UNK N   1      21.335  19.825   4.249  0.00  0.00    -0.340 OA
HETATM    6  C   UNK N   1      21.446  18.428   4.427  0.00  0.00     0.253 C 
ENDROOT
BRANCH   6   7
HETATM    7  C   UNK N   1      21.491  18.119   5.905  0.00  0.00     0.172 C 
HETATM    8  O   UNK N   1      21.038  18.905   6.715  0.00  0.00    -0.648 OA
BRANCH   7   9
HETATM    9  O   UNK N   1      22.065  16.976   6.339  0.00  0.00    -0.774 OA
HETATM   10  H   UNK N   1      21.893  16.138   5.956  0.00  0.00     0.167 HD
ENDBRANCH   7   9
ENDBRANCH   6   7
BRANCH   1  11
HETATM   11  O   UNK N   1      20.393  16.336   3.823  0.00  0.00    -0.385 OA
HETATM   12  C   UNK N   1      19.240  15.925   4.494  0.00  0.00     0.202 C 
ENDBRANCH   1  11
BRANCH   4  13
HETATM   13  O   UNK N   1      21.768  21.479   2.741  0.00  0.00    -0.368 OA
HETATM   14  H   UNK N   1      21.355  21.969   2.011  0.00  0.00     0.212 HD
ENDBRANCH   4  13
BRANCH   2  15
HETATM   15  O   UNK N   1      19.198  17.618   1.557  0.00  0.00    -0.390 OA
HETATM   16  H   UNK N   1      18.868  16.706   1.584  0.00  0.00     0.210 HD
ENDBRANCH   2  15
BRANCH   3  17
HETATM   17  O   UNK N   1      20.665  19.913   0.701  0.00  0.00    -0.388 OA
HETATM   18  H   UNK N   1      20.997  19.273   0.051  0.00  0.00     0.210 HD
ENDBRANCH   3  17
TORSDOF 6
ENDMDL
MODEL 2
REMARK VINA RESULT:      -5.5     13.141     15.218
REMARK  6 active torsions:
REMARK  status: ('A' for Active; 'I' for Inactive)
REMARK    1  A    between atoms: C_3  and  O_2 
REMARK    2  A    between atoms: C_4  and  O_5 
REMARK    3  A    between atoms: C_6  and  O_7 
REMARK    4  A    between atoms: C_8  and  O_9 
REMARK    5  A    between atoms: C_11  and  C_12 
REMARK    6  A    between atoms: C_12  and  O_13 
ROOT
HETATM    1  C   UNK N   1      33.518  16.061   8.781  0.00  0.00     0.191 C 
HETATM    2  C   UNK N   1      33.215  15.109   9.943  0.00  0.00     0.183 C 
HETATM    3  C   UNK N   1      34.496  14.713  10.673  0.00  0.00     0.204 C 
HETATM    4  C   UNK N   1      35.245  15.996  11.035  0.00  0.00     0.289 C 
HETATM    5  O   UNK N   1      35.590  16.675   9.854  0.00  0.00    -0.340 OA
HETATM    6  C   UNK N   1      34.402  17.210   9.308  0.00  0.00     0.253 C 
ENDROOT
BRANCH   6   7
HETATM    7  C   UNK N   1      34.758  18.212   8.235  0.00  0.00     0.172 C 
HETATM    8  O   UNK N   1      35.265  19.277   8.527  0.00  0.00    -0.648 OA
BRANCH   7   9
HETATM    9  O   UNK N   1      34.486  17.940   6.940  0.00  0.00    -0.774 OA
HETATM   10  H   UNK N   1      33.706  18.230   6.508  0.00  0.00     0.167 HD
ENDBRANCH   7   9
ENDBRANCH   6   7
BRANCH   1  11
HETATM   11  O   UNK N   1      32.309  16.562   8.283  0.00  0.00    -0.385 OA
HETATM   12  C   UNK N   1      32.062  15.834   7.117  0.00  0.00     0.202 C 
ENDBRANCH   1  11
BRANCH   4  13
HETATM   13  O   UNK N   1      36.409  15.685  11.738  0.00  0.00    -0.368 OA
HETATM   14  H   UNK N   1      37.288  15.964  11.434  0.00  0.00     0.212 HD
ENDBRANCH   4  13
BRANCH   2  15
HETATM   15  O   UNK N   1      32.548  13.973   9.485  0.00  0.00    -0.390 OA
HETATM   16  H   UNK N   1      31.596  13.899   9.318  0.00  0.00     0.210 HD
ENDBRANCH   2  15
BRANCH   3  17
HETATM   17  O   UNK N   1      34.174  14.004  11.832  0.00  0.00    -0.388 OA
HETATM   18  H   UNK N   1      33.275  13.725  12.067  0.00  0.00     0.210 HD
ENDBRANCH   3  17
TORSDOF 6
ENDMDL
MODEL 3
REMARK VINA RESULT:      -5.4      1.680      3.847
REMARK  6 active torsions:
REMARK  status: ('A' for Active; 'I' for Inactive)
REMARK    1  A    between atoms: C_3  and  O_2 
REMARK    2  A    between atoms: C_4  and  O_5 
REMARK    3  A    between atoms: C_6  and  O_7 
REMARK    4  A    between atoms: C_8  and  O_9 
REMARK    5  A    between atoms: C_11  and  C_12 
REMARK    6  A    between atoms: C_12  and  O_13 
ROOT
HETATM    1  C   UNK N   1      20.709  18.067   2.639  0.00  0.00     0.191 C 
HETATM    2  C   UNK N   1      20.878  19.473   3.225  0.00  0.00     0.183 C 
HETATM    3  C   UNK N   1      21.495  20.421   2.200  0.00  0.00     0.204 C 
HETATM    4  C   UNK N   1      20.670  20.324   0.916  0.00  0.00     0.289 C 
HETATM    5  O   UNK N   1      20.746  19.012   0.420  0.00  0.00    -0.340 OA
HETATM    6  C   UNK N   1      19.988  18.187   1.282  0.00  0.00     0.253 C 
ENDROOT
BRANCH   6   7
HETATM    7  C   UNK N   1      19.768  16.848   0.617  0.00  0.00     0.172 C 
HETATM    8  O   UNK N   1      20.684  16.057   0.500  0.00  0.00    -0.648 OA
BRANCH   7   9
HETATM    9  O   UNK N   1      18.553  16.533   0.119  0.00  0.00    -0.774 OA
HETATM   10  H   UNK N   1      17.914  17.176  -0.118  0.00  0.00     0.167 HD
ENDBRANCH   7   9
ENDBRANCH   6   7
BRANCH   1  11
HETATM   11  O   UNK N   1      19.950  17.297   3.530  0.00  0.00    -0.385 OA
HETATM   12  C   UNK N   1      20.818  16.304   3.988  0.00  0.00     0.202 C 
ENDBRANCH   1  11
BRANCH   4  13
HETATM   13  O   UNK N   1      21.176  21.203  -0.042  0.00  0.00    -0.368 OA
HETATM   14  H   UNK N   1      22.128  21.301  -0.202  0.00  0.00     0.212 HD
ENDBRANCH   4  13
BRANCH   2  15
HETATM   15  O   UNK N   1      21.661  19.432   4.379  0.00  0.00    -0.390 OA
HETATM   16  H   UNK N   1      22.625  19.526   4.419  0.00  0.00     0.210 HD
ENDBRANCH   2  15
BRANCH   3  17
HETATM   17  O   UNK N   1      21.463  21.727   2.692  0.00  0.00    -0.388 OA
HETATM   18  H   UNK N   1      20.852  22.035   3.380  0.00  0.00     0.210 HD
ENDBRANCH   3  17
TORSDOF 6
ENDMDL
MODEL 4
REMARK VINA RESULT:      -5.1     12.418     14.155
REMARK  6 active torsions:
REMARK  status: ('A' for Active; 'I' for Inactive)
REMARK    1  A    between atoms: C_3  and  O_2 
REMARK    2  A    between atoms: C_4  and  O_5 
REMARK    3  A    between atoms: C_6  and  O_7 
REMARK    4  A    between atoms: C_8  and  O_9 
REMARK    5  A    between atoms: C_11  and  C_12 
REMARK    6  A    between atoms: C_12  and  O_13 
ROOT
HETATM    1  C   UNK N   1      33.768  15.680   7.161  0.00  0.00     0.191 C 
HETATM    2  C   UNK N   1      33.846  15.875   8.679  0.00  0.00     0.183 C 
HETATM    3  C   UNK N   1      34.835  16.980   9.038  0.00  0.00     0.204 C 
HETATM    4  C   UNK N   1      34.469  18.220   8.222  0.00  0.00     0.289 C 
HETATM    5  O   UNK N   1      34.601  17.924   6.855  0.00  0.00    -0.340 OA
HETATM    6  C   UNK N   1      33.542  17.057   6.503  0.00  0.00     0.253 C 
ENDROOT
BRANCH   6   7
HETATM    7  C   UNK N   1      33.447  16.976   4.998  0.00  0.00     0.172 C 
HETATM    8  O   UNK N   1      32.974  17.895   4.357  0.00  0.00    -0.648 OA
BRANCH   7   9
HETATM    9  O   UNK N   1      33.863  15.864   4.354  0.00  0.00    -0.774 OA
HETATM   10  H   UNK N   1      34.425  15.885   3.604  0.00  0.00     0.167 HD
ENDBRANCH   7   9
ENDBRANCH   6   7
BRANCH   1  11
HETATM   11  O   UNK N   1      32.703  14.819   6.872  0.00  0.00    -0.385 OA
HETATM   12  C   UNK N   1      31.568  15.457   7.375  0.00  0.00     0.202 C 
ENDBRANCH   1  11
BRANCH   4  13
HETATM   13  O   UNK N   1      35.327  19.272   8.544  0.00  0.00    -0.368 OA
HETATM   14  H   UNK N   1      36.264  19.130   8.754  0.00  0.00     0.212 HD
ENDBRANCH   4  13
BRANCH   2  15
HETATM   15  O   UNK N   1      34.204  14.681   9.308  0.00  0.00    -0.390 OA
HETATM   16  H   UNK N   1      33.620  14.121   9.842  0.00  0.00     0.210 HD
ENDBRANCH   2  15
BRANCH   3  17
HETATM   17  O   UNK N   1      34.747  17.262  10.403  0.00  0.00    -0.388 OA
HETATM   18  H   UNK N   1      34.822  16.594  11.102  0.00  0.00     0.210 HD
ENDBRANCH   3  17
TORSDOF 6
ENDMDL
MODEL 5
REMARK VINA RESULT:      -5.0     13.480     14.729
REMARK  6 active torsions:
REMARK  status: ('A' for Active; 'I' for Inactive)
REMARK    1  A    between atoms: C_3  and  O_2 
REMARK    2  A    between atoms: C_4  and  O_5 
REMARK    3  A    between atoms: C_6  and  O_7 
REMARK    4  A    between atoms: C_8  and  O_9 
REMARK    5  A    between atoms: C_11  and  C_12 
REMARK    6  A    between atoms: C_12  and  O_13 
ROOT
HETATM    1  C   UNK N   1      33.809  15.311   8.691  0.00  0.00     0.191 C 
HETATM    2  C   UNK N   1      33.951  15.908   7.286  0.00  0.00     0.183 C 
HETATM    3  C   UNK N   1      33.879  17.431   7.329  0.00  0.00     0.204 C 
HETATM    4  C   UNK N   1      34.888  17.919   8.369  0.00  0.00     0.289 C 
HETATM    5  O   UNK N   1      34.528  17.414   9.630  0.00  0.00    -0.340 OA
HETATM    6  C   UNK N   1      34.802  16.028   9.628  0.00  0.00     0.253 C 
ENDROOT
BRANCH   6   7
HETATM    7  C   UNK N   1      34.744  15.510  11.046  0.00  0.00     0.172 C 
HETATM    8  O   UNK N   1      35.665  15.707  11.814  0.00  0.00    -0.648 OA
BRANCH   7   9
HETATM    9  O   UNK N   1      33.676  14.796  11.460  0.00  0.00    -0.774 OA
HETATM   10  H   UNK N   1      32.827  15.171  11.592  0.00  0.00     0.167 HD
ENDBRANCH   7   9
ENDBRANCH   6   7
BRANCH   1  11
HETATM   11  O   UNK N   1      34.095  13.942   8.629  0.00  0.00    -0.385 OA
HETATM   12  C   UNK N   1      35.386  13.860   8.102  0.00  0.00     0.202 C 
ENDBRANCH   1  11
BRANCH   4  13
HETATM   13  O   UNK N   1      34.884  19.313   8.419  0.00  0.00    -0.368 OA
HETATM   14  H   UNK N   1      35.469  19.812   9.012  0.00  0.00     0.212 HD
ENDBRANCH   4  13
BRANCH   2  15
HETATM   15  O   UNK N   1      32.967  15.400   6.437  0.00  0.00    -0.390 OA
HETATM   16  H   UNK N   1      32.164  14.930   6.711  0.00  0.00     0.210 HD
ENDBRANCH   2  15
BRANCH   3  17
HETATM   17  O   UNK N   1      34.198  17.951   6.073  0.00  0.00    -0.388 OA
HETATM   18  H   UNK N   1      34.684  17.463   5.390  0.00  0.00     0.210 HD
ENDBRANCH   3  17
TORSDOF 6
ENDMDL
MODEL 6
REMARK VINA RESULT:      -4.9     13.536     14.693
REMARK  6 active torsions:
REMARK  status: ('A' for Active; 'I' for Inactive)
REMARK    1  A    between atoms: C_3  and  O_2 
REMARK    2  A    between atoms: C_4  and  O_5 
REMARK    3  A    between atoms: C_6  and  O_7 
REMARK    4  A    between atoms: C_8  and  O_9 
REMARK    5  A    between atoms: C_11  and  C_12 
REMARK    6  A    between atoms: C_12  and  O_13 
ROOT
HETATM    1  C   UNK N   1      34.301  15.600   9.452  0.00  0.00     0.191 C 
HETATM    2  C   UNK N   1      34.556  17.106   9.581  0.00  0.00     0.183 C 
HETATM    3  C   UNK N   1      34.880  17.724   8.225  0.00  0.00     0.204 C 
HETATM    4  C   UNK N   1      33.779  17.312   7.247  0.00  0.00     0.289 C 
HETATM    5  O   UNK N   1      33.780  15.914   7.117  0.00  0.00    -0.340 OA
HETATM    6  C   UNK N   1      33.276  15.374   8.322  0.00  0.00     0.253 C 
ENDROOT
BRANCH   6   7
HETATM    7  C   UNK N   1      32.951  13.913   8.112  0.00  0.00     0.172 C 
HETATM    8  O   UNK N   1      33.261  13.353   7.078  0.00  0.00    -0.648 OA
BRANCH   7   9
HETATM    9  O   UNK N   1      32.284  13.227   9.064  0.00  0.00    -0.774 OA
HETATM   10  H   UNK N   1      31.984  13.616   9.862  0.00  0.00     0.167 HD
ENDBRANCH   7   9
ENDBRANCH   6   7
BRANCH   1  11
HETATM   11  O   UNK N   1      33.801  15.122  10.669  0.00  0.00    -0.385 OA
HETATM   12  C   UNK N   1      34.803  14.294  11.178  0.00  0.00     0.202 C 
ENDBRANCH   1  11
BRANCH   4  13
HETATM   13  O   UNK N   1      34.015  17.886   5.997  0.00  0.00    -0.368 OA
HETATM   14  H   UNK N   1      33.870  17.400   5.169  0.00  0.00     0.212 HD
ENDBRANCH   4  13
BRANCH   2  15
HETATM   15  O   UNK N   1      35.590  17.351  10.486  0.00  0.00    -0.390 OA
HETATM   16  H   UNK N   1      36.399  17.854  10.304  0.00  0.00     0.210 HD
ENDBRANCH   2  15
BRANCH   3  17
HETATM   17  O   UNK N   1      34.922  19.114   8.341  0.00  0.00    -0.388 OA
HETATM   18  H   UNK N   1      35.484  19.689   7.798  0.00  0.00     0.210 HD
ENDBRANCH   3  17
TORSDOF 6
ENDMDL
MODEL 7
REMARK VINA RESULT:      -4.6     21.587     22.976
REMARK  6 active torsions:
REMARK  status: ('A' for Active; 'I' for Inactive)
REMARK    1  A    between atoms: C_3  and  O_2 
REMARK    2  A    between atoms: C_4  and  O_5 
REMARK    3  A    between atoms: C_6  and  O_7 
REMARK    4  A    between atoms: C_8  and  O_9 
REMARK    5  A    between atoms: C_11  and  C_12 
REMARK    6  A    between atoms: C_12  and  O_13 
ROOT
HETATM    1  C   UNK N   1      42.409  22.546   2.761  0.00  0.00     0.191 C 
HETATM    2  C   UNK N   1      43.771  23.031   3.271  0.00  0.00     0.183 C 
HETATM    3  C   UNK N   1      44.549  21.891   3.921  0.00  0.00     0.204 C 
HETATM    4  C   UNK N   1      44.580  20.722   2.935  0.00  0.00     0.289 C 
HETATM    5  O   UNK N   1      43.265  20.291   2.694  0.00  0.00    -0.340 OA
HETATM    6  C   UNK N   1      42.630  21.280   1.909  0.00  0.00     0.253 C 
ENDROOT
BRANCH   6   7
HETATM    7  C   UNK N   1      41.342  20.719   1.352  0.00  0.00     0.172 C 
HETATM    8  O   UNK N   1      41.362  19.824   0.530  0.00  0.00    -0.648 OA
BRANCH   7   9
HETATM    9  O   UNK N   1      40.157  21.232   1.746  0.00  0.00    -0.774 OA
HETATM   10  H   UNK N   1      39.458  20.708   2.086  0.00  0.00     0.167 HD
ENDBRANCH   7   9
ENDBRANCH   6   7
BRANCH   1  11
HETATM   11  O   UNK N   1      41.831  23.561   1.989  0.00  0.00    -0.385 OA
HETATM   12  C   UNK N   1      42.720  23.772   0.934  0.00  0.00     0.202 C 
ENDBRANCH   1  11
BRANCH   4  13
HETATM   13  O   UNK N   1      45.314  19.665   3.474  0.00  0.00    -0.368 OA
HETATM   14  H   UNK N   1      44.975  19.116   4.199  0.00  0.00     0.212 HD
ENDBRANCH   4  13
BRANCH   2  15
HETATM   15  O   UNK N   1      43.610  24.084   4.172  0.00  0.00    -0.390 OA
HETATM   16  H   UNK N   1      43.895  25.001   4.036  0.00  0.00     0.210 HD
ENDBRANCH   2  15
BRANCH   3  17
HETATM   17  O   UNK N   1      45.849  22.313   4.204  0.00  0.00    -0.388 OA
HETATM   18  H   UNK N   1      46.540  21.738   4.570  0.00  0.00     0.210 HD
ENDBRANCH   3  17
TORSDOF 6
ENDMDL
MODEL 8
REMARK VINA RESULT:      -4.6     21.400     22.601
REMARK  6 active torsions:
REMARK  status: ('A' for Active; 'I' for Inactive)
REMARK    1  A    between atoms: C_3  and  O_2 
REMARK    2  A    between atoms: C_4  and  O_5 
REMARK    3  A    between atoms: C_6  and  O_7 
REMARK    4  A    between atoms: C_8  and  O_9 
REMARK    5  A    between atoms: C_11  and  C_12 
REMARK    6  A    between atoms: C_12  and  O_13 
ROOT
HETATM    1  C   UNK N   1      43.068  20.626   2.167  0.00  0.00     0.191 C 
HETATM    2  C   UNK N   1      44.349  20.761   2.998  0.00  0.00     0.183 C 
HETATM    3  C   UNK N   1      44.695  22.228   3.233  0.00  0.00     0.204 C 
HETATM    4  C   UNK N   1      43.453  22.918   3.799  0.00  0.00     0.289 C 
HETATM    5  O   UNK N   1      42.417  22.845   2.854  0.00  0.00    -0.340 OA
HETATM    6  C   UNK N   1      41.975  21.504   2.810  0.00  0.00     0.253 C 
ENDROOT
BRANCH   6   7
HETATM    7  C   UNK N   1      40.662  21.441   2.064  0.00  0.00     0.172 C 
HETATM    8  O   UNK N   1      40.487  22.104   1.061  0.00  0.00    -0.648 OA
BRANCH   7   9
HETATM    9  O   UNK N   1      39.659  20.665   2.529  0.00  0.00    -0.774 OA
HETATM   10  H   UNK N   1      39.381  20.667   3.425  0.00  0.00     0.167 HD
ENDBRANCH   7   9
ENDBRANCH   6   7
BRANCH   1  11
HETATM   11  O   UNK N   1      42.675  19.282   2.162  0.00  0.00    -0.385 OA
HETATM   12  C   UNK N   1      42.686  18.902   0.818  0.00  0.00     0.202 C 
ENDBRANCH   1  11
BRANCH   4  13
HETATM   13  O   UNK N   1      43.734  24.259   4.065  0.00  0.00    -0.368 OA
HETATM   14  H   UNK N   1      43.222  24.778   4.706  0.00  0.00     0.212 HD
ENDBRANCH   4  13
BRANCH   2  15
HETATM   15  O   UNK N   1      45.410  20.107   2.371  0.00  0.00    -0.390 OA
HETATM   16  H   UNK N   1      45.765  19.237   2.610  0.00  0.00     0.210 HD
ENDBRANCH   2  15
BRANCH   3  17
HETATM   17  O   UNK N   1      45.750  22.320   4.143  0.00  0.00    -0.388 OA
HETATM   18  H   UNK N   1      45.716  21.982   5.051  0.00  0.00     0.210 HD
ENDBRANCH   3  17
TORSDOF 6
ENDMDL
MODEL 9
REMARK VINA RESULT:      -4.6     12.548     14.383
REMARK  6 active torsions:
REMARK  status: ('A' for Active; 'I' for Inactive)
REMARK    1  A    between atoms: C_3  and  O_2 
REMARK    2  A    between atoms: C_4  and  O_5 
REMARK    3  A    between atoms: C_6  and  O_7 
REMARK    4  A    between atoms: C_8  and  O_9 
REMARK    5  A    between atoms: C_11  and  C_12 
REMARK    6  A    between atoms: C_12  and  O_13 
ROOT
HETATM    1  C   UNK N   1      33.725  16.574   7.131  0.00  0.00     0.191 C 
HETATM    2  C   UNK N   1      34.606  17.194   8.222  0.00  0.00     0.183 C 
HETATM    3  C   UNK N   1      34.065  16.869   9.611  0.00  0.00     0.204 C 
HETATM    4  C   UNK N   1      33.863  15.356   9.693  0.00  0.00     0.289 C 
HETATM    5  O   UNK N   1      32.911  14.967   8.736  0.00  0.00    -0.340 OA
HETATM    6  C   UNK N   1      33.514  15.083   7.464  0.00  0.00     0.253 C 
ENDROOT
BRANCH   6   7
HETATM    7  C   UNK N   1      32.656  14.372   6.443  0.00  0.00     0.172 C 
HETATM    8  O   UNK N   1      31.477  14.172   6.658  0.00  0.00    -0.648 OA
BRANCH   7   9
HETATM    9  O   UNK N   1      33.206  13.927   5.293  0.00  0.00    -0.774 OA
HETATM   10  H   UNK N   1      33.035  14.317   4.458  0.00  0.00     0.167 HD
ENDBRANCH   7   9
ENDBRANCH   6   7
BRANCH   1  11
HETATM   11  O   UNK N   1      34.373  16.712   5.897  0.00  0.00    -0.385 OA
HETATM   12  C   UNK N   1      33.490  17.442   5.099  0.00  0.00     0.202 C 
ENDBRANCH   1  11
BRANCH   4  13
HETATM   13  O   UNK N   1      33.401  15.006  10.963  0.00  0.00    -0.368 OA
HETATM   14  H   UNK N   1      32.505  15.223  11.266  0.00  0.00     0.212 HD
ENDBRANCH   4  13
BRANCH   2  15
HETATM   15  O   UNK N   1      34.699  18.576   8.049  0.00  0.00    -0.390 OA
HETATM   16  H   UNK N   1      35.511  19.103   8.094  0.00  0.00     0.210 HD
ENDBRANCH   2  15
BRANCH   3  17
HETATM   17  O   UNK N   1      34.982  17.283  10.579  0.00  0.00    -0.388 OA
HETATM   18  H   UNK N   1      35.760  17.832  10.392  0.00  0.00     0.210 HD
ENDBRANCH   3  17
TORSDOF 6
ENDMDL
