REMARK  9 active torsions:
REMARK  status: ('A' for Active; 'I' for Inactive)
REMARK    1  A    between atoms: C_5  and  C_2 
REMARK    2  A    between atoms: O_24  and  C_2 
REMARK    3  A    between atoms: C_6  and  O_18 
REMARK    4  A    between atoms: C_7  and  O_19 
REMARK    5  A    between atoms: C_9  and  N_17 
REMARK    6  A    between atoms: O_20  and  C_10 
REMARK    7  A    between atoms: P_26  and  O_21 
REMARK    8  A    between atoms: P_26  and  O_22 
REMARK    9  A    between atoms: P_26  and  O_24 
ROOT
HETATM    1  C   UNK N   1       0.263   2.842  -0.430  0.00  0.00     0.180 C 
HETATM    2  C   UNK N   1      -1.058   2.508   0.260  0.00  0.00     0.182 C 
HETATM    3  C   UNK N   1      -1.145   0.987   0.082  0.00  0.00     0.198 C 
HETATM    4  C   UNK N   1       0.215   0.658  -0.552  0.00  0.00     0.261 C 
HETATM    5  O   UNK N   1       1.081   1.717  -0.199  0.00  0.00    -0.353 OA
ENDROOT
BRANCH   4   6
HETATM    6  N   UNK N   1       0.767  -0.658  -0.202  0.00  0.00    -0.308 N 
HETATM    7  C   UNK N   1       0.079  -1.812   0.016  0.00  0.00     0.187 A 
HETATM    8  N   UNK N   1       0.922  -2.868   0.194  0.00  0.00    -0.336 N 
HETATM    9  C   UNK N   1       2.147  -2.336   0.052  0.00  0.00     0.138 A 
ATOM     10  HN  UNK N   1       0.678  -3.839   0.391  1.00  0.00     0.168 HD
HETATM   11  C   UNK N   1       2.060  -1.014  -0.192  0.00  0.00     0.098 A 
HETATM   12  N   UNK N   1       3.332  -2.989   0.097  0.00  0.00    -0.306 N 
HETATM   13  C   UNK N   1       3.204  -0.264  -0.414  0.00  0.00     0.125 A 
HETATM   14  N   UNK N   1       4.404  -0.914  -0.366  0.00  0.00    -0.330 N 
HETATM   15  C   UNK N   1       4.474  -2.264  -0.115  0.00  0.00     0.222 A 
ATOM     16  HN  UNK N   1       5.265  -0.389  -0.520  1.00  0.00     0.168 HD
ATOM     17  HN  UNK N   1       3.373  -3.991   0.282  1.00  0.00     0.171 HD
BRANCH  15  18
HETATM   18  O   UNK N   1       5.669  -2.875  -0.085  0.00  0.00    -0.332 OA
HETATM   19  H   UNK N   1       5.716  -3.811  -0.064  0.00  0.00     0.220 HD
ENDBRANCH  15  18
ENDBRANCH   4   6
BRANCH   3  20
HETATM   20  O   UNK N   1      -1.296   0.363   1.328  0.00  0.00    -0.388 OA
HETATM   21  H   UNK N   1      -1.722   0.237   2.191  0.00  0.00     0.210 HD
ENDBRANCH   3  20
BRANCH   2  22
HETATM   22  O   UNK N   1      -0.946   2.813   1.625  0.00  0.00    -0.390 OA
HETATM   23  H   UNK N   1      -0.724   2.851   2.569  0.00  0.00     0.210 HD
ENDBRANCH   2  22
BRANCH   1  24
HETATM   24  C   UNK N   1       0.856   4.156   0.087  0.00  0.00     0.215 C 
BRANCH  24  25
HETATM   25  O   UNK N   1       2.211   4.039   0.432  0.00  0.00    -0.294 OA
BRANCH  25  26
HETATM   26  P   UNK N   1       2.988   5.484  -0.162  0.00  0.00     0.390 P 
HETATM   27  O   UNK N   1       2.474   6.021   1.204  0.00  0.00    -0.632 OA
BRANCH  26  28
HETATM   28  O   UNK N   1       4.430   6.130   0.556  0.00  0.00    -0.307 OA
HETATM   29  H   UNK N   1       5.145   5.613   0.958  0.00  0.00     0.222 HD
ENDBRANCH  26  28
BRANCH  26  30
HETATM   30  O   UNK N   1       4.163   4.248   0.164  0.00  0.00    -0.307 OA
HETATM   31  H   UNK N   1       3.894   3.335   0.347  0.00  0.00     0.222 HD
ENDBRANCH  26  30
ENDBRANCH  25  26
ENDBRANCH  24  25
ENDBRANCH   1  24
TORSDOF 9
