REMARK  8 active torsions:
REMARK  status: ('A' for Active; 'I' for Inactive)
REMARK    1  A    between atoms: C_9  and  C_6 
REMARK    2  A    between atoms: C_14  and  C_6 
REMARK    3  A    between atoms: C_8  and  C_7 
REMARK    4  A    between atoms: N_19  and  C_7 
REMARK    5  A    between atoms: S_25  and  C_9 
REMARK    6  A    between atoms: C_11  and  C_10 
REMARK    7  A    between atoms: O_21  and  C_12 
REMARK    8  A    between atoms: C_15  and  C_14 
ROOT
HETATM    1  C   UNK N   1       3.134   5.648   0.271  0.00  0.00     0.046 C 
HETATM    2  C   UNK N   1       1.806   5.788   0.055  0.00  0.00     0.103 A 
HETATM    3  C   UNK N   1      -0.238   5.113  -0.372  0.00  0.00     0.158 A 
HETATM    4  C   UNK N   1       0.952   6.970  -0.112  0.00  0.00     0.276 A 
HETATM    5  N   UNK N   1       0.945   4.669  -0.103  0.00  0.00    -0.335 N 
ATOM      6  HN  UNK N   1       1.214   3.689  -0.018  1.00  0.00     0.168 HD
HETATM    7  N   UNK N   1      -0.286   6.536  -0.374  0.00  0.00    -0.289 N 
HETATM    8  O   UNK N   1       1.244   8.149   0.001  0.00  0.00    -0.265 OA
ENDROOT
BRANCH   1   9
HETATM    9  C   UNK N   1       4.152   6.734   0.309  0.00  0.00    -0.034 A 
HETATM   10  C   UNK N   1       5.473   6.409   0.653  0.00  0.00     0.014 A 
HETATM   11  C   UNK N   1       6.477   7.383   0.615  0.00  0.00     0.037 A 
HETATM   12  C   UNK N   1       6.171   8.687   0.214  0.00  0.00     0.065 A 
HETATM   13  C   UNK N   1       4.864   9.017  -0.137  0.00  0.00     0.037 A 
HETATM   14  C   UNK N   1       3.866   8.044  -0.091  0.00  0.00     0.014 A 
BRANCH  12  15
HETATM   15  O   UNK N   1       7.135   9.620   0.159  0.00  0.00    -0.361 OA
ATOM     16  HO  UNK N   1       6.927  10.505  -0.114  1.00  0.00     0.217 HD
ENDBRANCH  12  15
ENDBRANCH   1   9
BRANCH   7  17
HETATM   17  C   UNK N   1      -1.437   7.383  -0.582  0.00  0.00     0.203 C 
BRANCH  17  18
HETATM   18  C   UNK N   1      -2.128   7.636   0.717  0.00  0.00     0.251 C 
HETATM   19  O   UNK N   1      -2.272   8.779   1.120  0.00  0.00    -0.305 OA
ENDBRANCH  17  18
ENDBRANCH   7  17
BRANCH   3  20
HETATM   20  C   UNK N   1      -1.380   4.217  -0.667  0.00  0.00     0.194 C 
HETATM   21  O   UNK N   1      -1.235   3.005  -0.606  0.00  0.00    -0.289 OA
BRANCH  20  22
HETATM   22  C   UNK N   1      -2.698   4.776  -1.089  0.00  0.00     0.097 C 
BRANCH  22  23
HETATM   23  C   UNK N   1      -3.731   4.584   0.001  0.00  0.00     0.081 C 
BRANCH  23  24
HETATM   24  S   UNK N   1      -5.242   5.475  -0.453  0.00  0.00    -0.173 SA
HETATM   25  C   UNK N   1      -6.001   3.970  -1.120  0.00  0.00     0.089 C 
ENDBRANCH  23  24
ENDBRANCH  22  23
ENDBRANCH  20  22
ENDBRANCH   3  20
TORSDOF 8
