REMARK  0 active torsions:
REMARK  status: ('A' for Active; 'I' for Inactive)
REMARK       I    between atoms: C_2  and  N_3 
ROOT
HETATM    1  C   UNK N   1       1.753   1.344   0.000  0.00  0.00     0.117 C 
HETATM    2  C   UNK N   1       0.923   0.109   0.000  0.00  0.00     0.211 C 
HETATM    3  N   UNK N   1       1.517  -1.100   0.000  0.00  0.00    -0.370 N 
HETATM    4  O   UNK N   1      -0.293   0.191   0.000  0.00  0.00    -0.274 OA
HETATM    5  H   UNK N   1       0.970  -1.918   0.000  0.00  0.00     0.159 HD
HETATM    6  H   UNK N   1       2.500  -1.165   0.000  0.00  0.00     0.159 HD
ENDROOT
TORSDOF 0
