MODEL 1
REMARK VINA RESULT:      -4.6      0.000      0.000
REMARK  6 active torsions:
REMARK  status: ('A' for Active; 'I' for Inactive)
REMARK    1  A    between atoms: O_1  and  C_2 
REMARK    2  A    between atoms: C_2  and  C_4 
REMARK    3  A    between atoms: C_4  and  O_5 
REMARK    4  A    between atoms: O_5  and  P_6 
REMARK    5  A    between atoms: P_6  and  O_7 
REMARK    6  A    between atoms: P_6  and  O_8 
ROOT
HETATM    1  O   UNK N   1      35.443  17.350  10.316  0.00  0.00    -0.287 OA
ENDROOT
BRANCH   1   2
HETATM    2  C   UNK N   1      34.594  17.173   9.217  0.00  0.00     0.290 C 
BRANCH   2   3
HETATM    3  C   UNK N   1      34.781  18.286   8.241  0.00  0.00     0.165 C 
HETATM    4  O   UNK N   1      34.379  18.169   7.095  0.00  0.00    -0.648 OA
BRANCH   3   5
HETATM    5  O   UNK N   1      35.412  19.412   8.619  0.00  0.00    -0.775 OA
HETATM    6  H   UNK N   1      34.929  20.191   8.817  0.00  0.00     0.167 HD
ENDBRANCH   3   5
ENDBRANCH   2   3
ENDBRANCH   1   2
BRANCH   1   7
HETATM    7  P   UNK N   1      35.351  15.852  11.199  0.00  0.00     0.391 P 
HETATM    8  O   UNK N   1      34.535  15.519   9.920  0.00  0.00    -0.632 OA
BRANCH   7   9
HETATM    9  O   UNK N   1      36.118  14.423  10.583  0.00  0.00    -0.307 OA
HETATM   10  H   UNK N   1      36.752  13.831  11.018  0.00  0.00     0.222 HD
ENDBRANCH   7   9
BRANCH   7  11
HETATM   11  O   UNK N   1      37.007  16.177  10.783  0.00  0.00    -0.307 OA
HETATM   12  H   UNK N   1      37.670  16.697  11.264  0.00  0.00     0.222 HD
ENDBRANCH   7  11
ENDBRANCH   1   7
TORSDOF 6
ENDMDL
MODEL 2
REMARK VINA RESULT:      -4.4     16.158     16.976
REMARK  6 active torsions:
REMARK  status: ('A' for Active; 'I' for Inactive)
REMARK    1  A    between atoms: O_1  and  C_2 
REMARK    2  A    between atoms: C_2  and  C_4 
REMARK    3  A    between atoms: C_4  and  O_5 
REMARK    4  A    between atoms: O_5  and  P_6 
REMARK    5  A    between atoms: P_6  and  O_7 
REMARK    6  A    between atoms: P_6  and  O_8 
ROOT
HETATM    1  O   UNK N   1      19.987  19.482   2.171  0.00  0.00    -0.287 OA
ENDROOT
BRANCH   1   2
HETATM    2  C   UNK N   1      19.998  18.108   2.439  0.00  0.00     0.290 C 
BRANCH   2   3
HETATM    3  C   UNK N   1      20.198  17.341   1.175  0.00  0.00     0.165 C 
HETATM    4  O   UNK N   1      20.277  16.124   1.203  0.00  0.00    -0.648 OA
BRANCH   3   5
HETATM    5  O   UNK N   1      20.313  17.994   0.004  0.00  0.00    -0.775 OA
HETATM    6  H   UNK N   1      20.907  17.695  -0.657  0.00  0.00     0.167 HD
ENDBRANCH   3   5
ENDBRANCH   2   3
ENDBRANCH   1   2
BRANCH   1   7
HETATM    7  P   UNK N   1      21.559  20.047   2.663  0.00  0.00     0.391 P 
HETATM    8  O   UNK N   1      21.441  20.638   1.232  0.00  0.00    -0.632 OA
BRANCH   7   9
HETATM    9  O   UNK N   1      21.849  21.742   2.894  0.00  0.00    -0.307 OA
HETATM   10  H   UNK N   1      22.332  22.363   2.328  0.00  0.00     0.222 HD
ENDBRANCH   7   9
BRANCH   7  11
HETATM   11  O   UNK N   1      20.347  20.739   3.698  0.00  0.00    -0.307 OA
HETATM   12  H   UNK N   1      20.278  21.644   4.043  0.00  0.00     0.222 HD
ENDBRANCH   7  11
ENDBRANCH   1   7
TORSDOF 6
ENDMDL
MODEL 3
REMARK VINA RESULT:      -4.3      1.506      2.355
REMARK  6 active torsions:
REMARK  status: ('A' for Active; 'I' for Inactive)
REMARK    1  A    between atoms: O_1  and  C_2 
REMARK    2  A    between atoms: C_2  and  C_4 
REMARK    3  A    between atoms: C_4  and  O_5 
REMARK    4  A    between atoms: O_5  and  P_6 
REMARK    5  A    between atoms: P_6  and  O_7 
REMARK    6  A    between atoms: P_6  and  O_8 
ROOT
HETATM    1  O   UNK N   1      33.764  16.043   8.305  0.00  0.00    -0.287 OA
ENDROOT
BRANCH   1   2
HETATM    2  C   UNK N   1      34.268  17.118   9.047  0.00  0.00     0.290 C 
BRANCH   2   3
HETATM    3  C   UNK N   1      34.663  18.229   8.133  0.00  0.00     0.165 C 
HETATM    4  O   UNK N   1      34.392  18.171   6.944  0.00  0.00    -0.648 OA
BRANCH   3   5
HETATM    5  O   UNK N   1      35.336  19.289   8.617  0.00  0.00    -0.775 OA
HETATM    6  H   UNK N   1      35.383  20.091   8.132  0.00  0.00     0.167 HD
ENDBRANCH   3   5
ENDBRANCH   2   3
ENDBRANCH   1   2
BRANCH   1   7
HETATM    7  P   UNK N   1      33.598  14.744   9.453  0.00  0.00     0.391 P 
HETATM    8  O   UNK N   1      34.867  15.472   9.975  0.00  0.00    -0.632 OA
BRANCH   7   9
HETATM    9  O   UNK N   1      33.223  15.084  11.112  0.00  0.00    -0.307 OA
HETATM   10  H   UNK N   1      33.451  14.579  11.909  0.00  0.00     0.222 HD
ENDBRANCH   7   9
BRANCH   7  11
HETATM   11  O   UNK N   1      32.218  15.794   9.566  0.00  0.00    -0.307 OA
HETATM   12  H   UNK N   1      31.433  15.839   8.998  0.00  0.00     0.222 HD
ENDBRANCH   7  11
ENDBRANCH   1   7
TORSDOF 6
ENDMDL
MODEL 4
REMARK VINA RESULT:      -4.2      1.863      3.961
REMARK  6 active torsions:
REMARK  status: ('A' for Active; 'I' for Inactive)
REMARK    1  A    between atoms: O_1  and  C_2 
REMARK    2  A    between atoms: C_2  and  C_4 
REMARK    3  A    between atoms: C_4  and  O_5 
REMARK    4  A    between atoms: O_5  and  P_6 
REMARK    5  A    between atoms: P_6  and  O_7 
REMARK    6  A    between atoms: P_6  and  O_8 
ROOT
HETATM    1  O   UNK N   1      34.868  17.591   9.673  0.00  0.00    -0.287 OA
ENDROOT
BRANCH   1   2
HETATM    2  C   UNK N   1      34.985  16.196   9.675  0.00  0.00     0.290 C 
BRANCH   2   3
HETATM    3  C   UNK N   1      35.797  15.752  10.844  0.00  0.00     0.165 C 
HETATM    4  O   UNK N   1      35.264  15.165  11.772  0.00  0.00    -0.648 OA
BRANCH   3   5
HETATM    5  O   UNK N   1      37.116  16.016  10.886  0.00  0.00    -0.775 OA
HETATM    6  H   UNK N   1      37.628  15.787  11.637  0.00  0.00     0.167 HD
ENDBRANCH   3   5
ENDBRANCH   2   3
ENDBRANCH   1   2
BRANCH   1   7
HETATM    7  P   UNK N   1      33.914  17.959   8.263  0.00  0.00     0.391 P 
HETATM    8  O   UNK N   1      34.910  19.151   8.296  0.00  0.00    -0.632 OA
BRANCH   7   9
HETATM    9  O   UNK N   1      34.636  17.934   6.686  0.00  0.00    -0.307 OA
HETATM   10  H   UNK N   1      34.496  18.536   5.938  0.00  0.00     0.222 HD
ENDBRANCH   7   9
BRANCH   7  11
HETATM   11  O   UNK N   1      34.773  16.471   8.007  0.00  0.00    -0.307 OA
HETATM   12  H   UNK N   1      34.452  15.633   7.636  0.00  0.00     0.222 HD
ENDBRANCH   7  11
ENDBRANCH   1   7
TORSDOF 6
ENDMDL
MODEL 5
REMARK VINA RESULT:      -4.2     13.925     15.500
REMARK  6 active torsions:
REMARK  status: ('A' for Active; 'I' for Inactive)
REMARK    1  A    between atoms: O_1  and  C_2 
REMARK    2  A    between atoms: C_2  and  C_4 
REMARK    3  A    between atoms: C_4  and  O_5 
REMARK    4  A    between atoms: O_5  and  P_6 
REMARK    5  A    between atoms: P_6  and  O_7 
REMARK    6  A    between atoms: P_6  and  O_8 
ROOT
HETATM    1  O   UNK N   1      21.980  19.563   4.028  0.00  0.00    -0.287 OA
ENDROOT
BRANCH   1   2
HETATM    2  C   UNK N   1      21.176  18.561   4.583  0.00  0.00     0.290 C 
BRANCH   2   3
HETATM    3  C   UNK N   1      21.625  18.254   5.972  0.00  0.00     0.165 C 
HETATM    4  O   UNK N   1      21.059  18.764   6.925  0.00  0.00    -0.648 OA
BRANCH   3   5
HETATM    5  O   UNK N   1      22.669  17.429   6.173  0.00  0.00    -0.775 OA
HETATM    6  H   UNK N   1      22.543  16.574   6.537  0.00  0.00     0.167 HD
ENDBRANCH   3   5
ENDBRANCH   2   3
ENDBRANCH   1   2
BRANCH   1   7
HETATM    7  P   UNK N   1      21.124  20.090   2.606  0.00  0.00     0.391 P 
HETATM    8  O   UNK N   1      20.290  20.743   3.743  0.00  0.00    -0.632 OA
BRANCH   7   9
HETATM    9  O   UNK N   1      21.090  21.771   2.177  0.00  0.00    -0.307 OA
HETATM   10  H   UNK N   1      20.734  22.524   2.675  0.00  0.00     0.222 HD
ENDBRANCH   7   9
BRANCH   7  11
HETATM   11  O   UNK N   1      22.731  20.751   2.591  0.00  0.00    -0.307 OA
HETATM   12  H   UNK N   1      23.041  21.605   2.249  0.00  0.00     0.222 HD
ENDBRANCH   7  11
ENDBRANCH   1   7
TORSDOF 6
ENDMDL
MODEL 6
REMARK VINA RESULT:      -4.1     15.436     16.140
REMARK  6 active torsions:
REMARK  status: ('A' for Active; 'I' for Inactive)
REMARK    1  A    between atoms: O_1  and  C_2 
REMARK    2  A    between atoms: C_2  and  C_4 
REMARK    3  A    between atoms: C_4  and  O_5 
REMARK    4  A    between atoms: O_5  and  P_6 
REMARK    5  A    between atoms: P_6  and  O_7 
REMARK    6  A    between atoms: P_6  and  O_8 
ROOT
HETATM    1  O   UNK N   1      19.203  14.788   9.410  0.00  0.00    -0.287 OA
ENDROOT
BRANCH   1   2
HETATM    2  C   UNK N   1      19.413  16.074   8.896  0.00  0.00     0.290 C 
BRANCH   2   3
HETATM    3  C   UNK N   1      18.203  16.918   9.119  0.00  0.00     0.165 C 
HETATM    4  O   UNK N   1      17.089  16.434   9.003  0.00  0.00    -0.648 OA
BRANCH   3   5
HETATM    5  O   UNK N   1      18.340  18.221   9.427  0.00  0.00    -0.775 OA
HETATM    6  H   UNK N   1      17.968  18.570  10.213  0.00  0.00     0.167 HD
ENDBRANCH   3   5
ENDBRANCH   2   3
ENDBRANCH   1   2
BRANCH   1   7
HETATM    7  P   UNK N   1      20.788  14.073   9.491  0.00  0.00     0.391 P 
HETATM    8  O   UNK N   1      19.960  13.115  10.390  0.00  0.00    -0.632 OA
BRANCH   7   9
HETATM    9  O   UNK N   1      21.080  12.508   8.801  0.00  0.00    -0.307 OA
HETATM   10  H   UNK N   1      21.920  12.101   8.537  0.00  0.00     0.222 HD
ENDBRANCH   7   9
BRANCH   7  11
HETATM   11  O   UNK N   1      20.208  14.008   7.854  0.00  0.00    -0.307 OA
HETATM   12  H   UNK N   1      20.059  14.732   7.226  0.00  0.00     0.222 HD
ENDBRANCH   7  11
ENDBRANCH   1   7
TORSDOF 6
ENDMDL
MODEL 7
REMARK VINA RESULT:      -4.0     15.974     16.807
REMARK  6 active torsions:
REMARK  status: ('A' for Active; 'I' for Inactive)
REMARK    1  A    between atoms: O_1  and  C_2 
REMARK    2  A    between atoms: C_2  and  C_4 
REMARK    3  A    between atoms: C_4  and  O_5 
REMARK    4  A    between atoms: O_5  and  P_6 
REMARK    5  A    between atoms: P_6  and  O_7 
REMARK    6  A    between atoms: P_6  and  O_8 
ROOT
HETATM    1  O   UNK N   1      20.554  18.665   1.491  0.00  0.00    -0.287 OA
ENDROOT
BRANCH   1   2
HETATM    2  C   UNK N   1      20.736  19.541   2.568  0.00  0.00     0.290 C 
BRANCH   2   3
HETATM    3  C   UNK N   1      21.113  20.895   2.068  0.00  0.00     0.165 C 
HETATM    4  O   UNK N   1      20.743  21.266   0.965  0.00  0.00    -0.648 OA
BRANCH   3   5
HETATM    5  O   UNK N   1      21.878  21.702   2.826  0.00  0.00    -0.775 OA
HETATM    6  H   UNK N   1      21.615  22.585   3.004  0.00  0.00     0.167 HD
ENDBRANCH   3   5
ENDBRANCH   2   3
ENDBRANCH   1   2
BRANCH   1   7
HETATM    7  P   UNK N   1      19.996  17.181   2.209  0.00  0.00     0.391 P 
HETATM    8  O   UNK N   1      21.016  17.683   3.267  0.00  0.00    -0.632 OA
BRANCH   7   9
HETATM    9  O   UNK N   1      19.079  17.211   3.682  0.00  0.00    -0.307 OA
HETATM   10  H   UNK N   1      19.243  17.713   4.496  0.00  0.00     0.222 HD
ENDBRANCH   7   9
BRANCH   7  11
HETATM   11  O   UNK N   1      18.669  18.296   2.083  0.00  0.00    -0.307 OA
HETATM   12  H   UNK N   1      17.776  18.151   1.732  0.00  0.00     0.222 HD
ENDBRANCH   7  11
ENDBRANCH   1   7
TORSDOF 6
ENDMDL
MODEL 8
REMARK VINA RESULT:      -4.0     13.169     14.357
REMARK  6 active torsions:
REMARK  status: ('A' for Active; 'I' for Inactive)
REMARK    1  A    between atoms: O_1  and  C_2 
REMARK    2  A    between atoms: C_2  and  C_4 
REMARK    3  A    between atoms: C_4  and  O_5 
REMARK    4  A    between atoms: O_5  and  P_6 
REMARK    5  A    between atoms: P_6  and  O_7 
REMARK    6  A    between atoms: P_6  and  O_8 
ROOT
HETATM    1  O   UNK N   1      22.332  13.315  10.525  0.00  0.00    -0.287 OA
ENDROOT
BRANCH   1   2
HETATM    2  C   UNK N   1      22.643  12.001  10.894  0.00  0.00     0.290 C 
BRANCH   2   3
HETATM    3  C   UNK N   1      23.605  12.003  12.034  0.00  0.00     0.165 C 
HETATM    4  O   UNK N   1      23.200  11.874  13.178  0.00  0.00    -0.648 OA
BRANCH   3   5
HETATM    5  O   UNK N   1      24.921  12.167  11.803  0.00  0.00    -0.775 OA
HETATM    6  H   UNK N   1      25.364  12.944  12.084  0.00  0.00     0.167 HD
ENDBRANCH   3   5
ENDBRANCH   2   3
ENDBRANCH   1   2
BRANCH   1   7
HETATM    7  P   UNK N   1      21.051  13.161   9.356  0.00  0.00     0.391 P 
HETATM    8  O   UNK N   1      20.354  12.681  10.659  0.00  0.00    -0.632 OA
BRANCH   7   9
HETATM    9  O   UNK N   1      19.642  14.168   9.464  0.00  0.00    -0.307 OA
HETATM   10  H   UNK N   1      18.714  13.946   9.286  0.00  0.00     0.222 HD
ENDBRANCH   7   9
BRANCH   7  11
HETATM   11  O   UNK N   1      21.502  14.833   9.502  0.00  0.00    -0.307 OA
HETATM   12  H   UNK N   1      22.000  15.275  10.208  0.00  0.00     0.222 HD
ENDBRANCH   7  11
ENDBRANCH   1   7
TORSDOF 6
ENDMDL
MODEL 9
REMARK VINA RESULT:      -4.0     13.863     15.222
REMARK  6 active torsions:
REMARK  status: ('A' for Active; 'I' for Inactive)
REMARK    1  A    between atoms: O_1  and  C_2 
REMARK    2  A    between atoms: C_2  and  C_4 
REMARK    3  A    between atoms: C_4  and  O_5 
REMARK    4  A    between atoms: O_5  and  P_6 
REMARK    5  A    between atoms: P_6  and  O_7 
REMARK    6  A    between atoms: P_6  and  O_8 
ROOT
HETATM    1  O   UNK N   1      29.604  22.444  -3.262  0.00  0.00    -0.287 OA
ENDROOT
BRANCH   1   2
HETATM    2  C   UNK N   1      29.228  23.788  -3.362  0.00  0.00     0.290 C 
BRANCH   2   3
HETATM    3  C   UNK N   1      27.741  23.906  -3.368  0.00  0.00     0.165 C 
HETATM    4  O   UNK N   1      27.113  23.786  -2.328  0.00  0.00    -0.648 OA
BRANCH   3   5
HETATM    5  O   UNK N   1      27.089  24.123  -4.524  0.00  0.00    -0.775 OA
HETATM    6  H   UNK N   1      26.416  23.538  -4.813  0.00  0.00     0.167 HD
ENDBRANCH   3   5
ENDBRANCH   2   3
ENDBRANCH   1   2
BRANCH   1   7
HETATM    7  P   UNK N   1      31.341  22.470  -3.150  0.00  0.00     0.391 P 
HETATM    8  O   UNK N   1      30.923  22.899  -1.717  0.00  0.00    -0.632 OA
BRANCH   7   9
HETATM    9  O   UNK N   1      32.171  21.343  -2.125  0.00  0.00    -0.307 OA
HETATM   10  H   UNK N   1      32.035  21.156  -1.183  0.00  0.00     0.222 HD
ENDBRANCH   7   9
BRANCH   7  11
HETATM   11  O   UNK N   1      30.808  20.847  -3.467  0.00  0.00    -0.307 OA
HETATM   12  H   UNK N   1      31.003  20.275  -4.226  0.00  0.00     0.222 HD
ENDBRANCH   7  11
ENDBRANCH   1   7
TORSDOF 6
ENDMDL
