MODEL 1
REMARK VINA RESULT:      -8.0      0.000      0.000
REMARK  20 active torsions:
REMARK  status: ('A' for Active; 'I' for Inactive)
REMARK    1  A    between atoms: C_11  and  C_6 
REMARK    2  A    between atoms: O_43  and  C_6 
REMARK    3  A    between atoms: C_13  and  C_7 
REMARK    4  A    between atoms: O_44  and  C_7 
REMARK    5  A    between atoms: C_20  and  C_10 
REMARK    6  A    between atoms: C_12  and  N_32 
REMARK    7  A    between atoms: C_15  and  O_34 
REMARK    8  A    between atoms: C_16  and  O_35 
REMARK    9  A    between atoms: C_17  and  O_36 
REMARK   10  A    between atoms: C_18  and  O_37 
REMARK   11  A    between atoms: N_23  and  C_19 
REMARK   12  A    between atoms: N_24  and  C_20 
REMARK   13  A    between atoms: O_38  and  C_20 
REMARK   14  A    between atoms: C_22  and  N_33 
REMARK   15  A    between atoms: P_47  and  O_40 
REMARK   16  A    between atoms: P_48  and  O_42 
REMARK   17  A    between atoms: P_47  and  O_43 
REMARK   18  A    between atoms: P_48  and  O_44 
REMARK   19  A    between atoms: P_47  and  O_46 
REMARK   20  A    between atoms: P_48  and  O_46 
ROOT
HETATM    1  O   UNK N   1      20.567  20.039   4.188  0.00  0.00    -0.631 OA
HETATM    2  P   UNK N   1      21.793  19.550   3.371  0.00  0.00     0.401 P 
ENDROOT
BRANCH   2   3
HETATM    3  O   UNK N   1      22.633  20.984   2.873  0.00  0.00    -0.307 OA
HETATM    4  H   UNK N   1      23.601  21.034   2.852  0.00  0.00     0.222 HD
ENDBRANCH   2   3
BRANCH   2   5
HETATM    5  O   UNK N   1      22.751  18.591   4.455  0.00  0.00    -0.294 OA
BRANCH   5   6
HETATM    6  C   UNK N   1      24.078  19.002   4.294  0.00  0.00     0.215 C 
BRANCH   6   7
HETATM    7  C   UNK N   1      24.997  17.864   4.704  0.00  0.00     0.180 C 
HETATM    8  C   UNK N   1      25.359  16.985   3.511  0.00  0.00     0.182 C 
HETATM    9  C   UNK N   1      26.651  16.428   4.013  0.00  0.00     0.198 C 
HETATM   10  C   UNK N   1      27.253  17.729   4.541  0.00  0.00     0.262 C 
HETATM   11  O   UNK N   1      26.206  18.381   5.234  0.00  0.00    -0.353 OA
BRANCH   8  12
HETATM   12  O   UNK N   1      24.398  16.005   3.248  0.00  0.00    -0.390 OA
HETATM   13  H   UNK N   1      24.287  15.186   3.756  0.00  0.00     0.210 HD
ENDBRANCH   8  12
BRANCH   9  14
HETATM   14  O   UNK N   1      27.411  15.842   2.998  0.00  0.00    -0.388 OA
HETATM   15  H   UNK N   1      27.455  15.703   2.039  0.00  0.00     0.210 HD
ENDBRANCH   9  14
BRANCH  10  16
HETATM   16  N   UNK N   1      28.411  17.566   5.426  0.00  0.00    -0.297 N 
HETATM   17  C   UNK N   1      29.695  17.482   4.987  0.00  0.00     0.188 A 
HETATM   18  N   UNK N   1      30.571  17.355   6.020  0.00  0.00    -0.346 N 
HETATM   19  C   UNK N   1      29.794  17.356   7.116  0.00  0.00     0.122 A 
ATOM     20  HN  UNK N   1      31.587  17.275   5.974  1.00  0.00     0.167 HD
HETATM   21  C   UNK N   1      30.146  17.256   8.452  0.00  0.00     0.131 A 
HETATM   22  C   UNK N   1      28.499  17.478   6.764  0.00  0.00     0.142 A 
HETATM   23  N   UNK N   1      29.145  17.279   9.381  0.00  0.00    -0.337 N 
HETATM   24  C   UNK N   1      27.830  17.396   9.000  0.00  0.00     0.183 A 
ATOM     25  HN  UNK N   1      29.378  17.207  10.372  1.00  0.00     0.168 HD
HETATM   26  N   UNK N   1      27.498  17.500   7.677  0.00  0.00    -0.336 N 
ATOM     27  HN  UNK N   1      26.525  17.592   7.386  1.00  0.00     0.168 HD
BRANCH  21  28
HETATM   28  N   UNK N   1      31.494  17.142   8.847  0.00  0.00    -0.383 N 
HETATM   29  H   UNK N   1      32.068  17.939   8.880  0.00  0.00     0.157 HD
HETATM   30  H   UNK N   1      31.861  16.261   9.090  0.00  0.00     0.157 HD
ENDBRANCH  21  28
ENDBRANCH  10  16
ENDBRANCH   6   7
ENDBRANCH   5   6
ENDBRANCH   2   5
BRANCH   2  31
HETATM   31  O   UNK N   1      21.164  18.668   2.004  0.00  0.00    -0.195 OA
BRANCH  31  32
HETATM   32  P   UNK N   1      20.445  17.187   2.592  0.00  0.00     0.401 P 
HETATM   33  O   UNK N   1      19.981  16.397   1.341  0.00  0.00    -0.631 OA
BRANCH  32  34
HETATM   34  O   UNK N   1      18.993  17.526   3.482  0.00  0.00    -0.307 OA
HETATM   35  H   UNK N   1      18.885  17.190   4.385  0.00  0.00     0.222 HD
ENDBRANCH  32  34
BRANCH  32  36
HETATM   36  O   UNK N   1      21.518  16.121   3.468  0.00  0.00    -0.296 OA
BRANCH  36  37
HETATM   37  C   UNK N   1      20.716  15.083   3.937  0.00  0.00     0.187 C 
BRANCH  37  38
HETATM   38  C   UNK N   1      20.944  14.824   5.422  0.00  0.00     0.043 C 
HETATM   39  C   UNK N   1      22.386  15.005   5.848  0.00  0.00     0.037 C 
HETATM   40  C   UNK N   1      22.323  14.940   7.381  0.00  0.00     0.120 C 
HETATM   41  C   UNK N   1      20.841  15.285   7.724  0.00  0.00     0.170 C 
HETATM   42  C   UNK N   1      20.239  15.757   6.396  0.00  0.00     0.155 C 
BRANCH  40  43
HETATM   43  N   UNK N   1      22.750  13.604   7.860  0.00  0.00    -0.358 N 
HETATM   44  C   UNK N   1      22.827  12.551   6.994  0.00  0.00     0.091 A 
HETATM   45  C   UNK N   1      23.246  11.293   7.444  0.00  0.00     0.018 A 
HETATM   46  C   UNK N   1      23.558  11.110   8.793  0.00  0.00     0.018 A 
HETATM   47  C   UNK N   1      23.451  12.185   9.680  0.00  0.00     0.030 A 
HETATM   48  C   UNK N   1      23.053  13.421   9.184  0.00  0.00     0.106 A 
BRANCH  47  49
HETATM   49  C   UNK N   1      23.725  12.035  11.125  0.00  0.00     0.145 C 
BRANCH  49  50
HETATM   50  N   UNK N   1      22.810  11.626  11.925  0.00  0.00    -0.379 N 
HETATM   51  H   UNK N   1      22.568  10.675  12.007  0.00  0.00     0.158 HD
ATOM     52  HN  UNK N   1      22.316  12.311  12.497  1.00  0.00     0.158 HD
ENDBRANCH  49  50
BRANCH  49  53
HETATM   53  O   UNK N   1      24.942  12.350  11.617  0.00  0.00    -0.346 OA
HETATM   54  H   UNK N   1      25.573  12.774  11.069  0.00  0.00     0.219 HD
ENDBRANCH  49  53
ENDBRANCH  47  49
ENDBRANCH  40  43
BRANCH  41  55
HETATM   55  O   UNK N   1      20.150  14.137   8.126  0.00  0.00    -0.391 OA
HETATM   56  H   UNK N   1      19.301  13.762   8.409  0.00  0.00     0.210 HD
ENDBRANCH  41  55
BRANCH  42  57
HETATM   57  O   UNK N   1      20.604  17.088   6.149  0.00  0.00    -0.392 OA
HETATM   58  H   UNK N   1      20.942  17.870   6.613  0.00  0.00     0.210 HD
ENDBRANCH  42  57
ENDBRANCH  37  38
ENDBRANCH  36  37
ENDBRANCH  32  36
ENDBRANCH  31  32
ENDBRANCH   2  31
TORSDOF 20
ENDMDL
MODEL 2
REMARK VINA RESULT:      -7.9      8.549     12.641
REMARK  20 active torsions:
REMARK  status: ('A' for Active; 'I' for Inactive)
REMARK    1  A    between atoms: C_11  and  C_6 
REMARK    2  A    between atoms: O_43  and  C_6 
REMARK    3  A    between atoms: C_13  and  C_7 
REMARK    4  A    between atoms: O_44  and  C_7 
REMARK    5  A    between atoms: C_20  and  C_10 
REMARK    6  A    between atoms: C_12  and  N_32 
REMARK    7  A    between atoms: C_15  and  O_34 
REMARK    8  A    between atoms: C_16  and  O_35 
REMARK    9  A    between atoms: C_17  and  O_36 
REMARK   10  A    between atoms: C_18  and  O_37 
REMARK   11  A    between atoms: N_23  and  C_19 
REMARK   12  A    between atoms: N_24  and  C_20 
REMARK   13  A    between atoms: O_38  and  C_20 
REMARK   14  A    between atoms: C_22  and  N_33 
REMARK   15  A    between atoms: P_47  and  O_40 
REMARK   16  A    between atoms: P_48  and  O_42 
REMARK   17  A    between atoms: P_47  and  O_43 
REMARK   18  A    between atoms: P_48  and  O_44 
REMARK   19  A    between atoms: P_47  and  O_46 
REMARK   20  A    between atoms: P_48  and  O_46 
ROOT
HETATM    1  O   UNK N   1      33.452  15.055  10.226  0.00  0.00    -0.631 OA
HETATM    2  P   UNK N   1      34.896  15.623  10.191  0.00  0.00     0.401 P 
ENDROOT
BRANCH   2   3
HETATM    3  O   UNK N   1      34.884  17.010  11.234  0.00  0.00    -0.307 OA
HETATM    4  H   UNK N   1      35.617  17.644  11.258  0.00  0.00     0.222 HD
ENDBRANCH   2   3
BRANCH   2   5
HETATM    5  O   UNK N   1      35.929  14.370  10.805  0.00  0.00    -0.294 OA
BRANCH   5   6
HETATM    6  C   UNK N   1      36.089  14.611  12.174  0.00  0.00     0.215 C 
BRANCH   6   7
HETATM    7  C   UNK N   1      35.228  13.628  12.948  0.00  0.00     0.180 C 
HETATM    8  C   UNK N   1      35.135  12.285  12.232  0.00  0.00     0.182 C 
HETATM    9  C   UNK N   1      34.835  11.413  13.407  0.00  0.00     0.198 C 
HETATM   10  C   UNK N   1      35.873  11.986  14.370  0.00  0.00     0.262 C 
HETATM   11  O   UNK N   1      35.792  13.391  14.228  0.00  0.00    -0.353 OA
BRANCH   8  12
HETATM   12  O   UNK N   1      34.139  12.259  11.253  0.00  0.00    -0.390 OA
HETATM   13  H   UNK N   1      33.446  11.584  11.184  0.00  0.00     0.210 HD
ENDBRANCH   8  12
BRANCH   9  14
HETATM   14  O   UNK N   1      35.029  10.058  13.131  0.00  0.00    -0.388 OA
HETATM   15  H   UNK N   1      34.659   9.299  12.652  0.00  0.00     0.210 HD
ENDBRANCH   9  14
BRANCH  10  16
HETATM   16  N   UNK N   1      35.690  11.616  15.777  0.00  0.00    -0.297 N 
HETATM   17  C   UNK N   1      35.670  10.333  16.227  0.00  0.00     0.188 A 
HETATM   18  N   UNK N   1      35.506  10.278  17.576  0.00  0.00    -0.346 N 
HETATM   19  C   UNK N   1      35.417  11.564  17.953  0.00  0.00     0.122 A 
ATOM     20  HN  UNK N   1      35.460   9.448  18.168  1.00  0.00     0.167 HD
HETATM   21  C   UNK N   1      35.246  12.108  19.215  0.00  0.00     0.131 A 
HETATM   22  C   UNK N   1      35.523  12.369  16.877  0.00  0.00     0.142 A 
HETATM   23  N   UNK N   1      35.182  13.468  19.323  0.00  0.00    -0.337 N 
HETATM   24  C   UNK N   1      35.282  14.270  18.212  0.00  0.00     0.183 A 
ATOM     25  HN  UNK N   1      35.056  13.894  20.242  1.00  0.00     0.168 HD
HETATM   26  N   UNK N   1      35.459  13.719  16.972  0.00  0.00    -0.336 N 
ATOM     27  HN  UNK N   1      35.539  14.307  16.144  1.00  0.00     0.168 HD
BRANCH  21  28
HETATM   28  N   UNK N   1      35.147  11.289  20.358  0.00  0.00    -0.383 N 
HETATM   29  H   UNK N   1      35.232  11.681  21.255  0.00  0.00     0.157 HD
HETATM   30  H   UNK N   1      34.992  10.322  20.256  0.00  0.00     0.157 HD
ENDBRANCH  21  28
ENDBRANCH  10  16
ENDBRANCH   6   7
ENDBRANCH   5   6
ENDBRANCH   2   5
BRANCH   2  31
HETATM   31  O   UNK N   1      35.220  16.067   8.537  0.00  0.00    -0.195 OA
BRANCH  31  32
HETATM   32  P   UNK N   1      34.321  17.521   8.174  0.00  0.00     0.401 P 
HETATM   33  O   UNK N   1      35.145  18.702   8.751  0.00  0.00    -0.631 OA
BRANCH  32  34
HETATM   34  O   UNK N   1      32.820  17.544   9.046  0.00  0.00    -0.307 OA
HETATM   35  H   UNK N   1      32.188  16.815   8.947  0.00  0.00     0.222 HD
ENDBRANCH  32  34
BRANCH  32  36
HETATM   36  O   UNK N   1      34.100  17.870   6.476  0.00  0.00    -0.296 OA
BRANCH  36  37
HETATM   37  C   UNK N   1      34.101  16.632   5.835  0.00  0.00     0.187 C 
BRANCH  37  38
HETATM   38  C   UNK N   1      32.715  16.267   5.317  0.00  0.00     0.043 C 
HETATM   39  C   UNK N   1      31.850  17.472   5.014  0.00  0.00     0.037 C 
HETATM   40  C   UNK N   1      30.634  16.875   4.291  0.00  0.00     0.120 C 
HETATM   41  C   UNK N   1      31.140  15.502   3.749  0.00  0.00     0.170 C 
HETATM   42  C   UNK N   1      32.653  15.530   3.986  0.00  0.00     0.155 C 
BRANCH  40  43
HETATM   43  N   UNK N   1      29.484  16.762   5.219  0.00  0.00    -0.358 N 
HETATM   44  C   UNK N   1      28.295  16.246   4.787  0.00  0.00     0.091 A 
HETATM   45  C   UNK N   1      27.214  16.124   5.669  0.00  0.00     0.018 A 
HETATM   46  C   UNK N   1      27.346  16.561   6.989  0.00  0.00     0.018 A 
HETATM   47  C   UNK N   1      28.556  17.114   7.418  0.00  0.00     0.030 A 
HETATM   48  C   UNK N   1      29.609  17.194   6.513  0.00  0.00     0.106 A 
BRANCH  47  49
HETATM   49  C   UNK N   1      28.735  17.633   8.791  0.00  0.00     0.145 C 
BRANCH  49  50
HETATM   50  N   UNK N   1      29.857  17.503   9.397  0.00  0.00    -0.379 N 
HETATM   51  H   UNK N   1      30.717  17.495   8.918  0.00  0.00     0.158 HD
ATOM     52  HN  UNK N   1      29.858  17.403  10.412  1.00  0.00     0.158 HD
ENDBRANCH  49  50
BRANCH  49  53
HETATM   53  O   UNK N   1      27.705  18.232   9.424  0.00  0.00    -0.346 OA
HETATM   54  H   UNK N   1      26.874  18.310   8.998  0.00  0.00     0.219 HD
ENDBRANCH  49  53
ENDBRANCH  47  49
ENDBRANCH  40  43
BRANCH  41  55
HETATM   55  O   UNK N   1      30.605  14.451   4.501  0.00  0.00    -0.391 OA
HETATM   56  H   UNK N   1      30.765  13.786   5.190  0.00  0.00     0.210 HD
ENDBRANCH  41  55
BRANCH  42  57
HETATM   57  O   UNK N   1      33.283  16.279   2.984  0.00  0.00    -0.392 OA
HETATM   58  H   UNK N   1      34.084  16.806   2.834  0.00  0.00     0.210 HD
ENDBRANCH  42  57
ENDBRANCH  37  38
ENDBRANCH  36  37
ENDBRANCH  32  36
ENDBRANCH  31  32
ENDBRANCH   2  31
TORSDOF 20
ENDMDL
MODEL 3
REMARK VINA RESULT:      -7.8      9.223     13.522
REMARK  20 active torsions:
REMARK  status: ('A' for Active; 'I' for Inactive)
REMARK    1  A    between atoms: C_11  and  C_6 
REMARK    2  A    between atoms: O_43  and  C_6 
REMARK    3  A    between atoms: C_13  and  C_7 
REMARK    4  A    between atoms: O_44  and  C_7 
REMARK    5  A    between atoms: C_20  and  C_10 
REMARK    6  A    between atoms: C_12  and  N_32 
REMARK    7  A    between atoms: C_15  and  O_34 
REMARK    8  A    between atoms: C_16  and  O_35 
REMARK    9  A    between atoms: C_17  and  O_36 
REMARK   10  A    between atoms: C_18  and  O_37 
REMARK   11  A    between atoms: N_23  and  C_19 
REMARK   12  A    between atoms: N_24  and  C_20 
REMARK   13  A    between atoms: O_38  and  C_20 
REMARK   14  A    between atoms: C_22  and  N_33 
REMARK   15  A    between atoms: P_47  and  O_40 
REMARK   16  A    between atoms: P_48  and  O_42 
REMARK   17  A    between atoms: P_47  and  O_43 
REMARK   18  A    between atoms: P_48  and  O_44 
REMARK   19  A    between atoms: P_47  and  O_46 
REMARK   20  A    between atoms: P_48  and  O_46 
ROOT
HETATM    1  O   UNK N   1      35.482  11.872   8.946  0.00  0.00    -0.631 OA
HETATM    2  P   UNK N   1      34.646  12.941   9.700  0.00  0.00     0.401 P 
ENDROOT
BRANCH   2   3
HETATM    3  O   UNK N   1      33.079  12.927   8.956  0.00  0.00    -0.307 OA
HETATM    4  H   UNK N   1      32.852  13.517   8.220  0.00  0.00     0.222 HD
ENDBRANCH   2   3
BRANCH   2   5
HETATM    5  O   UNK N   1      34.572  12.425  11.356  0.00  0.00    -0.294 OA
BRANCH   5   6
HETATM    6  C   UNK N   1      35.348  11.266  11.454  0.00  0.00     0.215 C 
BRANCH   6   7
HETATM    7  C   UNK N   1      36.204  11.354  12.706  0.00  0.00     0.180 C 
HETATM    8  C   UNK N   1      36.759  12.760  12.903  0.00  0.00     0.182 C 
HETATM    9  C   UNK N   1      36.967  12.726  14.381  0.00  0.00     0.198 C 
HETATM   10  C   UNK N   1      35.633  12.092  14.770  0.00  0.00     0.262 C 
HETATM   11  O   UNK N   1      35.428  11.039  13.849  0.00  0.00    -0.353 OA
BRANCH   8  12
HETATM   12  O   UNK N   1      37.935  12.986  12.182  0.00  0.00    -0.390 OA
HETATM   13  H   UNK N   1      38.645  12.336  12.061  0.00  0.00     0.210 HD
ENDBRANCH   8  12
BRANCH   9  14
HETATM   14  O   UNK N   1      37.152  13.999  14.925  0.00  0.00    -0.388 OA
HETATM   15  H   UNK N   1      36.919  14.567  15.677  0.00  0.00     0.210 HD
ENDBRANCH   9  14
BRANCH  10  16
HETATM   16  N   UNK N   1      35.563  11.578  16.141  0.00  0.00    -0.297 N 
HETATM   17  C   UNK N   1      35.653  10.260  16.462  0.00  0.00     0.188 A 
HETATM   18  N   UNK N   1      35.578  10.065  17.806  0.00  0.00    -0.346 N 
HETATM   19  C   UNK N   1      35.431  11.300  18.313  0.00  0.00     0.122 A 
ATOM     20  HN  UNK N   1      35.622   9.181  18.315  1.00  0.00     0.167 HD
HETATM   21  C   UNK N   1      35.305  11.708  19.631  0.00  0.00     0.131 A 
HETATM   22  C   UNK N   1      35.418  12.209  17.318  0.00  0.00     0.142 A 
HETATM   23  N   UNK N   1      35.162  13.043  19.876  0.00  0.00    -0.337 N 
HETATM   24  C   UNK N   1      35.142  13.953  18.847  0.00  0.00     0.183 A 
ATOM     25  HN  UNK N   1      35.067  13.370  20.839  1.00  0.00     0.168 HD
HETATM   26  N   UNK N   1      35.274  13.536  17.551  0.00  0.00    -0.336 N 
ATOM     27  HN  UNK N   1      35.265  14.204  16.781  1.00  0.00     0.168 HD
BRANCH  21  28
HETATM   28  N   UNK N   1      35.330  10.779  20.690  0.00  0.00    -0.383 N 
HETATM   29  H   UNK N   1      35.512   9.829  20.510  0.00  0.00     0.157 HD
HETATM   30  H   UNK N   1      35.166  11.081  21.612  0.00  0.00     0.157 HD
ENDBRANCH  21  28
ENDBRANCH  10  16
ENDBRANCH   6   7
ENDBRANCH   5   6
ENDBRANCH   2   5
BRANCH   2  31
HETATM   31  O   UNK N   1      35.456  14.467   9.464  0.00  0.00    -0.195 OA
BRANCH  31  32
HETATM   32  P   UNK N   1      34.713  15.650  10.514  0.00  0.00     0.401 P 
HETATM   33  O   UNK N   1      35.728  15.924  11.654  0.00  0.00    -0.631 OA
BRANCH  32  34
HETATM   34  O   UNK N   1      33.317  14.977  11.298  0.00  0.00    -0.307 OA
HETATM   35  H   UNK N   1      32.427  15.258  11.034  0.00  0.00     0.222 HD
ENDBRANCH  32  34
BRANCH  32  36
HETATM   36  O   UNK N   1      34.373  17.201   9.785  0.00  0.00    -0.296 OA
BRANCH  36  37
HETATM   37  C   UNK N   1      34.778  17.088   8.456  0.00  0.00     0.187 C 
BRANCH  37  38
HETATM   38  C   UNK N   1      33.670  16.516   7.579  0.00  0.00     0.043 C 
HETATM   39  C   UNK N   1      33.035  17.543   6.667  0.00  0.00     0.037 C 
HETATM   40  C   UNK N   1      32.151  16.704   5.733  0.00  0.00     0.120 C 
HETATM   41  C   UNK N   1      32.762  15.270   5.805  0.00  0.00     0.170 C 
HETATM   42  C   UNK N   1      34.077  15.451   6.570  0.00  0.00     0.155 C 
BRANCH  40  43
HETATM   43  N   UNK N   1      30.734  16.770   6.162  0.00  0.00    -0.358 N 
HETATM   44  C   UNK N   1      29.743  16.297   5.350  0.00  0.00     0.091 A 
HETATM   45  C   UNK N   1      28.406  16.344   5.763  0.00  0.00     0.018 A 
HETATM   46  C   UNK N   1      28.085  16.907   7.000  0.00  0.00     0.018 A 
HETATM   47  C   UNK N   1      29.101  17.416   7.815  0.00  0.00     0.030 A 
HETATM   48  C   UNK N   1      30.416  17.326   7.373  0.00  0.00     0.106 A 
BRANCH  47  49
HETATM   49  C   UNK N   1      28.811  18.062   9.113  0.00  0.00     0.145 C 
BRANCH  49  50
HETATM   50  N   UNK N   1      29.765  18.401   9.900  0.00  0.00    -0.379 N 
HETATM   51  H   UNK N   1      29.844  18.046  10.815  0.00  0.00     0.158 HD
ATOM     52  HN  UNK N   1      30.466  19.062   9.566  1.00  0.00     0.158 HD
ENDBRANCH  49  50
BRANCH  49  53
HETATM   53  O   UNK N   1      27.533  18.282   9.486  0.00  0.00    -0.346 OA
HETATM   54  H   UNK N   1      27.073  19.031   9.164  0.00  0.00     0.219 HD
ENDBRANCH  49  53
ENDBRANCH  47  49
ENDBRANCH  40  43
BRANCH  41  55
HETATM   55  O   UNK N   1      31.940  14.424   6.556  0.00  0.00    -0.391 OA
HETATM   56  H   UNK N   1      31.590  13.526   6.667  0.00  0.00     0.210 HD
ENDBRANCH  41  55
BRANCH  42  57
HETATM   57  O   UNK N   1      35.068  15.946   5.711  0.00  0.00    -0.392 OA
HETATM   58  H   UNK N   1      35.198  16.623   5.028  0.00  0.00     0.210 HD
ENDBRANCH  42  57
ENDBRANCH  37  38
ENDBRANCH  36  37
ENDBRANCH  32  36
ENDBRANCH  31  32
ENDBRANCH   2  31
TORSDOF 20
ENDMDL
MODEL 4
REMARK VINA RESULT:      -7.8     10.019     14.061
REMARK  20 active torsions:
REMARK  status: ('A' for Active; 'I' for Inactive)
REMARK    1  A    between atoms: C_11  and  C_6 
REMARK    2  A    between atoms: O_43  and  C_6 
REMARK    3  A    between atoms: C_13  and  C_7 
REMARK    4  A    between atoms: O_44  and  C_7 
REMARK    5  A    between atoms: C_20  and  C_10 
REMARK    6  A    between atoms: C_12  and  N_32 
REMARK    7  A    between atoms: C_15  and  O_34 
REMARK    8  A    between atoms: C_16  and  O_35 
REMARK    9  A    between atoms: C_17  and  O_36 
REMARK   10  A    between atoms: C_18  and  O_37 
REMARK   11  A    between atoms: N_23  and  C_19 
REMARK   12  A    between atoms: N_24  and  C_20 
REMARK   13  A    between atoms: O_38  and  C_20 
REMARK   14  A    between atoms: C_22  and  N_33 
REMARK   15  A    between atoms: P_47  and  O_40 
REMARK   16  A    between atoms: P_48  and  O_42 
REMARK   17  A    between atoms: P_47  and  O_43 
REMARK   18  A    between atoms: P_48  and  O_44 
REMARK   19  A    between atoms: P_47  and  O_46 
REMARK   20  A    between atoms: P_48  and  O_46 
ROOT
HETATM    1  O   UNK N   1      36.081  15.272  12.735  0.00  0.00    -0.631 OA
HETATM    2  P   UNK N   1      35.855  13.951  11.950  0.00  0.00     0.401 P 
ENDROOT
BRANCH   2   3
HETATM    3  O   UNK N   1      34.342  13.318  12.517  0.00  0.00    -0.307 OA
HETATM    4  H   UNK N   1      34.274  12.454  12.951  0.00  0.00     0.222 HD
ENDBRANCH   2   3
BRANCH   2   5
HETATM    5  O   UNK N   1      35.777  14.387  10.272  0.00  0.00    -0.294 OA
BRANCH   5   6
HETATM    6  C   UNK N   1      34.453  14.197   9.864  0.00  0.00     0.215 C 
BRANCH   6   7
HETATM    7  C   UNK N   1      33.783  15.554   9.729  0.00  0.00     0.180 C 
HETATM    8  C   UNK N   1      34.752  16.602   9.195  0.00  0.00     0.182 C 
HETATM    9  C   UNK N   1      33.766  17.548   8.593  0.00  0.00     0.198 C 
HETATM   10  C   UNK N   1      32.885  16.519   7.887  0.00  0.00     0.262 C 
HETATM   11  O   UNK N   1      32.699  15.472   8.819  0.00  0.00    -0.353 OA
BRANCH   8  12
HETATM   12  O   UNK N   1      35.534  17.181  10.198  0.00  0.00    -0.390 OA
HETATM   13  H   UNK N   1      36.450  16.935  10.399  0.00  0.00     0.210 HD
ENDBRANCH   8  12
BRANCH   9  14
HETATM   14  O   UNK N   1      34.363  18.457   7.716  0.00  0.00    -0.388 OA
HETATM   15  H   UNK N   1      34.818  18.532   6.863  0.00  0.00     0.210 HD
ENDBRANCH   9  14
BRANCH  10  16
HETATM   16  N   UNK N   1      31.585  17.019   7.430  0.00  0.00    -0.297 N 
HETATM   17  C   UNK N   1      31.190  17.028   6.129  0.00  0.00     0.188 A 
HETATM   18  N   UNK N   1      29.931  17.526   5.991  0.00  0.00    -0.346 N 
HETATM   19  C   UNK N   1      29.556  17.833   7.244  0.00  0.00     0.122 A 
ATOM     20  HN  UNK N   1      29.394  17.641   5.131  1.00  0.00     0.167 HD
HETATM   21  C   UNK N   1      28.368  18.374   7.705  0.00  0.00     0.131 A 
HETATM   22  C   UNK N   1      30.546  17.534   8.108  0.00  0.00     0.142 A 
HETATM   23  N   UNK N   1      28.244  18.595   9.047  0.00  0.00    -0.337 N 
HETATM   24  C   UNK N   1      29.268  18.292   9.911  0.00  0.00     0.183 A 
ATOM     25  HN  UNK N   1      27.378  18.993   9.413  1.00  0.00     0.168 HD
HETATM   26  N   UNK N   1      30.434  17.751   9.441  0.00  0.00    -0.336 N 
ATOM     27  HN  UNK N   1      31.197  17.519  10.075  1.00  0.00     0.168 HD
BRANCH  21  28
HETATM   28  N   UNK N   1      27.312  18.681   6.823  0.00  0.00    -0.383 N 
HETATM   29  H   UNK N   1      26.668  17.986   6.562  0.00  0.00     0.157 HD
HETATM   30  H   UNK N   1      27.220  19.595   6.468  0.00  0.00     0.157 HD
ENDBRANCH  21  28
ENDBRANCH  10  16
ENDBRANCH   6   7
ENDBRANCH   5   6
ENDBRANCH   2   5
BRANCH   2  31
HETATM   31  O   UNK N   1      37.183  12.896  12.352  0.00  0.00    -0.195 OA
BRANCH  31  32
HETATM   32  P   UNK N   1      37.117  11.505  11.296  0.00  0.00     0.401 P 
HETATM   33  O   UNK N   1      37.981  11.853  10.056  0.00  0.00    -0.631 OA
BRANCH  32  34
HETATM   34  O   UNK N   1      35.508  11.281  10.683  0.00  0.00    -0.307 OA
HETATM   35  H   UNK N   1      35.078  10.414  10.746  0.00  0.00     0.222 HD
ENDBRANCH  32  34
BRANCH  32  36
HETATM   36  O   UNK N   1      37.782  10.027  11.950  0.00  0.00    -0.296 OA
BRANCH  36  37
HETATM   37  C   UNK N   1      36.688   9.286  12.391  0.00  0.00     0.187 C 
BRANCH  37  38
HETATM   38  C   UNK N   1      36.454   9.465  13.887  0.00  0.00     0.043 C 
HETATM   39  C   UNK N   1      35.029   9.843  14.231  0.00  0.00     0.037 C 
HETATM   40  C   UNK N   1      34.980   9.724  15.761  0.00  0.00     0.120 C 
HETATM   41  C   UNK N   1      36.165   8.773  16.114  0.00  0.00     0.170 C 
HETATM   42  C   UNK N   1      36.641   8.233  14.762  0.00  0.00     0.155 C 
BRANCH  40  43
HETATM   43  N   UNK N   1      35.082  11.063  16.389  0.00  0.00    -0.358 N 
HETATM   44  C   UNK N   1      35.150  12.186  15.615  0.00  0.00     0.091 A 
HETATM   45  C   UNK N   1      35.229  13.452  16.208  0.00  0.00     0.018 A 
HETATM   46  C   UNK N   1      35.269  13.560  17.600  0.00  0.00     0.018 A 
HETATM   47  C   UNK N   1      35.227  12.405  18.387  0.00  0.00     0.030 A 
HETATM   48  C   UNK N   1      35.125  11.172  17.754  0.00  0.00     0.106 A 
BRANCH  47  49
HETATM   49  C   UNK N   1      35.312  12.462  19.862  0.00  0.00     0.145 C 
BRANCH  49  50
HETATM   50  N   UNK N   1      34.619  13.314  20.523  0.00  0.00    -0.379 N 
HETATM   51  H   UNK N   1      34.745  14.286  20.426  0.00  0.00     0.158 HD
ATOM     52  HN  UNK N   1      33.911  12.972  21.173  1.00  0.00     0.158 HD
ENDBRANCH  49  50
BRANCH  49  53
HETATM   53  O   UNK N   1      36.140  11.625  20.522  0.00  0.00    -0.346 OA
HETATM   54  H   UNK N   1      36.590  11.920  21.289  0.00  0.00     0.219 HD
ENDBRANCH  49  53
ENDBRANCH  47  49
ENDBRANCH  40  43
BRANCH  41  55
HETATM   55  O   UNK N   1      37.219   9.495  16.684  0.00  0.00    -0.391 OA
HETATM   56  H   UNK N   1      37.716  10.329  16.694  0.00  0.00     0.210 HD
ENDBRANCH  41  55
BRANCH  42  57
HETATM   57  O   UNK N   1      35.798   7.198  14.335  0.00  0.00    -0.392 OA
HETATM   58  H   UNK N   1      35.011   6.708  14.619  0.00  0.00     0.210 HD
ENDBRANCH  42  57
ENDBRANCH  37  38
ENDBRANCH  36  37
ENDBRANCH  32  36
ENDBRANCH  31  32
ENDBRANCH   2  31
TORSDOF 20
ENDMDL
MODEL 5
REMARK VINA RESULT:      -7.6      3.579      8.242
REMARK  20 active torsions:
REMARK  status: ('A' for Active; 'I' for Inactive)
REMARK    1  A    between atoms: C_11  and  C_6 
REMARK    2  A    between atoms: O_43  and  C_6 
REMARK    3  A    between atoms: C_13  and  C_7 
REMARK    4  A    between atoms: O_44  and  C_7 
REMARK    5  A    between atoms: C_20  and  C_10 
REMARK    6  A    between atoms: C_12  and  N_32 
REMARK    7  A    between atoms: C_15  and  O_34 
REMARK    8  A    between atoms: C_16  and  O_35 
REMARK    9  A    between atoms: C_17  and  O_36 
REMARK   10  A    between atoms: C_18  and  O_37 
REMARK   11  A    between atoms: N_23  and  C_19 
REMARK   12  A    between atoms: N_24  and  C_20 
REMARK   13  A    between atoms: O_38  and  C_20 
REMARK   14  A    between atoms: C_22  and  N_33 
REMARK   15  A    between atoms: P_47  and  O_40 
REMARK   16  A    between atoms: P_48  and  O_42 
REMARK   17  A    between atoms: P_47  and  O_43 
REMARK   18  A    between atoms: P_48  and  O_44 
REMARK   19  A    between atoms: P_47  and  O_46 
REMARK   20  A    between atoms: P_48  and  O_46 
ROOT
HETATM    1  O   UNK N   1      23.669  13.293   9.862  0.00  0.00    -0.631 OA
HETATM    2  P   UNK N   1      22.595  13.636   8.794  0.00  0.00     0.401 P 
ENDROOT
BRANCH   2   3
HETATM    3  O   UNK N   1      21.822  12.133   8.402  0.00  0.00    -0.307 OA
HETATM    4  H   UNK N   1      22.305  11.292   8.391  0.00  0.00     0.222 HD
ENDBRANCH   2   3
BRANCH   2   5
HETATM    5  O   UNK N   1      21.493  14.744   9.549  0.00  0.00    -0.294 OA
BRANCH   5   6
HETATM    6  C   UNK N   1      20.219  14.450   9.053  0.00  0.00     0.215 C 
BRANCH   6   7
HETATM    7  C   UNK N   1      19.807  15.541   8.079  0.00  0.00     0.180 C 
HETATM    8  C   UNK N   1      20.621  16.812   8.293  0.00  0.00     0.182 C 
HETATM    9  C   UNK N   1      20.496  17.404   6.927  0.00  0.00     0.198 C 
HETATM   10  C   UNK N   1      20.776  16.137   6.120  0.00  0.00     0.262 C 
HETATM   11  O   UNK N   1      20.029  15.112   6.746  0.00  0.00    -0.353 OA
BRANCH   8  12
HETATM   12  O   UNK N   1      20.099  17.629   9.300  0.00  0.00    -0.390 OA
HETATM   13  H   UNK N   1      19.363  18.249   9.186  0.00  0.00     0.210 HD
ENDBRANCH   8  12
BRANCH   9  14
HETATM   14  O   UNK N   1      21.426  18.420   6.697  0.00  0.00    -0.388 OA
HETATM   15  H   UNK N   1      21.884  18.914   5.999  0.00  0.00     0.210 HD
ENDBRANCH   9  14
BRANCH  10  16
HETATM   16  N   UNK N   1      20.424  16.214   4.699  0.00  0.00    -0.297 N 
HETATM   17  C   UNK N   1      19.882  15.184   3.995  0.00  0.00     0.188 A 
HETATM   18  N   UNK N   1      19.637  15.534   2.703  0.00  0.00    -0.346 N 
HETATM   19  C   UNK N   1      20.049  16.810   2.621  0.00  0.00     0.122 A 
ATOM     20  HN  UNK N   1      19.232  14.957   1.964  1.00  0.00     0.167 HD
HETATM   21  C   UNK N   1      20.037  17.676   1.541  0.00  0.00     0.131 A 
HETATM   22  C   UNK N   1      20.525  17.219   3.813  0.00  0.00     0.142 A 
HETATM   23  N   UNK N   1      20.526  18.937   1.727  0.00  0.00    -0.337 N 
HETATM   24  C   UNK N   1      21.016  19.332   2.948  0.00  0.00     0.183 A 
ATOM     25  HN  UNK N   1      20.529  19.596   0.947  1.00  0.00     0.168 HD
HETATM   26  N   UNK N   1      21.014  18.467   4.008  0.00  0.00    -0.336 N 
ATOM     27  HN  UNK N   1      21.371  18.754   4.919  1.00  0.00     0.168 HD
BRANCH  21  28
HETATM   28  N   UNK N   1      19.531  17.277   0.287  0.00  0.00    -0.383 N 
HETATM   29  H   UNK N   1      19.412  16.322   0.085  0.00  0.00     0.157 HD
HETATM   30  H   UNK N   1      19.298  17.955  -0.387  0.00  0.00     0.157 HD
ENDBRANCH  21  28
ENDBRANCH  10  16
ENDBRANCH   6   7
ENDBRANCH   5   6
ENDBRANCH   2   5
BRANCH   2  31
HETATM   31  O   UNK N   1      23.445  14.298   7.423  0.00  0.00    -0.195 OA
BRANCH  31  32
HETATM   32  P   UNK N   1      23.546  13.062   6.192  0.00  0.00     0.401 P 
HETATM   33  O   UNK N   1      22.089  12.750   5.763  0.00  0.00    -0.631 OA
BRANCH  32  34
HETATM   34  O   UNK N   1      24.151  11.579   6.865  0.00  0.00    -0.307 OA
HETATM   35  H   UNK N   1      23.537  10.926   7.235  0.00  0.00     0.222 HD
ENDBRANCH  32  34
BRANCH  32  36
HETATM   36  O   UNK N   1      24.394  13.515   4.733  0.00  0.00    -0.296 OA
BRANCH  36  37
HETATM   37  C   UNK N   1      25.515  14.226   5.156  0.00  0.00     0.187 C 
BRANCH  37  38
HETATM   38  C   UNK N   1      25.339  15.726   4.951  0.00  0.00     0.043 C 
HETATM   39  C   UNK N   1      26.483  16.368   4.196  0.00  0.00     0.037 C 
HETATM   40  C   UNK N   1      25.975  17.787   3.901  0.00  0.00     0.120 C 
HETATM   41  C   UNK N   1      24.422  17.672   4.004  0.00  0.00     0.170 C 
HETATM   42  C   UNK N   1      24.154  16.167   4.103  0.00  0.00     0.155 C 
BRANCH  40  43
HETATM   43  N   UNK N   1      26.565  18.757   4.854  0.00  0.00    -0.358 N 
HETATM   44  C   UNK N   1      26.595  20.089   4.555  0.00  0.00     0.091 A 
HETATM   45  C   UNK N   1      27.137  21.007   5.463  0.00  0.00     0.018 A 
HETATM   46  C   UNK N   1      27.677  20.550   6.668  0.00  0.00     0.018 A 
HETATM   47  C   UNK N   1      27.669  19.182   6.956  0.00  0.00     0.030 A 
HETATM   48  C   UNK N   1      27.099  18.311   6.035  0.00  0.00     0.106 A 
BRANCH  47  49
HETATM   49  C   UNK N   1      28.267  18.641   8.195  0.00  0.00     0.145 C 
BRANCH  49  50
HETATM   50  N   UNK N   1      29.529  18.423   8.270  0.00  0.00    -0.379 N 
HETATM   51  H   UNK N   1      30.105  18.385   7.473  0.00  0.00     0.158 HD
ATOM     52  HN  UNK N   1      29.949  18.284   9.189  1.00  0.00     0.158 HD
ENDBRANCH  49  50
BRANCH  49  53
HETATM   53  O   UNK N   1      27.481  18.353   9.254  0.00  0.00    -0.346 OA
HETATM   54  H   UNK N   1      26.556  18.265   9.140  0.00  0.00     0.219 HD
ENDBRANCH  49  53
ENDBRANCH  47  49
ENDBRANCH  40  43
BRANCH  41  55
HETATM   55  O   UNK N   1      23.963  18.270   5.183  0.00  0.00    -0.391 OA
HETATM   56  H   UNK N   1      23.413  18.174   5.977  0.00  0.00     0.210 HD
ENDBRANCH  41  55
BRANCH  42  57
HETATM   57  O   UNK N   1      24.220  15.583   2.831  0.00  0.00    -0.392 OA
HETATM   58  H   UNK N   1      24.871  15.303   2.168  0.00  0.00     0.210 HD
ENDBRANCH  42  57
ENDBRANCH  37  38
ENDBRANCH  36  37
ENDBRANCH  32  36
ENDBRANCH  31  32
ENDBRANCH   2  31
TORSDOF 20
ENDMDL
MODEL 6
REMARK VINA RESULT:      -7.5      8.533     12.587
REMARK  20 active torsions:
REMARK  status: ('A' for Active; 'I' for Inactive)
REMARK    1  A    between atoms: C_11  and  C_6 
REMARK    2  A    between atoms: O_43  and  C_6 
REMARK    3  A    between atoms: C_13  and  C_7 
REMARK    4  A    between atoms: O_44  and  C_7 
REMARK    5  A    between atoms: C_20  and  C_10 
REMARK    6  A    between atoms: C_12  and  N_32 
REMARK    7  A    between atoms: C_15  and  O_34 
REMARK    8  A    between atoms: C_16  and  O_35 
REMARK    9  A    between atoms: C_17  and  O_36 
REMARK   10  A    between atoms: C_18  and  O_37 
REMARK   11  A    between atoms: N_23  and  C_19 
REMARK   12  A    between atoms: N_24  and  C_20 
REMARK   13  A    between atoms: O_38  and  C_20 
REMARK   14  A    between atoms: C_22  and  N_33 
REMARK   15  A    between atoms: P_47  and  O_40 
REMARK   16  A    between atoms: P_48  and  O_42 
REMARK   17  A    between atoms: P_47  and  O_43 
REMARK   18  A    between atoms: P_48  and  O_44 
REMARK   19  A    between atoms: P_47  and  O_46 
REMARK   20  A    between atoms: P_48  and  O_46 
ROOT
HETATM    1  O   UNK N   1      34.732  16.570   7.571  0.00  0.00    -0.631 OA
HETATM    2  P   UNK N   1      34.453  17.627   8.673  0.00  0.00     0.401 P 
ENDROOT
BRANCH   2   3
HETATM    3  O   UNK N   1      35.291  19.062   8.175  0.00  0.00    -0.307 OA
HETATM    4  H   UNK N   1      36.238  19.191   8.339  0.00  0.00     0.222 HD
ENDBRANCH   2   3
BRANCH   2   5
HETATM    5  O   UNK N   1      32.734  17.865   8.698  0.00  0.00    -0.294 OA
BRANCH   5   6
HETATM    6  C   UNK N   1      32.246  17.425   7.463  0.00  0.00     0.215 C 
BRANCH   6   7
HETATM    7  C   UNK N   1      30.754  17.170   7.588  0.00  0.00     0.180 C 
HETATM    8  C   UNK N   1      30.267  17.409   9.013  0.00  0.00     0.182 C 
HETATM    9  C   UNK N   1      28.833  17.711   8.724  0.00  0.00     0.198 C 
HETATM   10  C   UNK N   1      29.049  18.661   7.547  0.00  0.00     0.262 C 
HETATM   11  O   UNK N   1      30.037  18.052   6.740  0.00  0.00    -0.353 OA
BRANCH   8  12
HETATM   12  O   UNK N   1      30.442  16.296   9.841  0.00  0.00    -0.390 OA
HETATM   13  H   UNK N   1      29.866  16.061  10.584  0.00  0.00     0.210 HD
ENDBRANCH   8  12
BRANCH   9  14
HETATM   14  O   UNK N   1      28.184  18.312   9.805  0.00  0.00    -0.388 OA
HETATM   15  H   UNK N   1      27.970  18.202  10.744  0.00  0.00     0.210 HD
ENDBRANCH   9  14
BRANCH  10  16
HETATM   16  N   UNK N   1      27.854  18.943   6.746  0.00  0.00    -0.297 N 
HETATM   17  C   UNK N   1      27.087  20.056   6.892  0.00  0.00     0.188 A 
HETATM   18  N   UNK N   1      26.054  20.072   6.007  0.00  0.00    -0.346 N 
HETATM   19  C   UNK N   1      26.195  18.933   5.310  0.00  0.00     0.122 A 
ATOM     20  HN  UNK N   1      25.334  20.788   5.899  1.00  0.00     0.167 HD
HETATM   21  C   UNK N   1      25.426  18.427   4.275  0.00  0.00     0.131 A 
HETATM   22  C   UNK N   1      27.270  18.251   5.752  0.00  0.00     0.142 A 
HETATM   23  N   UNK N   1      25.790  17.226   3.736  0.00  0.00    -0.337 N 
HETATM   24  C   UNK N   1      26.885  16.543   4.207  0.00  0.00     0.183 A 
ATOM     25  HN  UNK N   1      25.241  16.831   2.972  1.00  0.00     0.168 HD
HETATM   26  N   UNK N   1      27.639  17.059   5.225  0.00  0.00    -0.336 N 
ATOM     27  HN  UNK N   1      28.456  16.561   5.578  1.00  0.00     0.168 HD
BRANCH  21  28
HETATM   28  N   UNK N   1      24.306  19.127   3.785  0.00  0.00    -0.383 N 
HETATM   29  H   UNK N   1      24.393  20.065   3.505  0.00  0.00     0.157 HD
HETATM   30  H   UNK N   1      23.433  18.675   3.724  0.00  0.00     0.157 HD
ENDBRANCH  21  28
ENDBRANCH  10  16
ENDBRANCH   6   7
ENDBRANCH   5   6
ENDBRANCH   2   5
BRANCH   2  31
HETATM   31  O   UNK N   1      35.105  16.986  10.158  0.00  0.00    -0.195 OA
BRANCH  31  32
HETATM   32  P   UNK N   1      34.611  15.315  10.298  0.00  0.00     0.401 P 
HETATM   33  O   UNK N   1      35.736  14.469   9.648  0.00  0.00    -0.631 OA
BRANCH  32  34
HETATM   34  O   UNK N   1      33.199  15.015   9.333  0.00  0.00    -0.307 OA
HETATM   35  H   UNK N   1      33.000  14.117   9.027  0.00  0.00     0.222 HD
ENDBRANCH  32  34
BRANCH  32  36
HETATM   36  O   UNK N   1      34.432  14.714  11.929  0.00  0.00    -0.296 OA
BRANCH  36  37
HETATM   37  C   UNK N   1      35.688  14.846  12.518  0.00  0.00     0.187 C 
BRANCH  37  38
HETATM   38  C   UNK N   1      36.112  13.565  13.227  0.00  0.00     0.043 C 
HETATM   39  C   UNK N   1      34.975  12.588  13.434  0.00  0.00     0.037 C 
HETATM   40  C   UNK N   1      35.675  11.312  13.923  0.00  0.00     0.120 C 
HETATM   41  C   UNK N   1      37.148  11.465  13.432  0.00  0.00     0.170 C 
HETATM   42  C   UNK N   1      37.118  12.681  12.502  0.00  0.00     0.155 C 
BRANCH  40  43
HETATM   43  N   UNK N   1      35.547  11.182  15.394  0.00  0.00    -0.358 N 
HETATM   44  C   UNK N   1      35.448   9.949  15.973  0.00  0.00     0.091 A 
HETATM   45  C   UNK N   1      35.344   9.826  17.364  0.00  0.00     0.018 A 
HETATM   46  C   UNK N   1      35.313  10.975  18.159  0.00  0.00     0.018 A 
HETATM   47  C   UNK N   1      35.386  12.235  17.558  0.00  0.00     0.030 A 
HETATM   48  C   UNK N   1      35.512  12.307  16.175  0.00  0.00     0.106 A 
BRANCH  47  49
HETATM   49  C   UNK N   1      35.312  13.482  18.348  0.00  0.00     0.145 C 
BRANCH  49  50
HETATM   50  N   UNK N   1      35.620  14.609  17.820  0.00  0.00    -0.379 N 
HETATM   51  H   UNK N   1      35.505  15.464  18.296  0.00  0.00     0.158 HD
ATOM     52  HN  UNK N   1      35.997  14.620  16.872  1.00  0.00     0.158 HD
ENDBRANCH  49  50
BRANCH  49  53
HETATM   53  O   UNK N   1      34.937  13.438  19.644  0.00  0.00    -0.346 OA
HETATM   54  H   UNK N   1      34.186  13.917  19.931  0.00  0.00     0.219 HD
ENDBRANCH  49  53
ENDBRANCH  47  49
ENDBRANCH  40  43
BRANCH  41  55
HETATM   55  O   UNK N   1      37.994  11.765  14.506  0.00  0.00    -0.391 OA
HETATM   56  H   UNK N   1      38.583  12.420  14.912  0.00  0.00     0.210 HD
ENDBRANCH  41  55
BRANCH  42  57
HETATM   57  O   UNK N   1      36.625  12.311  11.243  0.00  0.00    -0.392 OA
HETATM   58  H   UNK N   1      36.174  11.574  10.803  0.00  0.00     0.210 HD
ENDBRANCH  42  57
ENDBRANCH  37  38
ENDBRANCH  36  37
ENDBRANCH  32  36
ENDBRANCH  31  32
ENDBRANCH   2  31
TORSDOF 20
ENDMDL
MODEL 7
REMARK VINA RESULT:      -7.4      1.892      7.777
REMARK  20 active torsions:
REMARK  status: ('A' for Active; 'I' for Inactive)
REMARK    1  A    between atoms: C_11  and  C_6 
REMARK    2  A    between atoms: O_43  and  C_6 
REMARK    3  A    between atoms: C_13  and  C_7 
REMARK    4  A    between atoms: O_44  and  C_7 
REMARK    5  A    between atoms: C_20  and  C_10 
REMARK    6  A    between atoms: C_12  and  N_32 
REMARK    7  A    between atoms: C_15  and  O_34 
REMARK    8  A    between atoms: C_16  and  O_35 
REMARK    9  A    between atoms: C_17  and  O_36 
REMARK   10  A    between atoms: C_18  and  O_37 
REMARK   11  A    between atoms: N_23  and  C_19 
REMARK   12  A    between atoms: N_24  and  C_20 
REMARK   13  A    between atoms: O_38  and  C_20 
REMARK   14  A    between atoms: C_22  and  N_33 
REMARK   15  A    between atoms: P_47  and  O_40 
REMARK   16  A    between atoms: P_48  and  O_42 
REMARK   17  A    between atoms: P_47  and  O_43 
REMARK   18  A    between atoms: P_48  and  O_44 
REMARK   19  A    between atoms: P_47  and  O_46 
REMARK   20  A    between atoms: P_48  and  O_46 
ROOT
HETATM    1  O   UNK N   1      20.896  16.737   2.148  0.00  0.00    -0.631 OA
HETATM    2  P   UNK N   1      21.443  16.988   3.579  0.00  0.00     0.401 P 
ENDROOT
BRANCH   2   3
HETATM    3  O   UNK N   1      20.963  18.604   3.992  0.00  0.00    -0.307 OA
HETATM    4  H   UNK N   1      20.096  18.964   3.747  0.00  0.00     0.222 HD
ENDBRANCH   2   3
BRANCH   2   5
HETATM    5  O   UNK N   1      20.684  15.814   4.607  0.00  0.00    -0.294 OA
BRANCH   5   6
HETATM    6  C   UNK N   1      21.708  15.052   5.178  0.00  0.00     0.215 C 
BRANCH   6   7
HETATM    7  C   UNK N   1      21.744  15.321   6.672  0.00  0.00     0.180 C 
HETATM    8  C   UNK N   1      20.473  16.018   7.143  0.00  0.00     0.182 C 
HETATM    9  C   UNK N   1      20.488  15.594   8.574  0.00  0.00     0.198 C 
HETATM   10  C   UNK N   1      20.822  14.119   8.356  0.00  0.00     0.262 C 
HETATM   11  O   UNK N   1      21.849  14.100   7.384  0.00  0.00    -0.353 OA
BRANCH   8  12
HETATM   12  O   UNK N   1      20.519  17.405   6.975  0.00  0.00    -0.390 OA
HETATM   13  H   UNK N   1      19.746  17.990   6.972  0.00  0.00     0.210 HD
ENDBRANCH   8  12
BRANCH   9  14
HETATM   14  O   UNK N   1      19.257  15.792   9.205  0.00  0.00    -0.388 OA
HETATM   15  H   UNK N   1      18.620  16.473   9.472  0.00  0.00     0.210 HD
ENDBRANCH   9  14
BRANCH  10  16
HETATM   16  N   UNK N   1      21.255  13.394   9.555  0.00  0.00    -0.297 N 
HETATM   17  C   UNK N   1      20.401  12.849  10.461  0.00  0.00     0.188 A 
HETATM   18  N   UNK N   1      21.071  12.218  11.464  0.00  0.00    -0.346 N 
HETATM   19  C   UNK N   1      22.368  12.392  11.158  0.00  0.00     0.122 A 
ATOM     20  HN  UNK N   1      20.678  11.725  12.266  1.00  0.00     0.167 HD
HETATM   21  C   UNK N   1      23.501  11.960  11.826  0.00  0.00     0.131 A 
HETATM   22  C   UNK N   1      22.482  13.100  10.017  0.00  0.00     0.142 A 
HETATM   23  N   UNK N   1      24.718  12.281  11.297  0.00  0.00    -0.337 N 
HETATM   24  C   UNK N   1      24.813  13.011  10.137  0.00  0.00     0.183 A 
ATOM     25  HN  UNK N   1      25.569  11.974  11.770  1.00  0.00     0.168 HD
HETATM   26  N   UNK N   1      23.684  13.425   9.484  0.00  0.00    -0.336 N 
ATOM     27  HN  UNK N   1      23.746  13.964   8.621  1.00  0.00     0.168 HD
BRANCH  21  28
HETATM   28  N   UNK N   1      23.408  11.206  13.013  0.00  0.00    -0.383 N 
HETATM   29  H   UNK N   1      22.530  10.910  13.343  0.00  0.00     0.157 HD
HETATM   30  H   UNK N   1      24.224  10.975  13.514  0.00  0.00     0.157 HD
ENDBRANCH  21  28
ENDBRANCH  10  16
ENDBRANCH   6   7
ENDBRANCH   5   6
ENDBRANCH   2   5
BRANCH   2  31
HETATM   31  O   UNK N   1      23.178  16.838   3.485  0.00  0.00    -0.195 OA
BRANCH  31  32
HETATM   32  P   UNK N   1      23.891  18.148   4.397  0.00  0.00     0.401 P 
HETATM   33  O   UNK N   1      23.042  18.299   5.686  0.00  0.00    -0.631 OA
BRANCH  32  34
HETATM   34  O   UNK N   1      23.707  19.652   3.550  0.00  0.00    -0.307 OA
HETATM   35  H   UNK N   1      23.621  20.482   4.043  0.00  0.00     0.222 HD
ENDBRANCH  32  34
BRANCH  32  36
HETATM   36  O   UNK N   1      25.536  17.890   4.929  0.00  0.00    -0.296 OA
BRANCH  36  37
HETATM   37  C   UNK N   1      26.155  17.179   3.903  0.00  0.00     0.187 C 
BRANCH  37  38
HETATM   38  C   UNK N   1      27.642  16.981   4.176  0.00  0.00     0.043 C 
HETATM   39  C   UNK N   1      27.926  15.902   5.199  0.00  0.00     0.037 C 
HETATM   40  C   UNK N   1      29.449  15.718   5.121  0.00  0.00     0.120 C 
HETATM   41  C   UNK N   1      29.835  16.272   3.715  0.00  0.00     0.170 C 
HETATM   42  C   UNK N   1      28.494  16.499   3.010  0.00  0.00     0.155 C 
BRANCH  40  43
HETATM   43  N   UNK N   1      30.114  16.422   6.243  0.00  0.00    -0.358 N 
HETATM   44  C   UNK N   1      31.476  16.433   6.342  0.00  0.00     0.091 A 
HETATM   45  C   UNK N   1      32.105  17.112   7.392  0.00  0.00     0.018 A 
HETATM   46  C   UNK N   1      31.330  17.756   8.360  0.00  0.00     0.018 A 
HETATM   47  C   UNK N   1      29.935  17.717   8.269  0.00  0.00     0.030 A 
HETATM   48  C   UNK N   1      29.356  17.051   7.195  0.00  0.00     0.106 A 
BRANCH  47  49
HETATM   49  C   UNK N   1      29.068  18.344   9.290  0.00  0.00     0.145 C 
BRANCH  49  50
HETATM   50  N   UNK N   1      27.821  18.533   9.061  0.00  0.00    -0.379 N 
HETATM   51  H   UNK N   1      27.116  18.104   9.598  0.00  0.00     0.158 HD
ATOM     52  HN  UNK N   1      27.551  19.150   8.295  1.00  0.00     0.158 HD
ENDBRANCH  49  50
BRANCH  49  53
HETATM   53  O   UNK N   1      29.593  18.741  10.468  0.00  0.00    -0.346 OA
HETATM   54  H   UNK N   1      29.111  18.616  11.262  0.00  0.00     0.219 HD
ENDBRANCH  49  53
ENDBRANCH  47  49
ENDBRANCH  40  43
BRANCH  41  55
HETATM   55  O   UNK N   1      30.473  17.512   3.835  0.00  0.00    -0.391 OA
HETATM   56  H   UNK N   1      30.713  18.243   4.426  0.00  0.00     0.210 HD
ENDBRANCH  41  55
BRANCH  42  57
HETATM   57  O   UNK N   1      28.001  15.285   2.513  0.00  0.00    -0.392 OA
HETATM   58  H   UNK N   1      28.073  14.709   1.736  0.00  0.00     0.210 HD
ENDBRANCH  42  57
ENDBRANCH  37  38
ENDBRANCH  36  37
ENDBRANCH  32  36
ENDBRANCH  31  32
ENDBRANCH   2  31
TORSDOF 20
ENDMDL
MODEL 8
REMARK VINA RESULT:      -7.4      2.853      7.096
REMARK  20 active torsions:
REMARK  status: ('A' for Active; 'I' for Inactive)
REMARK    1  A    between atoms: C_11  and  C_6 
REMARK    2  A    between atoms: O_43  and  C_6 
REMARK    3  A    between atoms: C_13  and  C_7 
REMARK    4  A    between atoms: O_44  and  C_7 
REMARK    5  A    between atoms: C_20  and  C_10 
REMARK    6  A    between atoms: C_12  and  N_32 
REMARK    7  A    between atoms: C_15  and  O_34 
REMARK    8  A    between atoms: C_16  and  O_35 
REMARK    9  A    between atoms: C_17  and  O_36 
REMARK   10  A    between atoms: C_18  and  O_37 
REMARK   11  A    between atoms: N_23  and  C_19 
REMARK   12  A    between atoms: N_24  and  C_20 
REMARK   13  A    between atoms: O_38  and  C_20 
REMARK   14  A    between atoms: C_22  and  N_33 
REMARK   15  A    between atoms: P_47  and  O_40 
REMARK   16  A    between atoms: P_48  and  O_42 
REMARK   17  A    between atoms: P_47  and  O_43 
REMARK   18  A    between atoms: P_48  and  O_44 
REMARK   19  A    between atoms: P_47  and  O_46 
REMARK   20  A    between atoms: P_48  and  O_46 
ROOT
HETATM    1  O   UNK N   1      20.517  16.809   1.667  0.00  0.00    -0.631 OA
HETATM    2  P   UNK N   1      20.316  17.897   2.756  0.00  0.00     0.401 P 
ENDROOT
BRANCH   2   3
HETATM    3  O   UNK N   1      19.256  19.078   2.054  0.00  0.00    -0.307 OA
HETATM    4  H   UNK N   1      18.992  19.045   1.121  0.00  0.00     0.222 HD
ENDBRANCH   2   3
BRANCH   2   5
HETATM    5  O   UNK N   1      19.579  17.102   4.112  0.00  0.00    -0.294 OA
BRANCH   5   6
HETATM    6  C   UNK N   1      20.276  15.906   4.307  0.00  0.00     0.215 C 
BRANCH   6   7
HETATM    7  C   UNK N   1      21.032  15.988   5.622  0.00  0.00     0.180 C 
HETATM    8  C   UNK N   1      20.598  17.200   6.439  0.00  0.00     0.182 C 
HETATM    9  C   UNK N   1      20.960  16.708   7.801  0.00  0.00     0.198 C 
HETATM   10  C   UNK N   1      20.382  15.299   7.681  0.00  0.00     0.262 C 
HETATM   11  O   UNK N   1      20.774  14.833   6.404  0.00  0.00    -0.353 OA
BRANCH   8  12
HETATM   12  O   UNK N   1      21.270  18.369   6.074  0.00  0.00    -0.390 OA
HETATM   13  H   UNK N   1      20.860  19.133   5.639  0.00  0.00     0.210 HD
ENDBRANCH   8  12
BRANCH   9  14
HETATM   14  O   UNK N   1      20.368  17.461   8.817  0.00  0.00    -0.388 OA
HETATM   15  H   UNK N   1      20.487  18.245   9.377  0.00  0.00     0.210 HD
ENDBRANCH   9  14
BRANCH  10  16
HETATM   16  N   UNK N   1      20.820  14.355   8.713  0.00  0.00    -0.297 N 
HETATM   17  C   UNK N   1      20.053  13.977   9.769  0.00  0.00     0.188 A 
HETATM   18  N   UNK N   1      20.698  13.076  10.560  0.00  0.00    -0.346 N 
HETATM   19  C   UNK N   1      21.892  12.910   9.969  0.00  0.00     0.122 A 
ATOM     20  HN  UNK N   1      20.353  12.629  11.410  1.00  0.00     0.167 HD
HETATM   21  C   UNK N   1      22.958  12.105  10.335  0.00  0.00     0.131 A 
HETATM   22  C   UNK N   1      21.971  13.678   8.864  0.00  0.00     0.142 A 
HETATM   23  N   UNK N   1      24.075  12.126   9.550  0.00  0.00    -0.337 N 
HETATM   24  C   UNK N   1      24.139  12.923   8.433  0.00  0.00     0.183 A 
ATOM     25  HN  UNK N   1      24.875  11.542   9.798  1.00  0.00     0.168 HD
HETATM   26  N   UNK N   1      23.075  13.707   8.079  0.00  0.00    -0.336 N 
ATOM     27  HN  UNK N   1      23.112  14.297   7.249  1.00  0.00     0.168 HD
BRANCH  21  28
HETATM   28  N   UNK N   1      22.896  11.283  11.478  0.00  0.00    -0.383 N 
HETATM   29  H   UNK N   1      23.717  10.891  11.850  0.00  0.00     0.157 HD
HETATM   30  H   UNK N   1      22.027  11.101  11.904  0.00  0.00     0.157 HD
ENDBRANCH  21  28
ENDBRANCH  10  16
ENDBRANCH   6   7
ENDBRANCH   5   6
ENDBRANCH   2   5
BRANCH   2  31
HETATM   31  O   UNK N   1      21.891  18.566   3.090  0.00  0.00    -0.195 OA
BRANCH  31  32
HETATM   32  P   UNK N   1      21.864  20.264   2.678  0.00  0.00     0.401 P 
HETATM   33  O   UNK N   1      20.678  20.887   3.460  0.00  0.00    -0.631 OA
BRANCH  32  34
HETATM   34  O   UNK N   1      21.467  20.478   1.001  0.00  0.00    -0.307 OA
HETATM   35  H   UNK N   1      20.954  19.803   0.532  0.00  0.00     0.222 HD
ENDBRANCH  32  34
BRANCH  32  36
HETATM   36  O   UNK N   1      23.281  21.177   3.139  0.00  0.00    -0.296 OA
BRANCH  36  37
HETATM   37  C   UNK N   1      24.360  20.515   2.557  0.00  0.00     0.187 C 
BRANCH  37  38
HETATM   38  C   UNK N   1      24.855  19.371   3.435  0.00  0.00     0.043 C 
HETATM   39  C   UNK N   1      26.206  18.832   3.013  0.00  0.00     0.037 C 
HETATM   40  C   UNK N   1      26.597  17.889   4.161  0.00  0.00     0.120 C 
HETATM   41  C   UNK N   1      25.742  18.377   5.372  0.00  0.00     0.170 C 
HETATM   42  C   UNK N   1      25.122  19.696   4.898  0.00  0.00     0.155 C 
BRANCH  40  43
HETATM   43  N   UNK N   1      26.343  16.479   3.782  0.00  0.00    -0.358 N 
HETATM   44  C   UNK N   1      27.157  15.483   4.241  0.00  0.00     0.091 A 
HETATM   45  C   UNK N   1      26.907  14.149   3.896  0.00  0.00     0.018 A 
HETATM   46  C   UNK N   1      25.836  13.842   3.054  0.00  0.00     0.018 A 
HETATM   47  C   UNK N   1      25.023  14.869   2.565  0.00  0.00     0.030 A 
HETATM   48  C   UNK N   1      25.296  16.176   2.953  0.00  0.00     0.106 A 
BRANCH  47  49
HETATM   49  C   UNK N   1      23.905  14.604   1.635  0.00  0.00     0.145 C 
BRANCH  49  50
HETATM   50  N   UNK N   1      24.121  14.071   0.488  0.00  0.00    -0.379 N 
HETATM   51  H   UNK N   1      23.927  13.125   0.302  0.00  0.00     0.158 HD
ATOM     52  HN  UNK N   1      24.508  14.651  -0.256  1.00  0.00     0.158 HD
ENDBRANCH  49  50
BRANCH  49  53
HETATM   53  O   UNK N   1      22.645  14.941   1.982  0.00  0.00    -0.346 OA
HETATM   54  H   UNK N   1      22.287  15.762   1.707  0.00  0.00     0.219 HD
ENDBRANCH  49  53
ENDBRANCH  47  49
ENDBRANCH  40  43
BRANCH  41  55
HETATM   55  O   UNK N   1      24.699  17.480   5.629  0.00  0.00    -0.391 OA
HETATM   56  H   UNK N   1      24.206  16.704   5.319  0.00  0.00     0.210 HD
ENDBRANCH  41  55
BRANCH  42  57
HETATM   57  O   UNK N   1      26.059  20.733   5.005  0.00  0.00    -0.392 OA
HETATM   58  H   UNK N   1      26.958  20.962   4.721  0.00  0.00     0.210 HD
ENDBRANCH  42  57
ENDBRANCH  37  38
ENDBRANCH  36  37
ENDBRANCH  32  36
ENDBRANCH  31  32
ENDBRANCH   2  31
TORSDOF 20
ENDMDL
MODEL 9
REMARK VINA RESULT:      -7.3      9.761     13.615
REMARK  20 active torsions:
REMARK  status: ('A' for Active; 'I' for Inactive)
REMARK    1  A    between atoms: C_11  and  C_6 
REMARK    2  A    between atoms: O_43  and  C_6 
REMARK    3  A    between atoms: C_13  and  C_7 
REMARK    4  A    between atoms: O_44  and  C_7 
REMARK    5  A    between atoms: C_20  and  C_10 
REMARK    6  A    between atoms: C_12  and  N_32 
REMARK    7  A    between atoms: C_15  and  O_34 
REMARK    8  A    between atoms: C_16  and  O_35 
REMARK    9  A    between atoms: C_17  and  O_36 
REMARK   10  A    between atoms: C_18  and  O_37 
REMARK   11  A    between atoms: N_23  and  C_19 
REMARK   12  A    between atoms: N_24  and  C_20 
REMARK   13  A    between atoms: O_38  and  C_20 
REMARK   14  A    between atoms: C_22  and  N_33 
REMARK   15  A    between atoms: P_47  and  O_40 
REMARK   16  A    between atoms: P_48  and  O_42 
REMARK   17  A    between atoms: P_47  and  O_43 
REMARK   18  A    between atoms: P_48  and  O_44 
REMARK   19  A    between atoms: P_47  and  O_46 
REMARK   20  A    between atoms: P_48  and  O_46 
ROOT
HETATM    1  O   UNK N   1      37.456  13.643   7.652  0.00  0.00    -0.631 OA
HETATM    2  P   UNK N   1      36.799  13.258   9.005  0.00  0.00     0.401 P 
ENDROOT
BRANCH   2   3
HETATM    3  O   UNK N   1      38.077  12.614   9.985  0.00  0.00    -0.307 OA
HETATM    4  H   UNK N   1      38.395  11.703   9.886  0.00  0.00     0.222 HD
ENDBRANCH   2   3
BRANCH   2   5
HETATM    5  O   UNK N   1      36.158  14.726   9.673  0.00  0.00    -0.294 OA
BRANCH   5   6
HETATM    6  C   UNK N   1      34.814  14.482   9.974  0.00  0.00     0.215 C 
BRANCH   6   7
HETATM    7  C   UNK N   1      34.033  15.775   9.816  0.00  0.00     0.180 C 
HETATM    8  C   UNK N   1      34.913  16.892   9.265  0.00  0.00     0.182 C 
HETATM    9  C   UNK N   1      33.853  17.742   8.647  0.00  0.00     0.198 C 
HETATM   10  C   UNK N   1      33.063  16.632   7.957  0.00  0.00     0.262 C 
HETATM   11  O   UNK N   1      32.962  15.588   8.906  0.00  0.00    -0.353 OA
BRANCH   8  12
HETATM   12  O   UNK N   1      35.642  17.550  10.259  0.00  0.00    -0.390 OA
HETATM   13  H   UNK N   1      36.599  17.702  10.237  0.00  0.00     0.210 HD
ENDBRANCH   8  12
BRANCH   9  14
HETATM   14  O   UNK N   1      34.374  18.683   7.755  0.00  0.00    -0.388 OA
HETATM   15  H   UNK N   1      34.370  19.626   7.527  0.00  0.00     0.210 HD
ENDBRANCH   9  14
BRANCH  10  16
HETATM   16  N   UNK N   1      31.726  17.013   7.491  0.00  0.00    -0.297 N 
HETATM   17  C   UNK N   1      31.317  16.915   6.198  0.00  0.00     0.188 A 
HETATM   18  N   UNK N   1      30.026  17.318   6.050  0.00  0.00    -0.346 N 
HETATM   19  C   UNK N   1      29.645  17.677   7.287  0.00  0.00     0.122 A 
ATOM     20  HN  UNK N   1      29.472  17.343   5.192  1.00  0.00     0.167 HD
HETATM   21  C   UNK N   1      28.428  18.163   7.733  0.00  0.00     0.131 A 
HETATM   22  C   UNK N   1      30.662  17.499   8.153  0.00  0.00     0.142 A 
HETATM   23  N   UNK N   1      28.304  18.459   9.060  0.00  0.00    -0.337 N 
HETATM   24  C   UNK N   1      29.357  18.279   9.925  0.00  0.00     0.183 A 
ATOM     25  HN  UNK N   1      27.417  18.819   9.415  1.00  0.00     0.168 HD
HETATM   26  N   UNK N   1      30.551  17.790   9.471  0.00  0.00    -0.336 N 
ATOM     27  HN  UNK N   1      31.336  17.650  10.107  1.00  0.00     0.168 HD
BRANCH  21  28
HETATM   28  N   UNK N   1      27.344  18.344   6.851  0.00  0.00    -0.383 N 
HETATM   29  H   UNK N   1      26.955  19.239   6.722  0.00  0.00     0.157 HD
HETATM   30  H   UNK N   1      26.975  17.574   6.362  0.00  0.00     0.157 HD
ENDBRANCH  21  28
ENDBRANCH  10  16
ENDBRANCH   6   7
ENDBRANCH   5   6
ENDBRANCH   2   5
BRANCH   2  31
HETATM   31  O   UNK N   1      35.592  12.050   8.649  0.00  0.00    -0.195 OA
BRANCH  31  32
HETATM   32  P   UNK N   1      36.050  10.566   9.451  0.00  0.00     0.401 P 
HETATM   33  O   UNK N   1      37.398  10.126   8.824  0.00  0.00    -0.631 OA
BRANCH  32  34
HETATM   34  O   UNK N   1      34.931   9.295   9.065  0.00  0.00    -0.307 OA
HETATM   35  H   UNK N   1      35.154   8.373   9.264  0.00  0.00     0.222 HD
ENDBRANCH  32  34
BRANCH  32  36
HETATM   36  O   UNK N   1      36.333  10.692  11.171  0.00  0.00    -0.296 OA
BRANCH  36  37
HETATM   37  C   UNK N   1      35.111  11.066  11.726  0.00  0.00     0.187 C 
BRANCH  37  38
HETATM   38  C   UNK N   1      35.283  11.631  13.132  0.00  0.00     0.043 C 
HETATM   39  C   UNK N   1      36.419  10.991  13.901  0.00  0.00     0.037 C 
HETATM   40  C   UNK N   1      36.553  11.871  15.153  0.00  0.00     0.120 C 
HETATM   41  C   UNK N   1      35.895  13.226  14.746  0.00  0.00     0.170 C 
HETATM   42  C   UNK N   1      35.661  13.102  13.237  0.00  0.00     0.155 C 
BRANCH  40  43
HETATM   43  N   UNK N   1      35.905  11.219  16.316  0.00  0.00    -0.358 N 
HETATM   44  C   UNK N   1      35.166  10.083  16.149  0.00  0.00     0.091 A 
HETATM   45  C   UNK N   1      34.568   9.459  17.250  0.00  0.00     0.018 A 
HETATM   46  C   UNK N   1      34.706  10.021  18.522  0.00  0.00     0.018 A 
HETATM   47  C   UNK N   1      35.440  11.199  18.682  0.00  0.00     0.030 A 
HETATM   48  C   UNK N   1      36.035  11.771  17.563  0.00  0.00     0.106 A 
BRANCH  47  49
HETATM   49  C   UNK N   1      35.579  11.860  19.998  0.00  0.00     0.145 C 
BRANCH  49  50
HETATM   50  N   UNK N   1      34.955  12.951  20.250  0.00  0.00    -0.379 N 
HETATM   51  H   UNK N   1      34.189  12.989  20.867  0.00  0.00     0.158 HD
ATOM     52  HN  UNK N   1      35.264  13.810  19.794  1.00  0.00     0.158 HD
ENDBRANCH  49  50
BRANCH  49  53
HETATM   53  O   UNK N   1      36.386  11.325  20.939  0.00  0.00    -0.346 OA
HETATM   54  H   UNK N   1      37.195  10.924  20.690  0.00  0.00     0.219 HD
ENDBRANCH  49  53
ENDBRANCH  47  49
ENDBRANCH  40  43
BRANCH  41  55
HETATM   55  O   UNK N   1      34.648  13.371  15.364  0.00  0.00    -0.391 OA
HETATM   56  H   UNK N   1      34.166  13.453  16.202  0.00  0.00     0.210 HD
ENDBRANCH  41  55
BRANCH  42  57
HETATM   57  O   UNK N   1      36.854  13.351  12.544  0.00  0.00    -0.392 OA
HETATM   58  H   UNK N   1      37.763  13.019  12.475  0.00  0.00     0.210 HD
ENDBRANCH  42  57
ENDBRANCH  37  38
ENDBRANCH  36  37
ENDBRANCH  32  36
ENDBRANCH  31  32
ENDBRANCH   2  31
TORSDOF 20
ENDMDL
