MODEL 1
REMARK VINA RESULT:      -4.6      0.000      0.000
REMARK  17 active torsions:
REMARK  status: ('A' for Active; 'I' for Inactive)
REMARK    1  A    between atoms: C_3  and  C_2 
REMARK    2  A    between atoms: C_4  and  C_3 
REMARK    3  A    between atoms: C_11  and  C_4 
REMARK    4  A    between atoms: C_6  and  C_5 
REMARK    5  A    between atoms: C_7  and  C_5 
REMARK    6  A    between atoms: C_8  and  C_6 
REMARK    7  A    between atoms: C_9  and  C_7 
REMARK    8  A    between atoms: C_10  and  C_8 
REMARK    9  A    between atoms: C_13  and  C_10 
REMARK   10  A    between atoms: C_14  and  C_11 
REMARK   11  A    between atoms: C_15  and  C_12 
REMARK   12  A    between atoms: C_16  and  C_13 
REMARK   13  A    between atoms: C_17  and  C_14 
REMARK   14  A    between atoms: C_17  and  C_15 
REMARK   15  A    between atoms: C_18  and  C_16 
REMARK   16  A    between atoms: C_17  and  O_19 
REMARK   17  A    between atoms: O_21  and  C_18 
ROOT
HETATM    1  C   UNK N   1      29.733  23.471  -6.097  0.00  0.00    -0.031 C 
HETATM    2  C   UNK N   1      30.118  23.875  -4.877  0.00  0.00    -0.028 C 
ENDROOT
BRANCH   1   3
HETATM    3  C   UNK N   1      28.646  22.459  -6.299  0.00  0.00     0.027 C 
BRANCH   3   4
HETATM    4  C   UNK N   1      27.631  22.979  -7.306  0.00  0.00     0.004 C 
BRANCH   4   5
HETATM    5  C   UNK N   1      26.817  24.128  -6.738  0.00  0.00     0.000 C 
BRANCH   5   6
HETATM    6  C   UNK N   1      25.889  23.630  -5.646  0.00  0.00     0.000 C 
BRANCH   6   7
HETATM    7  C   UNK N   1      25.924  24.593  -4.476  0.00  0.00     0.001 C 
BRANCH   7   8
HETATM    8  C   UNK N   1      26.540  25.916  -4.893  0.00  0.00     0.010 C 
BRANCH   8   9
HETATM    9  C   UNK N   1      25.501  27.022  -4.793  0.00  0.00     0.110 C 
BRANCH   9  10
HETATM   10  C   UNK N   1      25.760  27.953  -3.648  0.00  0.00     0.139 C 
HETATM   11  O   UNK N   1      25.946  27.494  -2.534  0.00  0.00    -0.650 OA
BRANCH  10  12
HETATM   12  O   UNK N   1      25.773  29.288  -3.830  0.00  0.00    -0.776 OA
HETATM   13  H   UNK N   1      25.752  29.644  -4.697  0.00  0.00     0.167 HD
ENDBRANCH  10  12
ENDBRANCH   9  10
ENDBRANCH   8   9
ENDBRANCH   7   8
ENDBRANCH   6   7
ENDBRANCH   5   6
ENDBRANCH   4   5
ENDBRANCH   3   4
ENDBRANCH   1   3
BRANCH   2  14
HETATM   14  C   UNK N   1      29.456  23.365  -3.625  0.00  0.00     0.058 C 
BRANCH  14  15
HETATM   15  C   UNK N   1      30.379  22.554  -2.717  0.00  0.00     0.121 C 
BRANCH  15  16
HETATM   16  C   UNK N   1      31.811  22.558  -3.244  0.00  0.00     0.032 C 
BRANCH  16  17
HETATM   17  C   UNK N   1      32.352  21.147  -3.417  0.00  0.00     0.002 C 
BRANCH  17  18
HETATM   18  C   UNK N   1      32.526  20.831  -4.890  0.00  0.00     0.000 C 
BRANCH  18  19
HETATM   19  C   UNK N   1      31.303  20.092  -5.391  0.00  0.00    -0.000 C 
BRANCH  19  20
HETATM   20  C   UNK N   1      31.308  20.057  -6.905  0.00  0.00    -0.005 C 
HETATM   21  C   UNK N   1      30.066  19.342  -7.395  0.00  0.00     0.005 C 
ENDBRANCH  19  20
ENDBRANCH  18  19
ENDBRANCH  17  18
ENDBRANCH  16  17
ENDBRANCH  15  16
BRANCH  15  22
HETATM   22  O   UNK N   1      30.343  23.057  -1.415  0.00  0.00    -0.395 OA
HETATM   23  H   UNK N   1      29.535  23.106  -0.879  0.00  0.00     0.210 HD
ENDBRANCH  15  22
ENDBRANCH  14  15
ENDBRANCH   2  14
TORSDOF 17
ENDMDL
MODEL 2
REMARK VINA RESULT:      -4.6      1.851      6.758
REMARK  17 active torsions:
REMARK  status: ('A' for Active; 'I' for Inactive)
REMARK    1  A    between atoms: C_3  and  C_2 
REMARK    2  A    between atoms: C_4  and  C_3 
REMARK    3  A    between atoms: C_11  and  C_4 
REMARK    4  A    between atoms: C_6  and  C_5 
REMARK    5  A    between atoms: C_7  and  C_5 
REMARK    6  A    between atoms: C_8  and  C_6 
REMARK    7  A    between atoms: C_9  and  C_7 
REMARK    8  A    between atoms: C_10  and  C_8 
REMARK    9  A    between atoms: C_13  and  C_10 
REMARK   10  A    between atoms: C_14  and  C_11 
REMARK   11  A    between atoms: C_15  and  C_12 
REMARK   12  A    between atoms: C_16  and  C_13 
REMARK   13  A    between atoms: C_17  and  C_14 
REMARK   14  A    between atoms: C_17  and  C_15 
REMARK   15  A    between atoms: C_18  and  C_16 
REMARK   16  A    between atoms: C_17  and  O_19 
REMARK   17  A    between atoms: O_21  and  C_18 
ROOT
HETATM    1  C   UNK N   1      29.004  26.137  -4.931  0.00  0.00    -0.031 C 
HETATM    2  C   UNK N   1      28.711  27.442  -4.826  0.00  0.00    -0.028 C 
ENDROOT
BRANCH   1   3
HETATM    3  C   UNK N   1      28.526  25.126  -3.933  0.00  0.00     0.027 C 
BRANCH   3   4
HETATM    4  C   UNK N   1      27.871  23.956  -4.650  0.00  0.00     0.004 C 
BRANCH   4   5
HETATM    5  C   UNK N   1      28.436  23.766  -6.047  0.00  0.00     0.000 C 
BRANCH   5   6
HETATM    6  C   UNK N   1      28.992  22.364  -6.206  0.00  0.00     0.000 C 
BRANCH   6   7
HETATM    7  C   UNK N   1      30.443  22.344  -5.767  0.00  0.00     0.001 C 
BRANCH   7   8
HETATM    8  C   UNK N   1      30.720  21.130  -4.899  0.00  0.00     0.010 C 
BRANCH   8   9
HETATM    9  C   UNK N   1      30.217  21.383  -3.486  0.00  0.00     0.110 C 
BRANCH   9  10
HETATM   10  C   UNK N   1      31.228  22.085  -2.633  0.00  0.00     0.139 C 
HETATM   11  O   UNK N   1      31.037  23.245  -2.310  0.00  0.00    -0.650 OA
BRANCH  10  12
HETATM   12  O   UNK N   1      32.352  21.458  -2.231  0.00  0.00    -0.776 OA
HETATM   13  H   UNK N   1      33.189  21.760  -2.528  0.00  0.00     0.167 HD
ENDBRANCH  10  12
ENDBRANCH   9  10
ENDBRANCH   8   9
ENDBRANCH   7   8
ENDBRANCH   6   7
ENDBRANCH   5   6
ENDBRANCH   4   5
ENDBRANCH   3   4
ENDBRANCH   1   3
BRANCH   2  14
HETATM   14  C   UNK N   1      27.849  27.976  -3.714  0.00  0.00     0.058 C 
BRANCH  14  15
HETATM   15  C   UNK N   1      26.469  28.451  -4.166  0.00  0.00     0.121 C 
BRANCH  15  16
HETATM   16  C   UNK N   1      25.482  27.289  -4.229  0.00  0.00     0.032 C 
BRANCH  16  17
HETATM   17  C   UNK N   1      24.815  27.192  -5.593  0.00  0.00     0.002 C 
BRANCH  17  18
HETATM   18  C   UNK N   1      25.446  26.077  -6.405  0.00  0.00     0.000 C 
BRANCH  18  19
HETATM   19  C   UNK N   1      26.299  26.679  -7.502  0.00  0.00    -0.000 C 
BRANCH  19  20
HETATM   20  C   UNK N   1      26.534  25.653  -8.591  0.00  0.00    -0.005 C 
HETATM   21  C   UNK N   1      27.936  25.816  -9.140  0.00  0.00     0.005 C 
ENDBRANCH  19  20
ENDBRANCH  18  19
ENDBRANCH  17  18
ENDBRANCH  16  17
ENDBRANCH  15  16
BRANCH  15  22
HETATM   22  O   UNK N   1      25.992  29.443  -3.307  0.00  0.00    -0.395 OA
HETATM   23  H   UNK N   1      25.106  29.834  -3.375  0.00  0.00     0.210 HD
ENDBRANCH  15  22
ENDBRANCH  14  15
ENDBRANCH   2  14
TORSDOF 17
ENDMDL
MODEL 3
REMARK VINA RESULT:      -4.6      1.570      2.257
REMARK  17 active torsions:
REMARK  status: ('A' for Active; 'I' for Inactive)
REMARK    1  A    between atoms: C_3  and  C_2 
REMARK    2  A    between atoms: C_4  and  C_3 
REMARK    3  A    between atoms: C_11  and  C_4 
REMARK    4  A    between atoms: C_6  and  C_5 
REMARK    5  A    between atoms: C_7  and  C_5 
REMARK    6  A    between atoms: C_8  and  C_6 
REMARK    7  A    between atoms: C_9  and  C_7 
REMARK    8  A    between atoms: C_10  and  C_8 
REMARK    9  A    between atoms: C_13  and  C_10 
REMARK   10  A    between atoms: C_14  and  C_11 
REMARK   11  A    between atoms: C_15  and  C_12 
REMARK   12  A    between atoms: C_16  and  C_13 
REMARK   13  A    between atoms: C_17  and  C_14 
REMARK   14  A    between atoms: C_17  and  C_15 
REMARK   15  A    between atoms: C_18  and  C_16 
REMARK   16  A    between atoms: C_17  and  O_19 
REMARK   17  A    between atoms: O_21  and  C_18 
ROOT
HETATM    1  C   UNK N   1      28.254  23.835  -3.078  0.00  0.00    -0.031 C 
HETATM    2  C   UNK N   1      29.073  23.036  -2.379  0.00  0.00    -0.028 C 
ENDROOT
BRANCH   1   3
HETATM    3  C   UNK N   1      28.765  24.842  -4.063  0.00  0.00     0.027 C 
BRANCH   3   4
HETATM    4  C   UNK N   1      27.952  24.773  -5.347  0.00  0.00     0.004 C 
BRANCH   4   5
HETATM    5  C   UNK N   1      26.725  23.894  -5.188  0.00  0.00     0.000 C 
BRANCH   5   6
HETATM    6  C   UNK N   1      25.467  24.741  -5.163  0.00  0.00     0.000 C 
BRANCH   6   7
HETATM    7  C   UNK N   1      25.646  25.938  -6.075  0.00  0.00     0.001 C 
BRANCH   7   8
HETATM    8  C   UNK N   1      24.925  27.150  -5.513  0.00  0.00     0.010 C 
BRANCH   8   9
HETATM    9  C   UNK N   1      25.584  27.583  -4.213  0.00  0.00     0.110 C 
BRANCH   9  10
HETATM   10  C   UNK N   1      26.335  28.872  -4.350  0.00  0.00     0.139 C 
HETATM   11  O   UNK N   1      27.328  28.914  -5.056  0.00  0.00    -0.650 OA
BRANCH  10  12
HETATM   12  O   UNK N   1      25.937  29.979  -3.692  0.00  0.00    -0.776 OA
HETATM   13  H   UNK N   1      26.554  30.659  -3.501  0.00  0.00     0.167 HD
ENDBRANCH  10  12
ENDBRANCH   9  10
ENDBRANCH   8   9
ENDBRANCH   7   8
ENDBRANCH   6   7
ENDBRANCH   5   6
ENDBRANCH   4   5
ENDBRANCH   3   4
ENDBRANCH   1   3
BRANCH   2  14
HETATM   14  C   UNK N   1      30.567  23.072  -2.564  0.00  0.00     0.058 C 
BRANCH  14  15
HETATM   15  C   UNK N   1      31.173  21.745  -3.016  0.00  0.00     0.121 C 
BRANCH  15  16
HETATM   16  C   UNK N   1      31.647  21.823  -4.465  0.00  0.00     0.032 C 
BRANCH  16  17
HETATM   17  C   UNK N   1      30.479  21.869  -5.438  0.00  0.00     0.002 C 
BRANCH  17  18
HETATM   18  C   UNK N   1      30.406  20.576  -6.228  0.00  0.00     0.000 C 
BRANCH  18  19
HETATM   19  C   UNK N   1      29.239  20.645  -7.192  0.00  0.00    -0.000 C 
BRANCH  19  20
HETATM   20  C   UNK N   1      28.967  19.270  -7.767  0.00  0.00    -0.005 C 
HETATM   21  C   UNK N   1      30.207  18.768  -8.476  0.00  0.00     0.005 C 
ENDBRANCH  19  20
ENDBRANCH  18  19
ENDBRANCH  17  18
ENDBRANCH  16  17
ENDBRANCH  15  16
BRANCH  15  22
HETATM   22  O   UNK N   1      32.233  21.385  -2.181  0.00  0.00    -0.395 OA
HETATM   23  H   UNK N   1      33.166  21.520  -2.408  0.00  0.00     0.210 HD
ENDBRANCH  15  22
ENDBRANCH  14  15
ENDBRANCH   2  14
TORSDOF 17
ENDMDL
MODEL 4
REMARK VINA RESULT:      -4.6      2.249      6.770
REMARK  17 active torsions:
REMARK  status: ('A' for Active; 'I' for Inactive)
REMARK    1  A    between atoms: C_3  and  C_2 
REMARK    2  A    between atoms: C_4  and  C_3 
REMARK    3  A    between atoms: C_11  and  C_4 
REMARK    4  A    between atoms: C_6  and  C_5 
REMARK    5  A    between atoms: C_7  and  C_5 
REMARK    6  A    between atoms: C_8  and  C_6 
REMARK    7  A    between atoms: C_9  and  C_7 
REMARK    8  A    between atoms: C_10  and  C_8 
REMARK    9  A    between atoms: C_13  and  C_10 
REMARK   10  A    between atoms: C_14  and  C_11 
REMARK   11  A    between atoms: C_15  and  C_12 
REMARK   12  A    between atoms: C_16  and  C_13 
REMARK   13  A    between atoms: C_17  and  C_14 
REMARK   14  A    between atoms: C_17  and  C_15 
REMARK   15  A    between atoms: C_18  and  C_16 
REMARK   16  A    between atoms: C_17  and  O_19 
REMARK   17  A    between atoms: O_21  and  C_18 
ROOT
HETATM    1  C   UNK N   1      27.869  27.777  -6.681  0.00  0.00    -0.031 C 
HETATM    2  C   UNK N   1      26.897  28.406  -6.003  0.00  0.00    -0.028 C 
ENDROOT
BRANCH   1   3
HETATM    3  C   UNK N   1      29.320  27.952  -6.349  0.00  0.00     0.027 C 
BRANCH   3   4
HETATM    4  C   UNK N   1      29.845  26.714  -5.637  0.00  0.00     0.004 C 
BRANCH   4   5
HETATM    5  C   UNK N   1      30.131  26.989  -4.172  0.00  0.00     0.000 C 
BRANCH   5   6
HETATM    6  C   UNK N   1      30.929  25.850  -3.567  0.00  0.00     0.000 C 
BRANCH   6   7
HETATM    7  C   UNK N   1      31.839  25.254  -4.623  0.00  0.00     0.001 C 
BRANCH   7   8
HETATM    8  C   UNK N   1      32.099  23.787  -4.336  0.00  0.00     0.010 C 
BRANCH   8   9
HETATM    9  C   UNK N   1      31.202  23.318  -3.201  0.00  0.00     0.110 C 
BRANCH   9  10
HETATM   10  C   UNK N   1      31.327  21.848  -2.939  0.00  0.00     0.139 C 
HETATM   11  O   UNK N   1      30.531  21.079  -3.451  0.00  0.00    -0.650 OA
BRANCH  10  12
HETATM   12  O   UNK N   1      32.296  21.367  -2.134  0.00  0.00    -0.776 OA
HETATM   13  H   UNK N   1      32.841  20.663  -2.426  0.00  0.00     0.167 HD
ENDBRANCH  10  12
ENDBRANCH   9  10
ENDBRANCH   8   9
ENDBRANCH   7   8
ENDBRANCH   6   7
ENDBRANCH   5   6
ENDBRANCH   4   5
ENDBRANCH   3   4
ENDBRANCH   1   3
BRANCH   2  14
HETATM   14  C   UNK N   1      27.198  29.307  -4.835  0.00  0.00     0.058 C 
BRANCH  14  15
HETATM   15  C   UNK N   1      26.334  29.042  -3.603  0.00  0.00     0.121 C 
BRANCH  15  16
HETATM   16  C   UNK N   1      25.611  27.703  -3.717  0.00  0.00     0.032 C 
BRANCH  16  17
HETATM   17  C   UNK N   1      26.444  26.563  -3.150  0.00  0.00     0.002 C 
BRANCH  17  18
HETATM   18  C   UNK N   1      26.332  25.341  -4.041  0.00  0.00     0.000 C 
BRANCH  18  19
HETATM   19  C   UNK N   1      27.408  24.345  -3.662  0.00  0.00    -0.000 C 
BRANCH  19  20
HETATM   20  C   UNK N   1      27.965  23.691  -4.909  0.00  0.00    -0.005 C 
HETATM   21  C   UNK N   1      27.158  24.133  -6.111  0.00  0.00     0.005 C 
ENDBRANCH  19  20
ENDBRANCH  18  19
ENDBRANCH  17  18
ENDBRANCH  16  17
ENDBRANCH  15  16
BRANCH  15  22
HETATM   22  O   UNK N   1      27.116  29.071  -2.447  0.00  0.00    -0.395 OA
HETATM   23  H   UNK N   1      28.023  28.730  -2.401  0.00  0.00     0.210 HD
ENDBRANCH  15  22
ENDBRANCH  14  15
ENDBRANCH   2  14
TORSDOF 17
ENDMDL
MODEL 5
REMARK VINA RESULT:      -4.6      2.824      6.121
REMARK  17 active torsions:
REMARK  status: ('A' for Active; 'I' for Inactive)
REMARK    1  A    between atoms: C_3  and  C_2 
REMARK    2  A    between atoms: C_4  and  C_3 
REMARK    3  A    between atoms: C_11  and  C_4 
REMARK    4  A    between atoms: C_6  and  C_5 
REMARK    5  A    between atoms: C_7  and  C_5 
REMARK    6  A    between atoms: C_8  and  C_6 
REMARK    7  A    between atoms: C_9  and  C_7 
REMARK    8  A    between atoms: C_10  and  C_8 
REMARK    9  A    between atoms: C_13  and  C_10 
REMARK   10  A    between atoms: C_14  and  C_11 
REMARK   11  A    between atoms: C_15  and  C_12 
REMARK   12  A    between atoms: C_16  and  C_13 
REMARK   13  A    between atoms: C_17  and  C_14 
REMARK   14  A    between atoms: C_17  and  C_15 
REMARK   15  A    between atoms: C_18  and  C_16 
REMARK   16  A    between atoms: C_17  and  O_19 
REMARK   17  A    between atoms: O_21  and  C_18 
ROOT
HETATM    1  C   UNK N   1      31.086  22.391  -3.380  0.00  0.00    -0.031 C 
HETATM    2  C   UNK N   1      30.329  23.344  -2.817  0.00  0.00    -0.028 C 
ENDROOT
BRANCH   1   3
HETATM    3  C   UNK N   1      30.521  21.073  -3.817  0.00  0.00     0.027 C 
BRANCH   3   4
HETATM    4  C   UNK N   1      31.096  20.683  -5.170  0.00  0.00     0.004 C 
BRANCH   4   5
HETATM    5  C   UNK N   1      30.558  21.563  -6.284  0.00  0.00     0.000 C 
BRANCH   5   6
HETATM    6  C   UNK N   1      29.044  21.489  -6.332  0.00  0.00     0.000 C 
BRANCH   6   7
HETATM    7  C   UNK N   1      28.600  21.156  -7.743  0.00  0.00     0.001 C 
BRANCH   7   8
HETATM    8  C   UNK N   1      27.484  22.085  -8.184  0.00  0.00     0.010 C 
BRANCH   8   9
HETATM    9  C   UNK N   1      26.210  21.286  -8.414  0.00  0.00     0.110 C 
BRANCH   9  10
HETATM   10  C   UNK N   1      24.996  21.970  -7.864  0.00  0.00     0.139 C 
HETATM   11  O   UNK N   1      24.468  22.861  -8.508  0.00  0.00    -0.650 OA
BRANCH  10  12
HETATM   12  O   UNK N   1      24.490  21.625  -6.663  0.00  0.00    -0.776 OA
HETATM   13  H   UNK N   1      23.884  20.912  -6.596  0.00  0.00     0.167 HD
ENDBRANCH  10  12
ENDBRANCH   9  10
ENDBRANCH   8   9
ENDBRANCH   7   8
ENDBRANCH   6   7
ENDBRANCH   5   6
ENDBRANCH   4   5
ENDBRANCH   3   4
ENDBRANCH   1   3
BRANCH   2  14
HETATM   14  C   UNK N   1      28.847  23.167  -2.617  0.00  0.00     0.058 C 
BRANCH  14  15
HETATM   15  C   UNK N   1      28.000  24.308  -3.178  0.00  0.00     0.121 C 
BRANCH  15  16
HETATM   16  C   UNK N   1      27.976  24.274  -4.704  0.00  0.00     0.032 C 
BRANCH  16  17
HETATM   17  C   UNK N   1      26.558  24.169  -5.243  0.00  0.00     0.002 C 
BRANCH  17  18
HETATM   18  C   UNK N   1      26.284  25.297  -6.219  0.00  0.00     0.000 C 
BRANCH  18  19
HETATM   19  C   UNK N   1      25.120  26.124  -5.713  0.00  0.00    -0.000 C 
BRANCH  19  20
HETATM   20  C   UNK N   1      25.595  27.520  -5.366  0.00  0.00    -0.005 C 
HETATM   21  C   UNK N   1      25.760  27.635  -3.865  0.00  0.00     0.005 C 
ENDBRANCH  19  20
ENDBRANCH  18  19
ENDBRANCH  17  18
ENDBRANCH  16  17
ENDBRANCH  15  16
BRANCH  15  22
HETATM   22  O   UNK N   1      26.700  24.241  -2.674  0.00  0.00    -0.395 OA
HETATM   23  H   UNK N   1      25.995  24.862  -2.919  0.00  0.00     0.210 HD
ENDBRANCH  15  22
ENDBRANCH  14  15
ENDBRANCH   2  14
TORSDOF 17
ENDMDL
MODEL 6
REMARK VINA RESULT:      -4.6     12.196     16.004
REMARK  17 active torsions:
REMARK  status: ('A' for Active; 'I' for Inactive)
REMARK    1  A    between atoms: C_3  and  C_2 
REMARK    2  A    between atoms: C_4  and  C_3 
REMARK    3  A    between atoms: C_11  and  C_4 
REMARK    4  A    between atoms: C_6  and  C_5 
REMARK    5  A    between atoms: C_7  and  C_5 
REMARK    6  A    between atoms: C_8  and  C_6 
REMARK    7  A    between atoms: C_9  and  C_7 
REMARK    8  A    between atoms: C_10  and  C_8 
REMARK    9  A    between atoms: C_13  and  C_10 
REMARK   10  A    between atoms: C_14  and  C_11 
REMARK   11  A    between atoms: C_15  and  C_12 
REMARK   12  A    between atoms: C_16  and  C_13 
REMARK   13  A    between atoms: C_17  and  C_14 
REMARK   14  A    between atoms: C_17  and  C_15 
REMARK   15  A    between atoms: C_18  and  C_16 
REMARK   16  A    between atoms: C_17  and  O_19 
REMARK   17  A    between atoms: O_21  and  C_18 
ROOT
HETATM    1  C   UNK N   1      31.897  18.084   8.195  0.00  0.00    -0.031 C 
HETATM    2  C   UNK N   1      30.834  18.134   9.012  0.00  0.00    -0.028 C 
ENDROOT
BRANCH   1   3
HETATM    3  C   UNK N   1      31.936  17.202   6.984  0.00  0.00     0.027 C 
BRANCH   3   4
HETATM    4  C   UNK N   1      33.272  17.353   6.272  0.00  0.00     0.004 C 
BRANCH   4   5
HETATM    5  C   UNK N   1      33.967  16.015   6.093  0.00  0.00     0.000 C 
BRANCH   5   6
HETATM    6  C   UNK N   1      33.402  14.992   7.061  0.00  0.00     0.000 C 
BRANCH   6   7
HETATM    7  C   UNK N   1      34.387  14.768   8.191  0.00  0.00     0.001 C 
BRANCH   7   8
HETATM    8  C   UNK N   1      33.781  15.188   9.517  0.00  0.00     0.010 C 
BRANCH   8   9
HETATM    9  C   UNK N   1      34.811  15.029  10.625  0.00  0.00     0.110 C 
BRANCH   9  10
HETATM   10  C   UNK N   1      35.712  16.219  10.748  0.00  0.00     0.139 C 
HETATM   11  O   UNK N   1      35.244  17.339  10.630  0.00  0.00    -0.650 OA
BRANCH  10  12
HETATM   12  O   UNK N   1      37.033  16.069  10.969  0.00  0.00    -0.776 OA
HETATM   13  H   UNK N   1      37.334  15.674  11.765  0.00  0.00     0.167 HD
ENDBRANCH  10  12
ENDBRANCH   9  10
ENDBRANCH   8   9
ENDBRANCH   7   8
ENDBRANCH   6   7
ENDBRANCH   5   6
ENDBRANCH   4   5
ENDBRANCH   3   4
ENDBRANCH   1   3
BRANCH   2  14
HETATM   14  C   UNK N   1      29.590  17.329   8.746  0.00  0.00     0.058 C 
BRANCH  14  15
HETATM   15  C   UNK N   1      28.383  18.165   8.325  0.00  0.00     0.121 C 
BRANCH  15  16
HETATM   16  C   UNK N   1      27.851  17.716   6.967  0.00  0.00     0.032 C 
BRANCH  16  17
HETATM   17  C   UNK N   1      28.373  18.594   5.840  0.00  0.00     0.002 C 
BRANCH  17  18
HETATM   18  C   UNK N   1      27.332  18.709   4.742  0.00  0.00     0.000 C 
BRANCH  18  19
HETATM   19  C   UNK N   1      26.617  20.039   4.869  0.00  0.00    -0.000 C 
BRANCH  19  20
HETATM   20  C   UNK N   1      27.445  20.989   5.709  0.00  0.00    -0.005 C 
HETATM   21  C   UNK N   1      26.558  21.647   6.744  0.00  0.00     0.005 C 
ENDBRANCH  19  20
ENDBRANCH  18  19
ENDBRANCH  17  18
ENDBRANCH  16  17
ENDBRANCH  15  16
BRANCH  15  22
HETATM   22  O   UNK N   1      27.376  18.084   9.288  0.00  0.00    -0.395 OA
HETATM   23  H   UNK N   1      27.501  18.327  10.219  0.00  0.00     0.210 HD
ENDBRANCH  15  22
ENDBRANCH  14  15
ENDBRANCH   2  14
TORSDOF 17
ENDMDL
MODEL 7
REMARK VINA RESULT:      -4.5      2.717      6.939
REMARK  17 active torsions:
REMARK  status: ('A' for Active; 'I' for Inactive)
REMARK    1  A    between atoms: C_3  and  C_2 
REMARK    2  A    between atoms: C_4  and  C_3 
REMARK    3  A    between atoms: C_11  and  C_4 
REMARK    4  A    between atoms: C_6  and  C_5 
REMARK    5  A    between atoms: C_7  and  C_5 
REMARK    6  A    between atoms: C_8  and  C_6 
REMARK    7  A    between atoms: C_9  and  C_7 
REMARK    8  A    between atoms: C_10  and  C_8 
REMARK    9  A    between atoms: C_13  and  C_10 
REMARK   10  A    between atoms: C_14  and  C_11 
REMARK   11  A    between atoms: C_15  and  C_12 
REMARK   12  A    between atoms: C_16  and  C_13 
REMARK   13  A    between atoms: C_17  and  C_14 
REMARK   14  A    between atoms: C_17  and  C_15 
REMARK   15  A    between atoms: C_18  and  C_16 
REMARK   16  A    between atoms: C_17  and  O_19 
REMARK   17  A    between atoms: O_21  and  C_18 
ROOT
HETATM    1  C   UNK N   1      29.329  30.170  -4.891  0.00  0.00    -0.031 C 
HETATM    2  C   UNK N   1      28.005  30.385  -4.877  0.00  0.00    -0.028 C 
ENDROOT
BRANCH   1   3
HETATM    3  C   UNK N   1      29.915  28.795  -5.012  0.00  0.00     0.027 C 
BRANCH   3   4
HETATM    4  C   UNK N   1      30.455  28.339  -3.665  0.00  0.00     0.004 C 
BRANCH   4   5
HETATM    5  C   UNK N   1      30.425  26.827  -3.532  0.00  0.00     0.000 C 
BRANCH   5   6
HETATM    6  C   UNK N   1      29.155  26.267  -4.146  0.00  0.00     0.000 C 
BRANCH   6   7
HETATM    7  C   UNK N   1      29.448  24.915  -4.766  0.00  0.00     0.001 C 
BRANCH   7   8
HETATM    8  C   UNK N   1      28.429  23.887  -4.310  0.00  0.00     0.010 C 
BRANCH   8   9
HETATM    9  C   UNK N   1      28.570  23.651  -2.814  0.00  0.00     0.110 C 
BRANCH   9  10
HETATM   10  C   UNK N   1      29.766  22.815  -2.474  0.00  0.00     0.139 C 
HETATM   11  O   UNK N   1      30.444  23.106  -1.504  0.00  0.00    -0.650 OA
BRANCH  10  12
HETATM   12  O   UNK N   1      30.109  21.756  -3.235  0.00  0.00    -0.776 OA
HETATM   13  H   UNK N   1      30.037  21.805  -4.168  0.00  0.00     0.167 HD
ENDBRANCH  10  12
ENDBRANCH   9  10
ENDBRANCH   8   9
ENDBRANCH   7   8
ENDBRANCH   6   7
ENDBRANCH   5   6
ENDBRANCH   4   5
ENDBRANCH   3   4
ENDBRANCH   1   3
BRANCH   2  14
HETATM   14  C   UNK N   1      27.015  29.260  -5.017  0.00  0.00     0.058 C 
BRANCH  14  15
HETATM   15  C   UNK N   1      26.213  28.972  -3.749  0.00  0.00     0.121 C 
BRANCH  15  16
HETATM   16  C   UNK N   1      25.533  27.607  -3.828  0.00  0.00     0.032 C 
BRANCH  16  17
HETATM   17  C   UNK N   1      25.212  27.220  -5.264  0.00  0.00     0.002 C 
BRANCH  17  18
HETATM   18  C   UNK N   1      25.394  25.727  -5.455  0.00  0.00     0.000 C 
BRANCH  18  19
HETATM   19  C   UNK N   1      25.885  25.459  -6.863  0.00  0.00    -0.000 C 
BRANCH  19  20
HETATM   20  C   UNK N   1      26.429  26.737  -7.468  0.00  0.00    -0.005 C 
HETATM   21  C   UNK N   1      27.921  26.595  -7.682  0.00  0.00     0.005 C 
ENDBRANCH  19  20
ENDBRANCH  18  19
ENDBRANCH  17  18
ENDBRANCH  16  17
ENDBRANCH  15  16
BRANCH  15  22
HETATM   22  O   UNK N   1      27.041  29.033  -2.627  0.00  0.00    -0.395 OA
HETATM   23  H   UNK N   1      27.593  29.800  -2.407  0.00  0.00     0.210 HD
ENDBRANCH  15  22
ENDBRANCH  14  15
ENDBRANCH   2  14
TORSDOF 17
ENDMDL
MODEL 8
REMARK VINA RESULT:      -4.5      1.975      6.914
REMARK  17 active torsions:
REMARK  status: ('A' for Active; 'I' for Inactive)
REMARK    1  A    between atoms: C_3  and  C_2 
REMARK    2  A    between atoms: C_4  and  C_3 
REMARK    3  A    between atoms: C_11  and  C_4 
REMARK    4  A    between atoms: C_6  and  C_5 
REMARK    5  A    between atoms: C_7  and  C_5 
REMARK    6  A    between atoms: C_8  and  C_6 
REMARK    7  A    between atoms: C_9  and  C_7 
REMARK    8  A    between atoms: C_10  and  C_8 
REMARK    9  A    between atoms: C_13  and  C_10 
REMARK   10  A    between atoms: C_14  and  C_11 
REMARK   11  A    between atoms: C_15  and  C_12 
REMARK   12  A    between atoms: C_16  and  C_13 
REMARK   13  A    between atoms: C_17  and  C_14 
REMARK   14  A    between atoms: C_17  and  C_15 
REMARK   15  A    between atoms: C_18  and  C_16 
REMARK   16  A    between atoms: C_17  and  O_19 
REMARK   17  A    between atoms: O_21  and  C_18 
ROOT
HETATM    1  C   UNK N   1      29.103  27.925  -3.919  0.00  0.00    -0.031 C 
HETATM    2  C   UNK N   1      27.957  28.578  -3.672  0.00  0.00    -0.028 C 
ENDROOT
BRANCH   1   3
HETATM    3  C   UNK N   1      29.398  27.302  -5.250  0.00  0.00     0.027 C 
BRANCH   3   4
HETATM    4  C   UNK N   1      29.691  25.819  -5.077  0.00  0.00     0.004 C 
BRANCH   4   5
HETATM    5  C   UNK N   1      29.298  25.327  -3.695  0.00  0.00     0.000 C 
BRANCH   5   6
HETATM    6  C   UNK N   1      28.680  23.944  -3.781  0.00  0.00     0.000 C 
BRANCH   6   7
HETATM    7  C   UNK N   1      29.252  23.067  -2.685  0.00  0.00     0.001 C 
BRANCH   7   8
HETATM    8  C   UNK N   1      30.759  23.230  -2.603  0.00  0.00     0.010 C 
BRANCH   8   9
HETATM    9  C   UNK N   1      31.418  22.491  -3.758  0.00  0.00     0.110 C 
BRANCH   9  10
HETATM   10  C   UNK N   1      32.235  21.321  -3.301  0.00  0.00     0.139 C 
HETATM   11  O   UNK N   1      32.456  20.407  -4.076  0.00  0.00    -0.650 OA
BRANCH  10  12
HETATM   12  O   UNK N   1      32.713  21.260  -2.042  0.00  0.00    -0.776 OA
HETATM   13  H   UNK N   1      33.612  21.040  -1.892  0.00  0.00     0.167 HD
ENDBRANCH  10  12
ENDBRANCH   9  10
ENDBRANCH   8   9
ENDBRANCH   7   8
ENDBRANCH   6   7
ENDBRANCH   5   6
ENDBRANCH   4   5
ENDBRANCH   3   4
ENDBRANCH   1   3
BRANCH   2  14
HETATM   14  C   UNK N   1      26.902  28.760  -4.730  0.00  0.00     0.058 C 
BRANCH  14  15
HETATM   15  C   UNK N   1      25.519  28.250  -4.328  0.00  0.00     0.121 C 
BRANCH  15  16
HETATM   16  C   UNK N   1      25.068  27.112  -5.239  0.00  0.00     0.032 C 
BRANCH  16  17
HETATM   17  C   UNK N   1      25.903  27.040  -6.507  0.00  0.00     0.002 C 
BRANCH  17  18
HETATM   18  C   UNK N   1      26.374  25.618  -6.743  0.00  0.00     0.000 C 
BRANCH  18  19
HETATM   19  C   UNK N   1      25.774  24.711  -5.689  0.00  0.00    -0.000 C 
BRANCH  19  20
HETATM   20  C   UNK N   1      25.785  23.277  -6.178  0.00  0.00    -0.005 C 
HETATM   21  C   UNK N   1      27.144  22.957  -6.766  0.00  0.00     0.005 C 
ENDBRANCH  19  20
ENDBRANCH  18  19
ENDBRANCH  17  18
ENDBRANCH  16  17
ENDBRANCH  15  16
BRANCH  15  22
HETATM   22  O   UNK N   1      25.526  27.829  -2.997  0.00  0.00    -0.395 OA
HETATM   23  H   UNK N   1      25.153  28.348  -2.267  0.00  0.00     0.210 HD
ENDBRANCH  15  22
ENDBRANCH  14  15
ENDBRANCH   2  14
TORSDOF 17
ENDMDL
MODEL 9
REMARK VINA RESULT:      -4.5      3.060      5.615
REMARK  17 active torsions:
REMARK  status: ('A' for Active; 'I' for Inactive)
REMARK    1  A    between atoms: C_3  and  C_2 
REMARK    2  A    between atoms: C_4  and  C_3 
REMARK    3  A    between atoms: C_11  and  C_4 
REMARK    4  A    between atoms: C_6  and  C_5 
REMARK    5  A    between atoms: C_7  and  C_5 
REMARK    6  A    between atoms: C_8  and  C_6 
REMARK    7  A    between atoms: C_9  and  C_7 
REMARK    8  A    between atoms: C_10  and  C_8 
REMARK    9  A    between atoms: C_13  and  C_10 
REMARK   10  A    between atoms: C_14  and  C_11 
REMARK   11  A    between atoms: C_15  and  C_12 
REMARK   12  A    between atoms: C_16  and  C_13 
REMARK   13  A    between atoms: C_17  and  C_14 
REMARK   14  A    between atoms: C_17  and  C_15 
REMARK   15  A    between atoms: C_18  and  C_16 
REMARK   16  A    between atoms: C_17  and  O_19 
REMARK   17  A    between atoms: O_21  and  C_18 
ROOT
HETATM    1  C   UNK N   1      26.026  26.539  -7.190  0.00  0.00    -0.031 C 
HETATM    2  C   UNK N   1      25.227  26.648  -6.118  0.00  0.00    -0.028 C 
ENDROOT
BRANCH   1   3
HETATM    3  C   UNK N   1      27.278  27.349  -7.341  0.00  0.00     0.027 C 
BRANCH   3   4
HETATM    4  C   UNK N   1      28.496  26.481  -7.064  0.00  0.00     0.004 C 
BRANCH   4   5
HETATM    5  C   UNK N   1      28.809  25.563  -8.232  0.00  0.00     0.000 C 
BRANCH   5   6
HETATM    6  C   UNK N   1      28.939  24.128  -7.757  0.00  0.00     0.000 C 
BRANCH   6   7
HETATM    7  C   UNK N   1      27.642  23.389  -8.020  0.00  0.00     0.001 C 
BRANCH   7   8
HETATM    8  C   UNK N   1      27.220  22.600  -6.794  0.00  0.00     0.010 C 
BRANCH   8   9
HETATM    9  C   UNK N   1      25.707  22.651  -6.646  0.00  0.00     0.110 C 
BRANCH   9  10
HETATM   10  C   UNK N   1      25.000  21.835  -7.684  0.00  0.00     0.139 C 
HETATM   11  O   UNK N   1      24.118  22.350  -8.351  0.00  0.00    -0.650 OA
BRANCH  10  12
HETATM   12  O   UNK N   1      25.313  20.539  -7.879  0.00  0.00    -0.776 OA
HETATM   13  H   UNK N   1      25.615  20.250  -8.718  0.00  0.00     0.167 HD
ENDBRANCH  10  12
ENDBRANCH   9  10
ENDBRANCH   8   9
ENDBRANCH   7   8
ENDBRANCH   6   7
ENDBRANCH   5   6
ENDBRANCH   4   5
ENDBRANCH   3   4
ENDBRANCH   1   3
BRANCH   2  14
HETATM   14  C   UNK N   1      25.555  27.569  -4.973  0.00  0.00     0.058 C 
BRANCH  14  15
HETATM   15  C   UNK N   1      25.924  26.849  -3.677  0.00  0.00     0.121 C 
BRANCH  15  16
HETATM   16  C   UNK N   1      27.329  26.259  -3.758  0.00  0.00     0.032 C 
BRANCH  16  17
HETATM   17  C   UNK N   1      27.306  24.739  -3.697  0.00  0.00     0.002 C 
BRANCH  17  18
HETATM   18  C   UNK N   1      28.714  24.189  -3.831  0.00  0.00     0.000 C 
BRANCH  18  19
HETATM   19  C   UNK N   1      28.996  23.251  -2.676  0.00  0.00    -0.000 C 
BRANCH  19  20
HETATM   20  C   UNK N   1      30.079  22.267  -3.066  0.00  0.00    -0.005 C 
HETATM   21  C   UNK N   1      30.149  22.170  -4.576  0.00  0.00     0.005 C 
ENDBRANCH  19  20
ENDBRANCH  18  19
ENDBRANCH  17  18
ENDBRANCH  16  17
ENDBRANCH  15  16
BRANCH  15  22
HETATM   22  O   UNK N   1      25.830  27.722  -2.592  0.00  0.00    -0.395 OA
HETATM   23  H   UNK N   1      26.114  27.495  -1.692  0.00  0.00     0.210 HD
ENDBRANCH  15  22
ENDBRANCH  14  15
ENDBRANCH   2  14
TORSDOF 17
ENDMDL
