MODEL 1
REMARK VINA RESULT:      -6.9      0.000      0.000
REMARK  7 active torsions:
REMARK  status: ('A' for Active; 'I' for Inactive)
REMARK    1  A    between atoms: N_1  and  S_2 
REMARK    2  A    between atoms: S_2  and  C_5 
REMARK    3  A    between atoms: C_7  and  C_23 
REMARK    4  A    between atoms: C_9  and  N_10 
REMARK    5  A    between atoms: C_15  and  O_16 
REMARK    6  A    between atoms: O_16  and  C_17 
REMARK    7  A    between atoms: C_23  and  O_24 
ROOT
HETATM    1  C   UNK N   1      29.191  18.022   7.968  0.00  0.00     0.116 A 
HETATM    2  C   UNK N   1      28.143  18.676   7.266  0.00  0.00     0.046 A 
HETATM    3  C   UNK N   1      28.046  18.695   5.886  0.00  0.00     0.041 A 
HETATM    4  C   UNK N   1      29.019  18.068   5.131  0.00  0.00     0.050 A 
HETATM    5  C   UNK N   1      30.093  17.390   5.718  0.00  0.00     0.067 A 
HETATM    6  C   UNK N   1      30.190  17.317   7.146  0.00  0.00     0.126 A 
ENDROOT
BRANCH   6   7
HETATM    7  O   UNK N   1      31.278  16.643   7.646  0.00  0.00    -0.307 OA
BRANCH   7   8
HETATM    8  C   UNK N   1      32.540  16.908   8.085  0.00  0.00     0.076 A 
HETATM    9  C   UNK N   1      33.234  18.086   7.791  0.00  0.00     0.037 A 
HETATM   10  C   UNK N   1      34.523  18.303   8.289  0.00  0.00     0.003 A 
HETATM   11  C   UNK N   1      35.119  17.351   9.116  0.00  0.00     0.000 A 
HETATM   12  C   UNK N   1      34.425  16.185   9.446  0.00  0.00     0.003 A 
HETATM   13  C   UNK N   1      33.143  15.969   8.933  0.00  0.00     0.037 A 
ENDBRANCH   7   8
ENDBRANCH   6   7
BRANCH   5  14
HETATM   14  N   UNK N   1      31.085  16.828   4.839  0.00  0.00    -0.379 N 
HETATM   15  C   UNK N   1      32.150  17.578   4.230  0.00  0.00     0.123 C 
HETATM   16  C   UNK N   1      32.874  16.601   3.324  0.00  0.00     0.021 C 
HETATM   17  C   UNK N   1      32.017  15.343   3.269  0.00  0.00     0.021 C 
HETATM   18  C   UNK N   1      31.000  15.466   4.387  0.00  0.00     0.123 C 
ENDBRANCH   5  14
BRANCH   1  19
HETATM   19  S   UNK N   1      29.190  18.133   9.878  0.00  0.00     0.259 S 
HETATM   20  O   UNK N   1      27.758  17.955   9.356  0.00  0.00    -0.201 OA
HETATM   21  O   UNK N   1      30.142  19.083   9.130  0.00  0.00    -0.201 OA
BRANCH  19  22
HETATM   22  N   UNK N   1      29.897  16.510   9.861  0.00  0.00    -0.324 N 
HETATM   23  H   UNK N   1      30.491  16.139  10.604  0.00  0.00     0.169 HD
HETATM   24  H   UNK N   1      29.700  15.909   9.061  0.00  0.00     0.169 HD
ENDBRANCH  19  22
ENDBRANCH   1  19
BRANCH   3  25
HETATM   25  C   UNK N   1      26.929  19.404   5.233  0.00  0.00     0.176 C 
HETATM   26  O   UNK N   1      27.116  20.040   4.207  0.00  0.00    -0.646 OA
BRANCH  25  27
HETATM   27  O   UNK N   1      25.691  19.357   5.766  0.00  0.00    -0.773 OA
HETATM   28  H   UNK N   1      24.942  19.227   5.218  0.00  0.00     0.167 HD
ENDBRANCH  25  27
ENDBRANCH   3  25
TORSDOF 7
ENDMDL
MODEL 2
REMARK VINA RESULT:      -6.7      2.607      4.717
REMARK  7 active torsions:
REMARK  status: ('A' for Active; 'I' for Inactive)
REMARK    1  A    between atoms: N_1  and  S_2 
REMARK    2  A    between atoms: S_2  and  C_5 
REMARK    3  A    between atoms: C_7  and  C_23 
REMARK    4  A    between atoms: C_9  and  N_10 
REMARK    5  A    between atoms: C_15  and  O_16 
REMARK    6  A    between atoms: O_16  and  C_17 
REMARK    7  A    between atoms: C_23  and  O_24 
ROOT
HETATM    1  C   UNK N   1      30.243  17.021   5.921  0.00  0.00     0.116 A 
HETATM    2  C   UNK N   1      29.175  17.347   6.798  0.00  0.00     0.046 A 
HETATM    3  C   UNK N   1      29.307  17.399   8.174  0.00  0.00     0.041 A 
HETATM    4  C   UNK N   1      30.530  17.104   8.748  0.00  0.00     0.050 A 
HETATM    5  C   UNK N   1      31.652  16.775   7.979  0.00  0.00     0.067 A 
HETATM    6  C   UNK N   1      31.551  16.759   6.549  0.00  0.00     0.126 A 
ENDROOT
BRANCH   6   7
HETATM    7  O   UNK N   1      32.692  16.418   5.865  0.00  0.00    -0.307 OA
BRANCH   7   8
HETATM    8  C   UNK N   1      33.553  15.367   5.761  0.00  0.00     0.076 A 
HETATM    9  C   UNK N   1      34.946  15.498   5.776  0.00  0.00     0.037 A 
HETATM   10  C   UNK N   1      35.773  14.374   5.682  0.00  0.00     0.003 A 
HETATM   11  C   UNK N   1      35.211  13.099   5.602  0.00  0.00     0.000 A 
HETATM   12  C   UNK N   1      33.822  12.951   5.619  0.00  0.00     0.003 A 
HETATM   13  C   UNK N   1      33.001  14.080   5.700  0.00  0.00     0.037 A 
ENDBRANCH   7   8
ENDBRANCH   6   7
BRANCH   5  14
HETATM   14  N   UNK N   1      32.859  16.422   8.680  0.00  0.00    -0.379 N 
HETATM   15  C   UNK N   1      33.070  15.171   9.354  0.00  0.00     0.123 C 
HETATM   16  C   UNK N   1      34.428  15.287  10.020  0.00  0.00     0.021 C 
HETATM   17  C   UNK N   1      34.850  16.745   9.891  0.00  0.00     0.021 C 
HETATM   18  C   UNK N   1      33.916  17.376   8.876  0.00  0.00     0.123 C 
ENDBRANCH   5  14
BRANCH   1  19
HETATM   19  S   UNK N   1      29.870  16.954   4.046  0.00  0.00     0.259 S 
HETATM   20  O   UNK N   1      29.037  18.056   4.715  0.00  0.00    -0.201 OA
HETATM   21  O   UNK N   1      30.034  15.605   4.767  0.00  0.00    -0.201 OA
BRANCH  19  22
HETATM   22  N   UNK N   1      31.477  17.660   3.814  0.00  0.00    -0.324 N 
HETATM   23  H   UNK N   1      32.202  17.674   4.532  0.00  0.00     0.169 HD
HETATM   24  H   UNK N   1      31.691  18.076   2.908  0.00  0.00     0.169 HD
ENDBRANCH  19  22
ENDBRANCH   1  19
BRANCH   3  25
HETATM   25  C   UNK N   1      28.145  17.738   9.017  0.00  0.00     0.176 C 
HETATM   26  O   UNK N   1      27.716  16.935   9.831  0.00  0.00    -0.646 OA
BRANCH  25  27
HETATM   27  O   UNK N   1      27.544  18.939   8.892  0.00  0.00    -0.773 OA
HETATM   28  H   UNK N   1      27.048  19.144   8.124  0.00  0.00     0.167 HD
ENDBRANCH  25  27
ENDBRANCH   3  25
TORSDOF 7
ENDMDL
MODEL 3
REMARK VINA RESULT:      -6.6      7.597     10.589
REMARK  7 active torsions:
REMARK  status: ('A' for Active; 'I' for Inactive)
REMARK    1  A    between atoms: N_1  and  S_2 
REMARK    2  A    between atoms: S_2  and  C_5 
REMARK    3  A    between atoms: C_7  and  C_23 
REMARK    4  A    between atoms: C_9  and  N_10 
REMARK    5  A    between atoms: C_15  and  O_16 
REMARK    6  A    between atoms: O_16  and  C_17 
REMARK    7  A    between atoms: C_23  and  O_24 
ROOT
HETATM    1  C   UNK N   1      21.954  19.649   3.105  0.00  0.00     0.116 A 
HETATM    2  C   UNK N   1      23.235  20.254   3.015  0.00  0.00     0.046 A 
HETATM    3  C   UNK N   1      24.393  19.662   3.487  0.00  0.00     0.041 A 
HETATM    4  C   UNK N   1      24.318  18.425   4.099  0.00  0.00     0.050 A 
HETATM    5  C   UNK N   1      23.109  17.735   4.237  0.00  0.00     0.067 A 
HETATM    6  C   UNK N   1      21.903  18.308   3.715  0.00  0.00     0.126 A 
ENDROOT
BRANCH   6   7
HETATM    7  O   UNK N   1      20.755  17.575   3.899  0.00  0.00    -0.307 OA
BRANCH   7   8
HETATM    8  C   UNK N   1      20.262  16.343   3.591  0.00  0.00     0.076 A 
HETATM    9  C   UNK N   1      20.511  15.685   2.382  0.00  0.00     0.037 A 
HETATM   10  C   UNK N   1      19.987  14.411   2.137  0.00  0.00     0.003 A 
HETATM   11  C   UNK N   1      19.230  13.769   3.118  0.00  0.00     0.000 A 
HETATM   12  C   UNK N   1      19.001  14.400   4.342  0.00  0.00     0.003 A 
HETATM   13  C   UNK N   1      19.517  15.678   4.575  0.00  0.00     0.037 A 
ENDBRANCH   7   8
ENDBRANCH   6   7
BRANCH   5  14
HETATM   14  N   UNK N   1      23.134  16.483   4.947  0.00  0.00    -0.379 N 
HETATM   15  C   UNK N   1      23.492  15.222   4.359  0.00  0.00     0.123 C 
HETATM   16  C   UNK N   1      23.284  14.187   5.447  0.00  0.00     0.021 C 
HETATM   17  C   UNK N   1      22.561  14.895   6.586  0.00  0.00     0.021 C 
HETATM   18  C   UNK N   1      22.660  16.381   6.300  0.00  0.00     0.123 C 
ENDBRANCH   5  14
BRANCH   1  19
HETATM   19  S   UNK N   1      20.453  20.631   2.438  0.00  0.00     0.259 S 
HETATM   20  O   UNK N   1      21.727  21.024   1.677  0.00  0.00    -0.201 OA
HETATM   21  O   UNK N   1      20.529  20.434   3.962  0.00  0.00    -0.201 OA
BRANCH  19  22
HETATM   22  N   UNK N   1      19.924  19.108   1.706  0.00  0.00    -0.324 N 
HETATM   23  H   UNK N   1      19.136  19.029   1.062  0.00  0.00     0.169 HD
HETATM   24  H   UNK N   1      20.437  18.259   1.941  0.00  0.00     0.169 HD
ENDBRANCH  19  22
ENDBRANCH   1  19
BRANCH   3  25
HETATM   25  C   UNK N   1      25.686  20.362   3.362  0.00  0.00     0.176 C 
HETATM   26  O   UNK N   1      25.944  21.008   2.358  0.00  0.00    -0.646 OA
BRANCH  25  27
HETATM   27  O   UNK N   1      26.595  20.290   4.356  0.00  0.00    -0.773 OA
HETATM   28  H   UNK N   1      26.902  21.069   4.776  0.00  0.00     0.167 HD
ENDBRANCH  25  27
ENDBRANCH   3  25
TORSDOF 7
ENDMDL
MODEL 4
REMARK VINA RESULT:      -6.6      9.167     10.896
REMARK  7 active torsions:
REMARK  status: ('A' for Active; 'I' for Inactive)
REMARK    1  A    between atoms: N_1  and  S_2 
REMARK    2  A    between atoms: S_2  and  C_5 
REMARK    3  A    between atoms: C_7  and  C_23 
REMARK    4  A    between atoms: C_9  and  N_10 
REMARK    5  A    between atoms: C_15  and  O_16 
REMARK    6  A    between atoms: O_16  and  C_17 
REMARK    7  A    between atoms: C_23  and  O_24 
ROOT
HETATM    1  C   UNK N   1      20.277  15.061   6.319  0.00  0.00     0.116 A 
HETATM    2  C   UNK N   1      19.923  16.342   6.820  0.00  0.00     0.046 A 
HETATM    3  C   UNK N   1      20.121  16.728   8.134  0.00  0.00     0.041 A 
HETATM    4  C   UNK N   1      20.672  15.828   9.027  0.00  0.00     0.050 A 
HETATM    5  C   UNK N   1      21.061  14.541   8.640  0.00  0.00     0.067 A 
HETATM    6  C   UNK N   1      20.909  14.134   7.274  0.00  0.00     0.126 A 
ENDROOT
BRANCH   6   7
HETATM    7  O   UNK N   1      21.305  12.853   6.975  0.00  0.00    -0.307 OA
BRANCH   7   8
HETATM    8  C   UNK N   1      22.407  12.198   6.515  0.00  0.00     0.076 A 
HETATM    9  C   UNK N   1      23.585  12.841   6.119  0.00  0.00     0.037 A 
HETATM   10  C   UNK N   1      24.687  12.106   5.672  0.00  0.00     0.003 A 
HETATM   11  C   UNK N   1      24.631  10.712   5.645  0.00  0.00     0.000 A 
HETATM   12  C   UNK N   1      23.474  10.056   6.069  0.00  0.00     0.003 A 
HETATM   13  C   UNK N   1      22.371  10.797   6.502  0.00  0.00     0.037 A 
ENDBRANCH   7   8
ENDBRANCH   6   7
BRANCH   5  14
HETATM   14  N   UNK N   1      21.564  13.662   9.664  0.00  0.00    -0.379 N 
HETATM   15  C   UNK N   1      22.951  13.331   9.841  0.00  0.00     0.123 C 
HETATM   16  C   UNK N   1      22.990  12.313  10.965  0.00  0.00     0.021 C 
HETATM   17  C   UNK N   1      21.546  11.911  11.236  0.00  0.00     0.021 C 
HETATM   18  C   UNK N   1      20.675  12.927  10.522  0.00  0.00     0.123 C 
ENDBRANCH   5  14
BRANCH   1  19
HETATM   19  S   UNK N   1      19.892  14.685   4.482  0.00  0.00     0.259 S 
HETATM   20  O   UNK N   1      19.153  13.695   5.394  0.00  0.00    -0.201 OA
HETATM   21  O   UNK N   1      21.343  15.067   4.821  0.00  0.00    -0.201 OA
BRANCH  19  22
HETATM   22  N   UNK N   1      18.911  16.158   4.502  0.00  0.00    -0.324 N 
HETATM   23  H   UNK N   1      18.567  16.603   5.353  0.00  0.00     0.169 HD
HETATM   24  H   UNK N   1      18.675  16.589   3.608  0.00  0.00     0.169 HD
ENDBRANCH  19  22
ENDBRANCH   1  19
BRANCH   3  25
HETATM   25  C   UNK N   1      19.719  18.076   8.578  0.00  0.00     0.176 C 
HETATM   26  O   UNK N   1      20.393  19.051   8.282  0.00  0.00    -0.646 OA
BRANCH  25  27
HETATM   27  O   UNK N   1      18.604  18.242   9.318  0.00  0.00    -0.773 OA
HETATM   28  H   UNK N   1      18.308  17.561   9.889  0.00  0.00     0.167 HD
ENDBRANCH  25  27
ENDBRANCH   3  25
TORSDOF 7
ENDMDL
MODEL 5
REMARK VINA RESULT:      -6.6      8.548     10.326
REMARK  7 active torsions:
REMARK  status: ('A' for Active; 'I' for Inactive)
REMARK    1  A    between atoms: N_1  and  S_2 
REMARK    2  A    between atoms: S_2  and  C_5 
REMARK    3  A    between atoms: C_7  and  C_23 
REMARK    4  A    between atoms: C_9  and  N_10 
REMARK    5  A    between atoms: C_15  and  O_16 
REMARK    6  A    between atoms: O_16  and  C_17 
REMARK    7  A    between atoms: C_23  and  O_24 
ROOT
HETATM    1  C   UNK N   1      21.041  15.322   7.666  0.00  0.00     0.116 A 
HETATM    2  C   UNK N   1      20.336  16.179   8.552  0.00  0.00     0.046 A 
HETATM    3  C   UNK N   1      20.166  17.534   8.326  0.00  0.00     0.041 A 
HETATM    4  C   UNK N   1      20.718  18.106   7.196  0.00  0.00     0.050 A 
HETATM    5  C   UNK N   1      21.427  17.354   6.253  0.00  0.00     0.067 A 
HETATM    6  C   UNK N   1      21.578  15.941   6.441  0.00  0.00     0.126 A 
ENDROOT
BRANCH   6   7
HETATM    7  O   UNK N   1      22.296  15.275   5.478  0.00  0.00    -0.307 OA
BRANCH   7   8
HETATM    8  C   UNK N   1      22.221  15.001   4.145  0.00  0.00     0.076 A 
HETATM    9  C   UNK N   1      21.018  14.843   3.450  0.00  0.00     0.037 A 
HETATM   10  C   UNK N   1      21.012  14.580   2.076  0.00  0.00     0.003 A 
HETATM   11  C   UNK N   1      22.217  14.501   1.377  0.00  0.00     0.000 A 
HETATM   12  C   UNK N   1      23.425  14.689   2.052  0.00  0.00     0.003 A 
HETATM   13  C   UNK N   1      23.424  14.939   3.427  0.00  0.00     0.037 A 
ENDBRANCH   7   8
ENDBRANCH   6   7
BRANCH   5  14
HETATM   14  N   UNK N   1      22.016  18.061   5.145  0.00  0.00    -0.379 N 
HETATM   15  C   UNK N   1      23.412  18.383   5.037  0.00  0.00     0.123 C 
HETATM   16  C   UNK N   1      23.547  19.202   3.768  0.00  0.00     0.021 C 
HETATM   17  C   UNK N   1      22.132  19.528   3.309  0.00  0.00     0.021 C 
HETATM   18  C   UNK N   1      21.204  18.628   4.103  0.00  0.00     0.123 C 
ENDBRANCH   5  14
BRANCH   1  19
HETATM   19  S   UNK N   1      21.216  13.481   8.157  0.00  0.00     0.259 S 
HETATM   20  O   UNK N   1      22.598  14.144   8.080  0.00  0.00    -0.201 OA
HETATM   21  O   UNK N   1      20.171  13.812   7.078  0.00  0.00    -0.201 OA
BRANCH  19  22
HETATM   22  N   UNK N   1      20.558  13.954   9.732  0.00  0.00    -0.324 N 
HETATM   23  H   UNK N   1      19.562  14.064   9.923  0.00  0.00     0.169 HD
HETATM   24  H   UNK N   1      21.214  14.126  10.493  0.00  0.00     0.169 HD
ENDBRANCH  19  22
ENDBRANCH   1  19
BRANCH   3  25
HETATM   25  C   UNK N   1      19.426  18.359   9.301  0.00  0.00     0.176 C 
HETATM   26  O   UNK N   1      19.990  19.261   9.901  0.00  0.00    -0.646 OA
BRANCH  25  27
HETATM   27  O   UNK N   1      18.121  18.119   9.540  0.00  0.00    -0.773 OA
HETATM   28  H   UNK N   1      17.863  17.437  10.128  0.00  0.00     0.167 HD
ENDBRANCH  25  27
ENDBRANCH   3  25
TORSDOF 7
ENDMDL
MODEL 6
REMARK VINA RESULT:      -6.6      2.124      5.511
REMARK  7 active torsions:
REMARK  status: ('A' for Active; 'I' for Inactive)
REMARK    1  A    between atoms: N_1  and  S_2 
REMARK    2  A    between atoms: S_2  and  C_5 
REMARK    3  A    between atoms: C_7  and  C_23 
REMARK    4  A    between atoms: C_9  and  N_10 
REMARK    5  A    between atoms: C_15  and  O_16 
REMARK    6  A    between atoms: O_16  and  C_17 
REMARK    7  A    between atoms: C_23  and  O_24 
ROOT
HETATM    1  C   UNK N   1      30.087  17.723   8.317  0.00  0.00     0.116 A 
HETATM    2  C   UNK N   1      31.480  17.945   8.485  0.00  0.00     0.046 A 
HETATM    3  C   UNK N   1      32.429  17.573   7.549  0.00  0.00     0.041 A 
HETATM    4  C   UNK N   1      32.024  16.933   6.392  0.00  0.00     0.050 A 
HETATM    5  C   UNK N   1      30.676  16.669   6.122  0.00  0.00     0.067 A 
HETATM    6  C   UNK N   1      29.671  17.085   7.055  0.00  0.00     0.126 A 
ENDROOT
BRANCH   6   7
HETATM    7  O   UNK N   1      28.373  16.781   6.724  0.00  0.00    -0.307 OA
BRANCH   7   8
HETATM    8  C   UNK N   1      27.486  17.019   5.719  0.00  0.00     0.076 A 
HETATM    9  C   UNK N   1      27.387  18.239   5.041  0.00  0.00     0.037 A 
HETATM   10  C   UNK N   1      26.463  18.411   4.005  0.00  0.00     0.003 A 
HETATM   11  C   UNK N   1      25.648  17.349   3.615  0.00  0.00     0.000 A 
HETATM   12  C   UNK N   1      25.759  16.115   4.259  0.00  0.00     0.003 A 
HETATM   13  C   UNK N   1      26.674  15.954   5.303  0.00  0.00     0.037 A 
ENDBRANCH   7   8
ENDBRANCH   6   7
BRANCH   5  14
HETATM   14  N   UNK N   1      30.370  15.940   4.919  0.00  0.00    -0.379 N 
HETATM   15  C   UNK N   1      30.180  16.544   3.629  0.00  0.00     0.123 C 
HETATM   16  C   UNK N   1      29.786  15.413   2.699  0.00  0.00     0.021 C 
HETATM   17  C   UNK N   1      29.527  14.197   3.581  0.00  0.00     0.021 C 
HETATM   18  C   UNK N   1      30.091  14.530   4.949  0.00  0.00     0.123 C 
ENDBRANCH   5  14
BRANCH   1  19
HETATM   19  S   UNK N   1      28.921  18.265   9.734  0.00  0.00     0.259 S 
HETATM   20  O   UNK N   1      30.166  19.161   9.698  0.00  0.00    -0.201 OA
HETATM   21  O   UNK N   1      29.088  16.751   9.516  0.00  0.00    -0.201 OA
BRANCH  19  22
HETATM   22  N   UNK N   1      27.857  18.894   8.467  0.00  0.00    -0.324 N 
HETATM   23  H   UNK N   1      27.787  18.495   7.531  0.00  0.00     0.169 HD
HETATM   24  H   UNK N   1      27.278  19.704   8.686  0.00  0.00     0.169 HD
ENDBRANCH  19  22
ENDBRANCH   1  19
BRANCH   3  25
HETATM   25  C   UNK N   1      33.859  17.833   7.802  0.00  0.00     0.176 C 
HETATM   26  O   UNK N   1      34.607  18.123   6.881  0.00  0.00    -0.646 OA
BRANCH  25  27
HETATM   27  O   UNK N   1      34.353  17.747   9.053  0.00  0.00    -0.773 OA
HETATM   28  H   UNK N   1      34.882  17.016   9.306  0.00  0.00     0.167 HD
ENDBRANCH  25  27
ENDBRANCH   3  25
TORSDOF 7
ENDMDL
MODEL 7
REMARK VINA RESULT:      -6.5     13.907     16.660
REMARK  7 active torsions:
REMARK  status: ('A' for Active; 'I' for Inactive)
REMARK    1  A    between atoms: N_1  and  S_2 
REMARK    2  A    between atoms: S_2  and  C_5 
REMARK    3  A    between atoms: C_7  and  C_23 
REMARK    4  A    between atoms: C_9  and  N_10 
REMARK    5  A    between atoms: C_15  and  O_16 
REMARK    6  A    between atoms: O_16  and  C_17 
REMARK    7  A    between atoms: C_23  and  O_24 
ROOT
HETATM    1  C   UNK N   1      25.784  23.326  -8.071  0.00  0.00     0.116 A 
HETATM    2  C   UNK N   1      25.561  23.769  -9.401  0.00  0.00     0.046 A 
HETATM    3  C   UNK N   1      25.504  25.104  -9.761  0.00  0.00     0.041 A 
HETATM    4  C   UNK N   1      25.649  26.073  -8.786  0.00  0.00     0.050 A 
HETATM    5  C   UNK N   1      25.878  25.750  -7.444  0.00  0.00     0.067 A 
HETATM    6  C   UNK N   1      25.987  24.375  -7.055  0.00  0.00     0.126 A 
ENDROOT
BRANCH   6   7
HETATM    7  O   UNK N   1      26.202  24.138  -5.719  0.00  0.00    -0.307 OA
BRANCH   7   8
HETATM    8  C   UNK N   1      27.244  23.944  -4.864  0.00  0.00     0.076 A 
HETATM    9  C   UNK N   1      28.574  23.806  -5.276  0.00  0.00     0.037 A 
HETATM   10  C   UNK N   1      29.600  23.626  -4.343  0.00  0.00     0.003 A 
HETATM   11  C   UNK N   1      29.306  23.612  -2.979  0.00  0.00     0.000 A 
HETATM   12  C   UNK N   1      27.988  23.782  -2.551  0.00  0.00     0.003 A 
HETATM   13  C   UNK N   1      26.966  23.948  -3.490  0.00  0.00     0.037 A 
ENDBRANCH   7   8
ENDBRANCH   6   7
BRANCH   5  14
HETATM   14  N   UNK N   1      25.950  26.835  -6.501  0.00  0.00    -0.379 N 
HETATM   15  C   UNK N   1      27.119  27.641  -6.278  0.00  0.00     0.123 C 
HETATM   16  C   UNK N   1      26.758  28.581  -5.143  0.00  0.00     0.021 C 
HETATM   17  C   UNK N   1      25.427  28.096  -4.584  0.00  0.00     0.021 C 
HETATM   18  C   UNK N   1      24.870  27.111  -5.594  0.00  0.00     0.123 C 
ENDBRANCH   5  14
BRANCH   1  19
HETATM   19  S   UNK N   1      25.791  21.440  -7.748  0.00  0.00     0.259 S 
HETATM   20  O   UNK N   1      24.645  22.108  -6.975  0.00  0.00    -0.201 OA
HETATM   21  O   UNK N   1      27.161  22.138  -7.797  0.00  0.00    -0.201 OA
BRANCH  19  22
HETATM   22  N   UNK N   1      25.195  21.267  -9.406  0.00  0.00    -0.324 N 
HETATM   23  H   UNK N   1      24.323  20.798  -9.653  0.00  0.00     0.169 HD
HETATM   24  H   UNK N   1      25.757  21.660 -10.161  0.00  0.00     0.169 HD
ENDBRANCH  19  22
ENDBRANCH   1  19
BRANCH   3  25
HETATM   25  C   UNK N   1      25.261  25.482 -11.166  0.00  0.00     0.176 C 
HETATM   26  O   UNK N   1      26.076  26.158 -11.774  0.00  0.00    -0.646 OA
BRANCH  25  27
HETATM   27  O   UNK N   1      24.131  25.088 -11.788  0.00  0.00    -0.773 OA
HETATM   28  H   UNK N   1      23.360  24.891 -11.294  0.00  0.00     0.167 HD
ENDBRANCH  25  27
ENDBRANCH   3  25
TORSDOF 7
ENDMDL
MODEL 8
REMARK VINA RESULT:      -6.5      7.013     10.587
REMARK  7 active torsions:
REMARK  status: ('A' for Active; 'I' for Inactive)
REMARK    1  A    between atoms: N_1  and  S_2 
REMARK    2  A    between atoms: S_2  and  C_5 
REMARK    3  A    between atoms: C_7  and  C_23 
REMARK    4  A    between atoms: C_9  and  N_10 
REMARK    5  A    between atoms: C_15  and  O_16 
REMARK    6  A    between atoms: O_16  and  C_17 
REMARK    7  A    between atoms: C_23  and  O_24 
ROOT
HETATM    1  C   UNK N   1      37.298  13.390  10.609  0.00  0.00     0.116 A 
HETATM    2  C   UNK N   1      36.613  14.547  10.151  0.00  0.00     0.046 A 
HETATM    3  C   UNK N   1      35.807  15.325  10.962  0.00  0.00     0.041 A 
HETATM    4  C   UNK N   1      35.629  14.966  12.285  0.00  0.00     0.050 A 
HETATM    5  C   UNK N   1      36.260  13.848  12.842  0.00  0.00     0.067 A 
HETATM    6  C   UNK N   1      37.136  13.052  12.034  0.00  0.00     0.126 A 
ENDROOT
BRANCH   6   7
HETATM    7  O   UNK N   1      37.709  11.966  12.651  0.00  0.00    -0.307 OA
BRANCH   7   8
HETATM    8  C   UNK N   1      37.328  10.857  13.343  0.00  0.00     0.076 A 
HETATM    9  C   UNK N   1      37.856  10.496  14.587  0.00  0.00     0.037 A 
HETATM   10  C   UNK N   1      37.407   9.351  15.253  0.00  0.00     0.003 A 
HETATM   11  C   UNK N   1      36.397   8.569  14.690  0.00  0.00     0.000 A 
HETATM   12  C   UNK N   1      35.837   8.936  13.465  0.00  0.00     0.003 A 
HETATM   13  C   UNK N   1      36.300  10.074  12.798  0.00  0.00     0.037 A 
ENDBRANCH   7   8
ENDBRANCH   6   7
BRANCH   5  14
HETATM   14  N   UNK N   1      35.955  13.527  14.212  0.00  0.00    -0.379 N 
HETATM   15  C   UNK N   1      34.783  12.812  14.637  0.00  0.00     0.123 C 
HETATM   16  C   UNK N   1      34.840  12.794  16.153  0.00  0.00     0.021 C 
HETATM   17  C   UNK N   1      35.964  13.741  16.555  0.00  0.00     0.021 C 
HETATM   18  C   UNK N   1      36.756  14.029  15.295  0.00  0.00     0.123 C 
ENDBRANCH   5  14
BRANCH   1  19
HETATM   19  S   UNK N   1      38.337  12.407   9.337  0.00  0.00     0.259 S 
HETATM   20  O   UNK N   1      37.112  11.589   9.769  0.00  0.00    -0.201 OA
HETATM   21  O   UNK N   1      39.115  13.199  10.403  0.00  0.00    -0.201 OA
BRANCH  19  22
HETATM   22  N   UNK N   1      37.732  13.549   8.127  0.00  0.00    -0.324 N 
HETATM   23  H   UNK N   1      37.852  13.430   7.121  0.00  0.00     0.169 HD
HETATM   24  H   UNK N   1      37.234  14.376   8.455  0.00  0.00     0.169 HD
ENDBRANCH  19  22
ENDBRANCH   1  19
BRANCH   3  25
HETATM   25  C   UNK N   1      35.123  16.509  10.407  0.00  0.00     0.176 C 
HETATM   26  O   UNK N   1      35.707  17.579  10.326  0.00  0.00    -0.646 OA
BRANCH  25  27
HETATM   27  O   UNK N   1      33.844  16.420   9.988  0.00  0.00    -0.773 OA
HETATM   28  H   UNK N   1      33.647  16.108   9.127  0.00  0.00     0.167 HD
ENDBRANCH  25  27
ENDBRANCH   3  25
TORSDOF 7
ENDMDL
MODEL 9
REMARK VINA RESULT:      -6.4     12.797     15.912
REMARK  7 active torsions:
REMARK  status: ('A' for Active; 'I' for Inactive)
REMARK    1  A    between atoms: N_1  and  S_2 
REMARK    2  A    between atoms: S_2  and  C_5 
REMARK    3  A    between atoms: C_7  and  C_23 
REMARK    4  A    between atoms: C_9  and  N_10 
REMARK    5  A    between atoms: C_15  and  O_16 
REMARK    6  A    between atoms: O_16  and  C_17 
REMARK    7  A    between atoms: C_23  and  O_24 
ROOT
HETATM    1  C   UNK N   1      29.427  22.126  -6.044  0.00  0.00     0.116 A 
HETATM    2  C   UNK N   1      30.094  22.018  -4.795  0.00  0.00     0.046 A 
HETATM    3  C   UNK N   1      29.821  22.834  -3.712  0.00  0.00     0.041 A 
HETATM    4  C   UNK N   1      28.866  23.826  -3.837  0.00  0.00     0.050 A 
HETATM    5  C   UNK N   1      28.144  24.018  -5.020  0.00  0.00     0.067 A 
HETATM    6  C   UNK N   1      28.377  23.156  -6.141  0.00  0.00     0.126 A 
ENDROOT
BRANCH   6   7
HETATM    7  O   UNK N   1      27.637  23.415  -7.269  0.00  0.00    -0.307 OA
BRANCH   7   8
HETATM    8  C   UNK N   1      27.461  24.416  -8.176  0.00  0.00     0.076 A 
HETATM    9  C   UNK N   1      26.209  24.837  -8.636  0.00  0.00     0.037 A 
HETATM   10  C   UNK N   1      26.098  25.885  -9.556  0.00  0.00     0.003 A 
HETATM   11  C   UNK N   1      27.244  26.543 -10.004  0.00  0.00     0.000 A 
HETATM   12  C   UNK N   1      28.498  26.155  -9.528  0.00  0.00     0.003 A 
HETATM   13  C   UNK N   1      28.602  25.099  -8.618  0.00  0.00     0.037 A 
ENDBRANCH   7   8
ENDBRANCH   6   7
BRANCH   5  14
HETATM   14  N   UNK N   1      27.219  25.121  -5.063  0.00  0.00    -0.379 N 
HETATM   15  C   UNK N   1      25.790  24.986  -4.998  0.00  0.00     0.123 C 
HETATM   16  C   UNK N   1      25.237  26.387  -5.175  0.00  0.00     0.021 C 
HETATM   17  C   UNK N   1      26.409  27.268  -5.586  0.00  0.00     0.021 C 
HETATM   18  C   UNK N   1      27.667  26.463  -5.317  0.00  0.00     0.123 C 
ENDBRANCH   5  14
BRANCH   1  19
HETATM   19  S   UNK N   1      29.963  20.940  -7.448  0.00  0.00     0.259 S 
HETATM   20  O   UNK N   1      30.057  20.233  -6.089  0.00  0.00    -0.201 OA
HETATM   21  O   UNK N   1      30.431  22.401  -7.560  0.00  0.00    -0.201 OA
BRANCH  19  22
HETATM   22  N   UNK N   1      28.250  20.871  -7.891  0.00  0.00    -0.324 N 
HETATM   23  H   UNK N   1      27.904  20.972  -8.846  0.00  0.00     0.169 HD
HETATM   24  H   UNK N   1      27.568  20.720  -7.148  0.00  0.00     0.169 HD
ENDBRANCH  19  22
ENDBRANCH   1  19
BRANCH   3  25
HETATM   25  C   UNK N   1      30.565  22.662  -2.450  0.00  0.00     0.176 C 
HETATM   26  O   UNK N   1      30.122  23.115  -1.405  0.00  0.00    -0.646 OA
BRANCH  25  27
HETATM   27  O   UNK N   1      31.743  22.006  -2.441  0.00  0.00    -0.773 OA
HETATM   28  H   UNK N   1      32.545  22.473  -2.316  0.00  0.00     0.167 HD
ENDBRANCH  25  27
ENDBRANCH   3  25
TORSDOF 7
ENDMDL
