MODEL 1
REMARK VINA RESULT:      -5.7      0.000      0.000
REMARK  9 active torsions:
REMARK  status: ('A' for Active; 'I' for Inactive)
REMARK    1  A    between atoms: C_2  and  O_12 
REMARK    2  A    between atoms: C_3  and  O_4 
REMARK    3  A    between atoms: C_5  and  O_6 
REMARK    4  A    between atoms: C_7  and  O_8 
REMARK    5  A    between atoms: C_9  and  C_10 
REMARK    6  A    between atoms: C_10  and  O_11 
REMARK    7  A    between atoms: O_12  and  P_15 
REMARK    8  A    between atoms: P_15  and  O_14 
REMARK    9  A    between atoms: P_15  and  O_16 
ROOT
HETATM    1  O   UNK N   1      22.597  13.390   9.785  0.00  0.00    -0.348 OA
HETATM    2  C   UNK N   1      21.476  12.612  10.136  0.00  0.00     0.303 C 
HETATM    3  C   UNK N   1      21.495  12.332  11.649  0.00  0.00     0.205 C 
HETATM    4  C   UNK N   1      22.789  11.616  12.011  0.00  0.00     0.183 C 
HETATM    5  C   UNK N   1      23.985  12.384  11.466  0.00  0.00     0.180 C 
HETATM    6  C   UNK N   1      23.760  12.613   9.962  0.00  0.00     0.179 C 
ENDROOT
BRANCH   2   7
HETATM    7  O   UNK N   1      20.319  13.336   9.813  0.00  0.00    -0.263 OA
BRANCH   7   8
HETATM    8  P   UNK N   1      20.817  14.611   8.740  0.00  0.00     0.393 P 
HETATM    9  O   UNK N   1      19.425  15.129   9.189  0.00  0.00    -0.631 OA
BRANCH   8  10
HETATM   10  O   UNK N   1      20.032  14.867   7.215  0.00  0.00    -0.307 OA
HETATM   11  H   UNK N   1      20.540  14.969   6.394  0.00  0.00     0.222 HD
ENDBRANCH   8  10
BRANCH   8  12
HETATM   12  O   UNK N   1      20.598  13.124   7.869  0.00  0.00    -0.307 OA
HETATM   13  H   UNK N   1      20.948  12.633   7.109  0.00  0.00     0.222 HD
ENDBRANCH   8  12
ENDBRANCH   7   8
ENDBRANCH   2   7
BRANCH   3  14
HETATM   14  O   UNK N   1      20.412  11.529  12.010  0.00  0.00    -0.388 OA
HETATM   15  H   UNK N   1      19.767  11.746  12.702  0.00  0.00     0.210 HD
ENDBRANCH   3  14
BRANCH   6  16
HETATM   16  C   UNK N   1      24.927  13.369   9.338  0.00  0.00     0.198 C 
BRANCH  16  17
HETATM   17  O   UNK N   1      25.775  13.873  10.324  0.00  0.00    -0.398 OA
HETATM   18  H   UNK N   1      26.351  14.652  10.345  0.00  0.00     0.209 HD
ENDBRANCH  16  17
ENDBRANCH   6  16
BRANCH   4  19
HETATM   19  O   UNK N   1      22.889  11.485  13.396  0.00  0.00    -0.390 OA
HETATM   20  H   UNK N   1      23.591  11.905  13.918  0.00  0.00     0.210 HD
ENDBRANCH   4  19
BRANCH   5  21
HETATM   21  O   UNK N   1      25.146  11.640  11.694  0.00  0.00    -0.390 OA
HETATM   22  H   UNK N   1      26.014  11.970  11.973  0.00  0.00     0.210 HD
ENDBRANCH   5  21
TORSDOF 9
ENDMDL
MODEL 2
REMARK VINA RESULT:      -5.6     11.961     13.464
REMARK  9 active torsions:
REMARK  status: ('A' for Active; 'I' for Inactive)
REMARK    1  A    between atoms: C_2  and  O_12 
REMARK    2  A    between atoms: C_3  and  O_4 
REMARK    3  A    between atoms: C_5  and  O_6 
REMARK    4  A    between atoms: C_7  and  O_8 
REMARK    5  A    between atoms: C_9  and  C_10 
REMARK    6  A    between atoms: C_10  and  O_11 
REMARK    7  A    between atoms: O_12  and  P_15 
REMARK    8  A    between atoms: P_15  and  O_14 
REMARK    9  A    between atoms: P_15  and  O_16 
ROOT
HETATM    1  O   UNK N   1      36.551  15.496  10.043  0.00  0.00    -0.348 OA
HETATM    2  C   UNK N   1      35.150  15.635   9.992  0.00  0.00     0.303 C 
HETATM    3  C   UNK N   1      34.520  14.976  11.231  0.00  0.00     0.205 C 
HETATM    4  C   UNK N   1      34.918  13.507  11.275  0.00  0.00     0.183 C 
HETATM    5  C   UNK N   1      36.429  13.368  11.150  0.00  0.00     0.180 C 
HETATM    6  C   UNK N   1      36.875  14.132   9.891  0.00  0.00     0.179 C 
ENDROOT
BRANCH   2   7
HETATM    7  O   UNK N   1      34.844  17.004   9.990  0.00  0.00    -0.263 OA
BRANCH   7   8
HETATM    8  P   UNK N   1      34.448  17.420   8.348  0.00  0.00     0.393 P 
HETATM    9  O   UNK N   1      35.180  18.706   8.810  0.00  0.00    -0.631 OA
BRANCH   8  10
HETATM   10  O   UNK N   1      33.271  18.640   7.982  0.00  0.00    -0.307 OA
HETATM   11  H   UNK N   1      33.534  19.525   7.686  0.00  0.00     0.222 HD
ENDBRANCH   8  10
BRANCH   8  12
HETATM   12  O   UNK N   1      33.007  17.232   9.300  0.00  0.00    -0.307 OA
HETATM   13  H   UNK N   1      32.045  17.146   9.208  0.00  0.00     0.222 HD
ENDBRANCH   8  12
ENDBRANCH   7   8
ENDBRANCH   2   7
BRANCH   3  14
HETATM   14  O   UNK N   1      33.128  15.070  11.180  0.00  0.00    -0.388 OA
HETATM   15  H   UNK N   1      32.522  14.314  11.139  0.00  0.00     0.210 HD
ENDBRANCH   3  14
BRANCH   6  16
HETATM   16  C   UNK N   1      38.382  14.028   9.688  0.00  0.00     0.198 C 
BRANCH  16  17
HETATM   17  O   UNK N   1      39.000  13.498  10.821  0.00  0.00    -0.398 OA
HETATM   18  H   UNK N   1      39.624  13.880  11.457  0.00  0.00     0.209 HD
ENDBRANCH  16  17
ENDBRANCH   6  16
BRANCH   4  19
HETATM   19  O   UNK N   1      34.478  12.930  12.467  0.00  0.00    -0.390 OA
HETATM   20  H   UNK N   1      33.589  12.558  12.579  0.00  0.00     0.210 HD
ENDBRANCH   4  19
BRANCH   5  21
HETATM   21  O   UNK N   1      36.756  12.012  11.058  0.00  0.00    -0.390 OA
HETATM   22  H   UNK N   1      37.333  11.586  10.406  0.00  0.00     0.210 HD
ENDBRANCH   5  21
TORSDOF 9
ENDMDL
MODEL 3
REMARK VINA RESULT:      -5.2      8.666     11.650
REMARK  9 active torsions:
REMARK  status: ('A' for Active; 'I' for Inactive)
REMARK    1  A    between atoms: C_2  and  O_12 
REMARK    2  A    between atoms: C_3  and  O_4 
REMARK    3  A    between atoms: C_5  and  O_6 
REMARK    4  A    between atoms: C_7  and  O_8 
REMARK    5  A    between atoms: C_9  and  C_10 
REMARK    6  A    between atoms: C_10  and  O_11 
REMARK    7  A    between atoms: O_12  and  P_15 
REMARK    8  A    between atoms: P_15  and  O_14 
REMARK    9  A    between atoms: P_15  and  O_16 
ROOT
HETATM    1  O   UNK N   1      31.035  17.493   8.484  0.00  0.00    -0.348 OA
HETATM    2  C   UNK N   1      31.664  16.611   7.583  0.00  0.00     0.303 C 
HETATM    3  C   UNK N   1      31.496  17.135   6.147  0.00  0.00     0.205 C 
HETATM    4  C   UNK N   1      30.012  17.265   5.831  0.00  0.00     0.183 C 
HETATM    5  C   UNK N   1      29.314  18.075   6.914  0.00  0.00     0.180 C 
HETATM    6  C   UNK N   1      29.642  17.435   8.274  0.00  0.00     0.179 C 
ENDROOT
BRANCH   2   7
HETATM    7  O   UNK N   1      33.030  16.560   7.900  0.00  0.00    -0.263 OA
BRANCH   7   8
HETATM    8  P   UNK N   1      33.570  18.208   8.031  0.00  0.00     0.393 P 
HETATM    9  O   UNK N   1      34.536  17.665   6.946  0.00  0.00    -0.631 OA
BRANCH   8  10
HETATM   10  O   UNK N   1      35.115  18.602   8.713  0.00  0.00    -0.307 OA
HETATM   11  H   UNK N   1      35.251  19.415   9.226  0.00  0.00     0.222 HD
ENDBRANCH   8  10
BRANCH   8  12
HETATM   12  O   UNK N   1      33.861  17.346   9.511  0.00  0.00    -0.307 OA
HETATM   13  H   UNK N   1      34.512  17.269  10.226  0.00  0.00     0.222 HD
ENDBRANCH   8  12
ENDBRANCH   7   8
ENDBRANCH   2   7
BRANCH   3  14
HETATM   14  O   UNK N   1      32.081  16.254   5.235  0.00  0.00    -0.388 OA
HETATM   15  H   UNK N   1      31.975  16.301   4.272  0.00  0.00     0.210 HD
ENDBRANCH   3  14
BRANCH   6  16
HETATM   16  C   UNK N   1      28.964  18.185   9.414  0.00  0.00     0.198 C 
BRANCH  16  17
HETATM   17  O   UNK N   1      27.585  17.979   9.393  0.00  0.00    -0.398 OA
HETATM   18  H   UNK N   1      27.052  17.172   9.326  0.00  0.00     0.209 HD
ENDBRANCH  16  17
ENDBRANCH   6  16
BRANCH   4  19
HETATM   19  O   UNK N   1      29.842  17.875   4.587  0.00  0.00    -0.390 OA
HETATM   20  H   UNK N   1      29.375  17.453   3.850  0.00  0.00     0.210 HD
ENDBRANCH   4  19
BRANCH   5  21
HETATM   21  O   UNK N   1      27.938  18.067   6.673  0.00  0.00    -0.390 OA
HETATM   22  H   UNK N   1      27.465  17.608   5.961  0.00  0.00     0.210 HD
ENDBRANCH   5  21
TORSDOF 9
ENDMDL
MODEL 4
REMARK VINA RESULT:      -5.1      7.574      9.709
REMARK  9 active torsions:
REMARK  status: ('A' for Active; 'I' for Inactive)
REMARK    1  A    between atoms: C_2  and  O_12 
REMARK    2  A    between atoms: C_3  and  O_4 
REMARK    3  A    between atoms: C_5  and  O_6 
REMARK    4  A    between atoms: C_7  and  O_8 
REMARK    5  A    between atoms: C_9  and  C_10 
REMARK    6  A    between atoms: C_10  and  O_11 
REMARK    7  A    between atoms: O_12  and  P_15 
REMARK    8  A    between atoms: P_15  and  O_14 
REMARK    9  A    between atoms: P_15  and  O_16 
ROOT
HETATM    1  O   UNK N   1      21.947  17.958   3.526  0.00  0.00    -0.348 OA
HETATM    2  C   UNK N   1      20.541  17.865   3.562  0.00  0.00     0.303 C 
HETATM    3  C   UNK N   1      19.942  18.642   2.378  0.00  0.00     0.205 C 
HETATM    4  C   UNK N   1      20.391  20.095   2.452  0.00  0.00     0.183 C 
HETATM    5  C   UNK N   1      21.906  20.170   2.592  0.00  0.00     0.180 C 
HETATM    6  C   UNK N   1      22.318  19.293   3.787  0.00  0.00     0.179 C 
ENDROOT
BRANCH   2   7
HETATM    7  O   UNK N   1      20.188  16.512   3.455  0.00  0.00    -0.263 OA
BRANCH   7   8
HETATM    8  P   UNK N   1      20.174  15.874   5.074  0.00  0.00     0.393 P 
HETATM    9  O   UNK N   1      20.616  14.625   4.267  0.00  0.00    -0.631 OA
BRANCH   8  10
HETATM   10  O   UNK N   1      18.996  14.703   5.574  0.00  0.00    -0.307 OA
HETATM   11  H   UNK N   1      18.124  14.649   5.152  0.00  0.00     0.222 HD
ENDBRANCH   8  10
BRANCH   8  12
HETATM   12  O   UNK N   1      18.570  16.316   4.572  0.00  0.00    -0.307 OA
HETATM   13  H   UNK N   1      18.027  17.094   4.372  0.00  0.00     0.222 HD
ENDBRANCH   8  12
ENDBRANCH   7   8
ENDBRANCH   2   7
BRANCH   3  14
HETATM   14  O   UNK N   1      18.547  18.594   2.418  0.00  0.00    -0.388 OA
HETATM   15  H   UNK N   1      18.020  17.779   2.406  0.00  0.00     0.210 HD
ENDBRANCH   3  14
BRANCH   6  16
HETATM   16  C   UNK N   1      23.826  19.327   4.001  0.00  0.00     0.198 C 
BRANCH  16  17
HETATM   17  O   UNK N   1      24.468  19.925   2.916  0.00  0.00    -0.398 OA
HETATM   18  H   UNK N   1      25.106  19.582   2.273  0.00  0.00     0.209 HD
ENDBRANCH  16  17
ENDBRANCH   6  16
BRANCH   4  19
HETATM   19  O   UNK N   1      19.978  20.780   1.309  0.00  0.00    -0.390 OA
HETATM   20  H   UNK N   1      19.933  20.368   0.432  0.00  0.00     0.210 HD
ENDBRANCH   4  19
BRANCH   5  21
HETATM   21  O   UNK N   1      22.279  21.502   2.792  0.00  0.00    -0.390 OA
HETATM   22  H   UNK N   1      22.421  22.184   2.117  0.00  0.00     0.210 HD
ENDBRANCH   5  21
TORSDOF 9
ENDMDL
MODEL 5
REMARK VINA RESULT:      -5.1      8.846     10.972
REMARK  9 active torsions:
REMARK  status: ('A' for Active; 'I' for Inactive)
REMARK    1  A    between atoms: C_2  and  O_12 
REMARK    2  A    between atoms: C_3  and  O_4 
REMARK    3  A    between atoms: C_5  and  O_6 
REMARK    4  A    between atoms: C_7  and  O_8 
REMARK    5  A    between atoms: C_9  and  C_10 
REMARK    6  A    between atoms: C_10  and  O_11 
REMARK    7  A    between atoms: O_12  and  P_15 
REMARK    8  A    between atoms: P_15  and  O_14 
REMARK    9  A    between atoms: P_15  and  O_16 
ROOT
HETATM    1  O   UNK N   1      32.006  17.270   8.346  0.00  0.00    -0.348 OA
HETATM    2  C   UNK N   1      30.830  17.406   7.582  0.00  0.00     0.303 C 
HETATM    3  C   UNK N   1      30.932  16.537   6.317  0.00  0.00     0.205 C 
HETATM    4  C   UNK N   1      32.153  16.963   5.513  0.00  0.00     0.183 C 
HETATM    5  C   UNK N   1      33.388  16.981   6.404  0.00  0.00     0.180 C 
HETATM    6  C   UNK N   1      33.076  17.850   7.635  0.00  0.00     0.179 C 
ENDROOT
BRANCH   2   7
HETATM    7  O   UNK N   1      29.748  16.966   8.360  0.00  0.00    -0.263 OA
BRANCH   7   8
HETATM    8  P   UNK N   1      28.894  18.393   8.872  0.00  0.00     0.393 P 
HETATM    9  O   UNK N   1      29.072  17.654  10.223  0.00  0.00    -0.631 OA
BRANCH   8  10
HETATM   10  O   UNK N   1      27.258  18.313   9.441  0.00  0.00    -0.307 OA
HETATM   11  H   UNK N   1      26.885  19.004  10.011  0.00  0.00     0.222 HD
ENDBRANCH   8  10
BRANCH   8  12
HETATM   12  O   UNK N   1      27.897  17.418   7.836  0.00  0.00    -0.307 OA
HETATM   13  H   UNK N   1      27.930  16.620   7.285  0.00  0.00     0.222 HD
ENDBRANCH   8  12
ENDBRANCH   7   8
ENDBRANCH   2   7
BRANCH   3  14
HETATM   14  O   UNK N   1      29.790  16.688   5.528  0.00  0.00    -0.388 OA
HETATM   15  H   UNK N   1      28.881  16.557   5.837  0.00  0.00     0.210 HD
ENDBRANCH   3  14
BRANCH   6  16
HETATM   16  C   UNK N   1      34.274  17.928   8.572  0.00  0.00     0.198 C 
BRANCH  16  17
HETATM   17  O   UNK N   1      35.020  19.082   8.328  0.00  0.00    -0.398 OA
HETATM   18  H   UNK N   1      34.892  20.004   8.597  0.00  0.00     0.209 HD
ENDBRANCH  16  17
ENDBRANCH   6  16
BRANCH   4  19
HETATM   19  O   UNK N   1      32.344  16.092   4.441  0.00  0.00    -0.390 OA
HETATM   20  H   UNK N   1      33.127  15.526   4.351  0.00  0.00     0.210 HD
ENDBRANCH   4  19
BRANCH   5  21
HETATM   21  O   UNK N   1      34.464  17.502   5.680  0.00  0.00    -0.390 OA
HETATM   22  H   UNK N   1      34.500  18.342   5.196  0.00  0.00     0.210 HD
ENDBRANCH   5  21
TORSDOF 9
ENDMDL
MODEL 6
REMARK VINA RESULT:      -5.1      8.852     10.976
REMARK  9 active torsions:
REMARK  status: ('A' for Active; 'I' for Inactive)
REMARK    1  A    between atoms: C_2  and  O_12 
REMARK    2  A    between atoms: C_3  and  O_4 
REMARK    3  A    between atoms: C_5  and  O_6 
REMARK    4  A    between atoms: C_7  and  O_8 
REMARK    5  A    between atoms: C_9  and  C_10 
REMARK    6  A    between atoms: C_10  and  O_11 
REMARK    7  A    between atoms: O_12  and  P_15 
REMARK    8  A    between atoms: P_15  and  O_14 
REMARK    9  A    between atoms: P_15  and  O_16 
ROOT
HETATM    1  O   UNK N   1      30.488  17.136   6.969  0.00  0.00    -0.348 OA
HETATM    2  C   UNK N   1      31.149  16.768   8.158  0.00  0.00     0.303 C 
HETATM    3  C   UNK N   1      32.471  17.545   8.275  0.00  0.00     0.205 C 
HETATM    4  C   UNK N   1      33.337  17.248   7.058  0.00  0.00     0.183 C 
HETATM    5  C   UNK N   1      32.544  17.483   5.779  0.00  0.00     0.180 C 
HETATM    6  C   UNK N   1      31.240  16.671   5.871  0.00  0.00     0.179 C 
ENDROOT
BRANCH   2   7
HETATM    7  O   UNK N   1      30.321  17.097   9.241  0.00  0.00    -0.263 OA
BRANCH   7   8
HETATM    8  P   UNK N   1      29.276  18.377   8.695  0.00  0.00     0.393 P 
HETATM    9  O   UNK N   1      29.548  18.820  10.156  0.00  0.00    -0.631 OA
BRANCH   8  10
HETATM   10  O   UNK N   1      27.664  18.553   9.311  0.00  0.00    -0.307 OA
HETATM   11  H   UNK N   1      27.198  17.812   9.729  0.00  0.00     0.222 HD
ENDBRANCH   8  10
BRANCH   8  12
HETATM   12  O   UNK N   1      28.428  16.861   8.727  0.00  0.00    -0.307 OA
HETATM   13  H   UNK N   1      27.566  16.471   8.511  0.00  0.00     0.222 HD
ENDBRANCH   8  12
ENDBRANCH   7   8
ENDBRANCH   2   7
BRANCH   3  14
HETATM   14  O   UNK N   1      33.160  17.166   9.429  0.00  0.00    -0.388 OA
HETATM   15  H   UNK N   1      33.984  17.572   9.741  0.00  0.00     0.210 HD
ENDBRANCH   3  14
BRANCH   6  16
HETATM   16  C   UNK N   1      30.394  16.844   4.616  0.00  0.00     0.198 C 
BRANCH  16  17
HETATM   17  O   UNK N   1      30.825  17.943   3.874  0.00  0.00    -0.398 OA
HETATM   18  H   UNK N   1      31.327  18.010   3.048  0.00  0.00     0.209 HD
ENDBRANCH  16  17
ENDBRANCH   6  16
BRANCH   4  19
HETATM   19  O   UNK N   1      34.475  18.056   7.075  0.00  0.00    -0.390 OA
HETATM   20  H   UNK N   1      34.437  19.024   7.128  0.00  0.00     0.210 HD
ENDBRANCH   4  19
BRANCH   5  21
HETATM   21  O   UNK N   1      33.314  17.077   4.686  0.00  0.00    -0.390 OA
HETATM   22  H   UNK N   1      33.391  16.183   4.317  0.00  0.00     0.210 HD
ENDBRANCH   5  21
TORSDOF 9
ENDMDL
MODEL 7
REMARK VINA RESULT:      -5.0      6.146      8.272
REMARK  9 active torsions:
REMARK  status: ('A' for Active; 'I' for Inactive)
REMARK    1  A    between atoms: C_2  and  O_12 
REMARK    2  A    between atoms: C_3  and  O_4 
REMARK    3  A    between atoms: C_5  and  O_6 
REMARK    4  A    between atoms: C_7  and  O_8 
REMARK    5  A    between atoms: C_9  and  C_10 
REMARK    6  A    between atoms: C_10  and  O_11 
REMARK    7  A    between atoms: O_12  and  P_15 
REMARK    8  A    between atoms: P_15  and  O_14 
REMARK    9  A    between atoms: P_15  and  O_16 
ROOT
HETATM    1  O   UNK N   1      21.185  17.266   3.864  0.00  0.00    -0.348 OA
HETATM    2  C   UNK N   1      21.036  18.331   4.775  0.00  0.00     0.303 C 
HETATM    3  C   UNK N   1      21.234  17.814   6.210  0.00  0.00     0.205 C 
HETATM    4  C   UNK N   1      20.221  16.714   6.491  0.00  0.00     0.183 C 
HETATM    5  C   UNK N   1      20.274  15.657   5.396  0.00  0.00     0.180 C 
HETATM    6  C   UNK N   1      20.113  16.367   4.041  0.00  0.00     0.179 C 
ENDROOT
BRANCH   2   7
HETATM    7  O   UNK N   1      22.015  19.294   4.489  0.00  0.00    -0.263 OA
BRANCH   7   8
HETATM    8  P   UNK N   1      21.682  19.878   2.885  0.00  0.00     0.393 P 
HETATM    9  O   UNK N   1      23.015  20.608   3.195  0.00  0.00    -0.631 OA
BRANCH   8  10
HETATM   10  O   UNK N   1      21.248  21.532   2.597  0.00  0.00    -0.307 OA
HETATM   11  H   UNK N   1      21.807  22.264   2.904  0.00  0.00     0.222 HD
ENDBRANCH   8  10
BRANCH   8  12
HETATM   12  O   UNK N   1      20.476  20.433   4.005  0.00  0.00    -0.307 OA
HETATM   13  H   UNK N   1      19.545  20.299   4.242  0.00  0.00     0.222 HD
ENDBRANCH   8  12
ENDBRANCH   7   8
ENDBRANCH   2   7
BRANCH   3  14
HETATM   14  O   UNK N   1      21.052  18.849   7.130  0.00  0.00    -0.388 OA
HETATM   15  H   UNK N   1      20.860  19.770   6.898  0.00  0.00     0.210 HD
ENDBRANCH   3  14
BRANCH   6  16
HETATM   16  C   UNK N   1      20.143  15.370   2.889  0.00  0.00     0.198 C 
BRANCH  16  17
HETATM   17  O   UNK N   1      18.951  14.649   2.826  0.00  0.00    -0.398 OA
HETATM   18  H   UNK N   1      18.386  14.270   3.517  0.00  0.00     0.209 HD
ENDBRANCH  16  17
ENDBRANCH   6  16
BRANCH   4  19
HETATM   19  O   UNK N   1      20.480  16.134   7.734  0.00  0.00    -0.390 OA
HETATM   20  H   UNK N   1      20.522  15.175   7.873  0.00  0.00     0.210 HD
ENDBRANCH   4  19
BRANCH   5  21
HETATM   21  O   UNK N   1      19.248  14.732   5.605  0.00  0.00    -0.390 OA
HETATM   22  H   UNK N   1      19.289  13.769   5.500  0.00  0.00     0.210 HD
ENDBRANCH   5  21
TORSDOF 9
ENDMDL
MODEL 8
REMARK VINA RESULT:      -5.0      7.111      9.517
REMARK  9 active torsions:
REMARK  status: ('A' for Active; 'I' for Inactive)
REMARK    1  A    between atoms: C_2  and  O_12 
REMARK    2  A    between atoms: C_3  and  O_4 
REMARK    3  A    between atoms: C_5  and  O_6 
REMARK    4  A    between atoms: C_7  and  O_8 
REMARK    5  A    between atoms: C_9  and  C_10 
REMARK    6  A    between atoms: C_10  and  O_11 
REMARK    7  A    between atoms: O_12  and  P_15 
REMARK    8  A    between atoms: P_15  and  O_14 
REMARK    9  A    between atoms: P_15  and  O_16 
ROOT
HETATM    1  O   UNK N   1      22.039  18.508   3.985  0.00  0.00    -0.348 OA
HETATM    2  C   UNK N   1      20.954  17.860   4.608  0.00  0.00     0.303 C 
HETATM    3  C   UNK N   1      20.009  17.292   3.536  0.00  0.00     0.205 C 
HETATM    4  C   UNK N   1      19.524  18.425   2.642  0.00  0.00     0.183 C 
HETATM    5  C   UNK N   1      20.709  19.226   2.120  0.00  0.00     0.180 C 
HETATM    6  C   UNK N   1      21.561  19.658   3.325  0.00  0.00     0.179 C 
ENDROOT
BRANCH   2   7
HETATM    7  O   UNK N   1      21.458  16.807   5.386  0.00  0.00    -0.263 OA
BRANCH   7   8
HETATM    8  P   UNK N   1      22.805  16.144   4.507  0.00  0.00     0.393 P 
HETATM    9  O   UNK N   1      22.070  14.850   4.943  0.00  0.00    -0.631 OA
BRANCH   8  10
HETATM   10  O   UNK N   1      24.074  15.279   5.315  0.00  0.00    -0.307 OA
HETATM   11  H   UNK N   1      23.907  14.779   6.129  0.00  0.00     0.222 HD
ENDBRANCH   8  10
BRANCH   8  12
HETATM   12  O   UNK N   1      23.349  16.976   5.932  0.00  0.00    -0.307 OA
HETATM   13  H   UNK N   1      23.414  17.867   6.310  0.00  0.00     0.222 HD
ENDBRANCH   8  12
ENDBRANCH   7   8
ENDBRANCH   2   7
BRANCH   3  14
HETATM   14  O   UNK N   1      18.906  16.678   4.133  0.00  0.00    -0.388 OA
HETATM   15  H   UNK N   1      18.195  16.226   3.652  0.00  0.00     0.210 HD
ENDBRANCH   3  14
BRANCH   6  16
HETATM   16  C   UNK N   1      22.765  20.480   2.883  0.00  0.00     0.198 C 
BRANCH  16  17
HETATM   17  O   UNK N   1      22.455  21.840   2.856  0.00  0.00    -0.398 OA
HETATM   18  H   UNK N   1      22.572  22.517   2.172  0.00  0.00     0.209 HD
ENDBRANCH  16  17
ENDBRANCH   6  16
BRANCH   4  19
HETATM   19  O   UNK N   1      18.784  17.909   1.578  0.00  0.00    -0.390 OA
HETATM   20  H   UNK N   1      19.178  17.670   0.725  0.00  0.00     0.210 HD
ENDBRANCH   4  19
BRANCH   5  21
HETATM   21  O   UNK N   1      20.234  20.335   1.415  0.00  0.00    -0.390 OA
HETATM   22  H   UNK N   1      20.719  20.885   0.781  0.00  0.00     0.210 HD
ENDBRANCH   5  21
TORSDOF 9
ENDMDL
MODEL 9
REMARK VINA RESULT:      -4.9      8.521     10.846
REMARK  9 active torsions:
REMARK  status: ('A' for Active; 'I' for Inactive)
REMARK    1  A    between atoms: C_2  and  O_12 
REMARK    2  A    between atoms: C_3  and  O_4 
REMARK    3  A    between atoms: C_5  and  O_6 
REMARK    4  A    between atoms: C_7  and  O_8 
REMARK    5  A    between atoms: C_9  and  C_10 
REMARK    6  A    between atoms: C_10  and  O_11 
REMARK    7  A    between atoms: O_12  and  P_15 
REMARK    8  A    between atoms: P_15  and  O_14 
REMARK    9  A    between atoms: P_15  and  O_16 
ROOT
HETATM    1  O   UNK N   1      30.265  16.975   6.499  0.00  0.00    -0.348 OA
HETATM    2  C   UNK N   1      30.813  17.527   7.673  0.00  0.00     0.303 C 
HETATM    3  C   UNK N   1      29.775  17.467   8.806  0.00  0.00     0.205 C 
HETATM    4  C   UNK N   1      28.525  18.226   8.382  0.00  0.00     0.183 C 
HETATM    5  C   UNK N   1      28.048  17.735   7.021  0.00  0.00     0.180 C 
HETATM    6  C   UNK N   1      29.232  17.819   6.043  0.00  0.00     0.179 C 
ENDROOT
BRANCH   2   7
HETATM    7  O   UNK N   1      31.936  16.767   8.034  0.00  0.00    -0.263 OA
BRANCH   7   8
HETATM    8  P   UNK N   1      33.207  17.207   6.929  0.00  0.00     0.393 P 
HETATM    9  O   UNK N   1      33.904  16.094   7.754  0.00  0.00    -0.631 OA
BRANCH   8  10
HETATM   10  O   UNK N   1      34.637  18.023   7.475  0.00  0.00    -0.307 OA
HETATM   11  H   UNK N   1      34.952  18.834   7.046  0.00  0.00     0.222 HD
ENDBRANCH   8  10
BRANCH   8  12
HETATM   12  O   UNK N   1      32.830  18.528   7.993  0.00  0.00    -0.307 OA
HETATM   13  H   UNK N   1      32.684  18.727   8.931  0.00  0.00     0.222 HD
ENDBRANCH   8  12
ENDBRANCH   7   8
ENDBRANCH   2   7
BRANCH   3  14
HETATM   14  O   UNK N   1      30.287  18.044   9.969  0.00  0.00    -0.388 OA
HETATM   15  H   UNK N   1      30.459  17.567  10.796  0.00  0.00     0.210 HD
ENDBRANCH   3  14
BRANCH   6  16
HETATM   16  C   UNK N   1      28.828  17.355   4.649  0.00  0.00     0.198 C 
BRANCH  16  17
HETATM   17  O   UNK N   1      28.348  18.423   3.890  0.00  0.00    -0.398 OA
HETATM   18  H   UNK N   1      28.641  19.343   3.810  0.00  0.00     0.209 HD
ENDBRANCH  16  17
ENDBRANCH   6  16
BRANCH   4  19
HETATM   19  O   UNK N   1      27.520  18.058   9.335  0.00  0.00    -0.390 OA
HETATM   20  H   UNK N   1      26.575  18.136   9.128  0.00  0.00     0.210 HD
ENDBRANCH   4  19
BRANCH   5  21
HETATM   21  O   UNK N   1      26.985  18.535   6.596  0.00  0.00    -0.390 OA
HETATM   22  H   UNK N   1      26.052  18.465   6.852  0.00  0.00     0.210 HD
ENDBRANCH   5  21
TORSDOF 9
ENDMDL
