MODEL 1
REMARK VINA RESULT:      -6.3      0.000      0.000
REMARK  14 active torsions:
REMARK  status: ('A' for Active; 'I' for Inactive)
REMARK    1  A    between atoms: C_2  and  N_1 
REMARK    2  A    between atoms: C_5  and  O_13 
REMARK    3  A    between atoms: C_12  and  O_17 
REMARK    4  A    between atoms: C_14  and  C_18 
REMARK    5  A    between atoms: C_15  and  N_21 
REMARK    6  A    between atoms: O_17  and  P_22 
REMARK    7  A    between atoms: C_18  and  O_23 
REMARK    8  A    between atoms: P_22  and  O_24 
REMARK    9  A    between atoms: P_22  and  O_25 
REMARK   10  A    between atoms: O_23  and  P_27 
REMARK   11  A    between atoms: P_27  and  O_28 
REMARK   12  A    between atoms: P_27  and  O_29 
REMARK   13  A    between atoms: O_28  and  S_31 
REMARK   14  A    between atoms: S_31  and  O_32 
ROOT
HETATM    1  C   UNK N   1      21.106  16.125   2.167  0.00  0.00     0.262 C 
HETATM    2  C   UNK N   1      20.032  17.064   1.606  0.00  0.00     0.199 C 
HETATM    3  O   UNK N   1      21.824  16.843   3.139  0.00  0.00    -0.353 OA
HETATM    4  C   UNK N   1      20.238  18.361   2.367  0.00  0.00     0.197 C 
HETATM    5  C   UNK N   1      20.880  17.767   3.591  0.00  0.00     0.180 C 
ENDROOT
BRANCH   1   6
HETATM    6  N   UNK N   1      20.502  14.922   2.762  0.00  0.00    -0.297 N 
HETATM    7  C   UNK N   1      20.957  14.149   3.765  0.00  0.00     0.142 A 
HETATM    8  C   UNK N   1      20.113  13.118   3.955  0.00  0.00     0.122 A 
HETATM    9  N   UNK N   1      22.079  14.310   4.509  0.00  0.00    -0.336 N 
HETATM   10  C   UNK N   1      20.379  12.171   4.935  0.00  0.00     0.131 A 
HETATM   11  N   UNK N   1      19.091  13.200   3.083  0.00  0.00    -0.346 N 
HETATM   12  N   UNK N   1      21.505  12.331   5.693  0.00  0.00    -0.337 N 
HETATM   13  C   UNK N   1      22.349  13.393   5.487  0.00  0.00     0.183 A 
ATOM     14  HN  UNK N   1      21.721  11.650   6.423  1.00  0.00     0.168 HD
HETATM   15  C   UNK N   1      19.353  14.324   2.355  0.00  0.00     0.188 A 
ATOM     16  HN  UNK N   1      18.299  12.564   2.988  1.00  0.00     0.167 HD
ATOM     17  HN  UNK N   1      22.706  15.097   4.345  1.00  0.00     0.168 HD
BRANCH  10  18
HETATM   18  N   UNK N   1      19.524  11.072   5.145  0.00  0.00    -0.383 N 
HETATM   19  H   UNK N   1      18.703  11.156   5.681  0.00  0.00     0.157 HD
HETATM   20  H   UNK N   1      19.753  10.201   4.748  0.00  0.00     0.157 HD
ENDBRANCH  10  18
ENDBRANCH   1   6
BRANCH   2  21
HETATM   21  O   UNK N   1      20.172  17.241   0.227  0.00  0.00    -0.388 OA
HETATM   22  H   UNK N   1      21.024  17.521  -0.141  0.00  0.00     0.210 HD
ENDBRANCH   2  21
BRANCH   4  23
HETATM   23  O   UNK N   1      21.163  19.204   1.724  0.00  0.00    -0.286 OA
BRANCH  23  24
HETATM   24  P   UNK N   1      20.331  20.725   1.524  0.00  0.00     0.391 P 
HETATM   25  O   UNK N   1      21.713  21.226   2.022  0.00  0.00    -0.632 OA
BRANCH  24  26
HETATM   26  O   UNK N   1      20.777  21.877   0.305  0.00  0.00    -0.307 OA
HETATM   27  H   UNK N   1      20.159  22.208  -0.366  0.00  0.00     0.222 HD
ENDBRANCH  24  26
BRANCH  24  28
HETATM   28  O   UNK N   1      20.557  19.961  -0.017  0.00  0.00    -0.307 OA
HETATM   29  H   UNK N   1      19.874  19.878  -0.701  0.00  0.00     0.222 HD
ENDBRANCH  24  28
ENDBRANCH  23  24
ENDBRANCH   4  23
BRANCH   5  30
HETATM   30  C   UNK N   1      21.465  18.750   4.576  0.00  0.00     0.215 C 
BRANCH  30  31
HETATM   31  O   UNK N   1      22.111  18.030   5.580  0.00  0.00    -0.294 OA
BRANCH  31  32
HETATM   32  P   UNK N   1      20.832  17.346   6.528  0.00  0.00     0.409 P 
HETATM   33  O   UNK N   1      20.923  18.768   7.147  0.00  0.00    -0.631 OA
BRANCH  32  34
HETATM   34  O   UNK N   1      21.074  16.944   8.206  0.00  0.00    -0.159 OA
BRANCH  34  35
HETATM   35  S   UNK N   1      19.919  15.709   8.544  0.00  0.00     0.249 S 
HETATM   36  O   UNK N   1      19.989  14.543   7.547  0.00  0.00    -0.579 OA
HETATM   37  O   UNK N   1      21.304  15.112   8.835  0.00  0.00    -0.579 OA
BRANCH  35  38
HETATM   38  O   UNK N   1      19.807  16.336   6.948  0.00  0.00    -0.273 OA
HETATM   39  H   UNK N   1      19.994  15.864   6.121  0.00  0.00     0.234 HD
ENDBRANCH  35  38
ENDBRANCH  34  35
ENDBRANCH  32  34
BRANCH  32  40
HETATM   40  O   UNK N   1      22.353  16.539   6.748  0.00  0.00    -0.306 OA
HETATM   41  H   UNK N   1      23.191  16.964   6.991  0.00  0.00     0.222 HD
ENDBRANCH  32  40
ENDBRANCH  31  32
ENDBRANCH  30  31
ENDBRANCH   5  30
TORSDOF 14
ENDMDL
MODEL 2
REMARK VINA RESULT:      -6.2      2.327      2.765
REMARK  14 active torsions:
REMARK  status: ('A' for Active; 'I' for Inactive)
REMARK    1  A    between atoms: C_2  and  N_1 
REMARK    2  A    between atoms: C_5  and  O_13 
REMARK    3  A    between atoms: C_12  and  O_17 
REMARK    4  A    between atoms: C_14  and  C_18 
REMARK    5  A    between atoms: C_15  and  N_21 
REMARK    6  A    between atoms: O_17  and  P_22 
REMARK    7  A    between atoms: C_18  and  O_23 
REMARK    8  A    between atoms: P_22  and  O_24 
REMARK    9  A    between atoms: P_22  and  O_25 
REMARK   10  A    between atoms: O_23  and  P_27 
REMARK   11  A    between atoms: P_27  and  O_28 
REMARK   12  A    between atoms: P_27  and  O_29 
REMARK   13  A    between atoms: O_28  and  S_31 
REMARK   14  A    between atoms: S_31  and  O_32 
ROOT
HETATM    1  C   UNK N   1      20.885  15.817   0.908  0.00  0.00     0.262 C 
HETATM    2  C   UNK N   1      19.988  17.060   0.897  0.00  0.00     0.199 C 
HETATM    3  O   UNK N   1      21.545  15.787   2.149  0.00  0.00    -0.353 OA
HETATM    4  C   UNK N   1      20.226  17.702   2.252  0.00  0.00     0.197 C 
HETATM    5  C   UNK N   1      20.649  16.457   2.985  0.00  0.00     0.180 C 
ENDROOT
BRANCH   1   6
HETATM    6  N   UNK N   1      20.094  14.590   0.719  0.00  0.00    -0.297 N 
HETATM    7  C   UNK N   1      20.498  13.306   0.741  0.00  0.00     0.142 A 
HETATM    8  C   UNK N   1      19.452  12.503   0.469  0.00  0.00     0.122 A 
HETATM    9  N   UNK N   1      21.739  12.818   0.982  0.00  0.00    -0.336 N 
HETATM   10  C   UNK N   1      19.625  11.126   0.423  0.00  0.00     0.131 A 
HETATM   11  N   UNK N   1      18.348  13.246   0.268  0.00  0.00    -0.346 N 
HETATM   12  N   UNK N   1      20.873  10.627   0.672  0.00  0.00    -0.337 N 
HETATM   13  C   UNK N   1      21.924  11.464   0.953  0.00  0.00     0.183 A 
ATOM     14  HN  UNK N   1      21.025   9.618   0.647  1.00  0.00     0.168 HD
HETATM   15  C   UNK N   1      18.770  14.534   0.427  0.00  0.00     0.188 A 
ATOM     16  HN  UNK N   1      17.407  12.919   0.046  1.00  0.00     0.167 HD
ATOM     17  HN  UNK N   1      22.517  13.446   1.182  1.00  0.00     0.168 HD
BRANCH  10  18
HETATM   18  N   UNK N   1      18.554  10.262   0.124  0.00  0.00    -0.383 N 
HETATM   19  H   UNK N   1      18.369   9.975  -0.799  0.00  0.00     0.157 HD
HETATM   20  H   UNK N   1      17.978   9.938   0.853  0.00  0.00     0.157 HD
ENDBRANCH  10  18
ENDBRANCH   1   6
BRANCH   2  21
HETATM   21  O   UNK N   1      20.316  17.922  -0.152  0.00  0.00    -0.388 OA
HETATM   22  H   UNK N   1      19.885  18.789  -0.220  0.00  0.00     0.210 HD
ENDBRANCH   2  21
BRANCH   4  23
HETATM   23  O   UNK N   1      21.303  18.606   2.221  0.00  0.00    -0.286 OA
BRANCH  23  24
HETATM   24  P   UNK N   1      20.625  20.140   2.702  0.00  0.00     0.391 P 
HETATM   25  O   UNK N   1      21.711  19.960   3.796  0.00  0.00    -0.632 OA
BRANCH  24  26
HETATM   26  O   UNK N   1      21.516  21.626   2.599  0.00  0.00    -0.307 OA
HETATM   27  H   UNK N   1      21.990  22.016   3.351  0.00  0.00     0.222 HD
ENDBRANCH  24  26
BRANCH  24  28
HETATM   28  O   UNK N   1      21.423  20.295   1.170  0.00  0.00    -0.307 OA
HETATM   29  H   UNK N   1      21.949  19.599   0.745  0.00  0.00     0.222 HD
ENDBRANCH  24  28
ENDBRANCH  23  24
ENDBRANCH   4  23
BRANCH   5  30
HETATM   30  C   UNK N   1      21.201  16.660   4.373  0.00  0.00     0.215 C 
BRANCH  30  31
HETATM   31  O   UNK N   1      20.156  17.059   5.207  0.00  0.00    -0.294 OA
BRANCH  31  32
HETATM   32  P   UNK N   1      19.790  15.656   6.157  0.00  0.00     0.409 P 
HETATM   33  O   UNK N   1      18.375  16.035   5.640  0.00  0.00    -0.631 OA
BRANCH  32  34
HETATM   34  O   UNK N   1      18.929  15.795   7.666  0.00  0.00    -0.159 OA
BRANCH  34  35
HETATM   35  S   UNK N   1      20.067  15.331   8.876  0.00  0.00     0.249 S 
HETATM   36  O   UNK N   1      19.581  14.147   9.725  0.00  0.00    -0.579 OA
HETATM   37  O   UNK N   1      20.021  14.189   7.850  0.00  0.00    -0.579 OA
BRANCH  35  38
HETATM   38  O   UNK N   1      18.510  15.701   9.504  0.00  0.00    -0.273 OA
HETATM   39  H   UNK N   1      18.057  16.557   9.473  0.00  0.00     0.234 HD
ENDBRANCH  35  38
ENDBRANCH  34  35
ENDBRANCH  32  34
BRANCH  32  40
HETATM   40  O   UNK N   1      20.415  16.976   7.097  0.00  0.00    -0.306 OA
HETATM   41  H   UNK N   1      20.974  16.896   7.885  0.00  0.00     0.222 HD
ENDBRANCH  32  40
ENDBRANCH  31  32
ENDBRANCH  30  31
ENDBRANCH   5  30
TORSDOF 14
ENDMDL
MODEL 3
REMARK VINA RESULT:      -6.1      3.577      4.430
REMARK  14 active torsions:
REMARK  status: ('A' for Active; 'I' for Inactive)
REMARK    1  A    between atoms: C_2  and  N_1 
REMARK    2  A    between atoms: C_5  and  O_13 
REMARK    3  A    between atoms: C_12  and  O_17 
REMARK    4  A    between atoms: C_14  and  C_18 
REMARK    5  A    between atoms: C_15  and  N_21 
REMARK    6  A    between atoms: O_17  and  P_22 
REMARK    7  A    between atoms: C_18  and  O_23 
REMARK    8  A    between atoms: P_22  and  O_24 
REMARK    9  A    between atoms: P_22  and  O_25 
REMARK   10  A    between atoms: O_23  and  P_27 
REMARK   11  A    between atoms: P_27  and  O_28 
REMARK   12  A    between atoms: P_27  and  O_29 
REMARK   13  A    between atoms: O_28  and  S_31 
REMARK   14  A    between atoms: S_31  and  O_32 
ROOT
HETATM    1  C   UNK N   1      21.081  16.570   4.248  0.00  0.00     0.262 C 
HETATM    2  C   UNK N   1      20.180  17.778   3.967  0.00  0.00     0.199 C 
HETATM    3  O   UNK N   1      22.409  16.979   4.037  0.00  0.00    -0.353 OA
HETATM    4  C   UNK N   1      21.148  18.881   3.581  0.00  0.00     0.197 C 
HETATM    5  C   UNK N   1      22.352  18.348   4.309  0.00  0.00     0.180 C 
ENDROOT
BRANCH   1   6
HETATM    6  N   UNK N   1      20.908  16.089   5.628  0.00  0.00    -0.297 N 
HETATM    7  C   UNK N   1      21.739  15.342   6.379  0.00  0.00     0.142 A 
HETATM    8  C   UNK N   1      21.162  15.088   7.568  0.00  0.00     0.122 A 
HETATM    9  N   UNK N   1      22.971  14.874   6.060  0.00  0.00    -0.336 N 
HETATM   10  C   UNK N   1      21.827  14.320   8.515  0.00  0.00     0.131 A 
HETATM   11  N   UNK N   1      19.947  15.665   7.617  0.00  0.00    -0.346 N 
HETATM   12  N   UNK N   1      23.072  13.851   8.202  0.00  0.00    -0.337 N 
HETATM   13  C   UNK N   1      23.644  14.127   6.986  0.00  0.00     0.183 A 
ATOM     14  HN  UNK N   1      23.582  13.287   8.883  1.00  0.00     0.168 HD
HETATM   15  C   UNK N   1      19.811  16.278   6.405  0.00  0.00     0.188 A 
ATOM     16  HN  UNK N   1      19.277  15.647   8.387  1.00  0.00     0.167 HD
ATOM     17  HN  UNK N   1      23.387  15.077   5.151  1.00  0.00     0.168 HD
BRANCH  10  18
HETATM   18  N   UNK N   1      21.241  14.022   9.761  0.00  0.00    -0.383 N 
HETATM   19  H   UNK N   1      21.141  14.709  10.457  0.00  0.00     0.157 HD
HETATM   20  H   UNK N   1      20.925  13.107   9.938  0.00  0.00     0.157 HD
ENDBRANCH  10  18
ENDBRANCH   1   6
BRANCH   2  21
HETATM   21  O   UNK N   1      19.263  17.510   2.947  0.00  0.00    -0.388 OA
HETATM   22  H   UNK N   1      19.279  16.653   2.493  0.00  0.00     0.210 HD
ENDBRANCH   2  21
BRANCH   4  23
HETATM   23  O   UNK N   1      21.411  18.887   2.198  0.00  0.00    -0.286 OA
BRANCH  23  24
HETATM   24  P   UNK N   1      20.676  20.352   1.600  0.00  0.00     0.391 P 
HETATM   25  O   UNK N   1      22.178  20.736   1.510  0.00  0.00    -0.632 OA
BRANCH  24  26
HETATM   26  O   UNK N   1      20.836  20.868  -0.049  0.00  0.00    -0.307 OA
HETATM   27  H   UNK N   1      20.164  21.395  -0.510  0.00  0.00     0.222 HD
ENDBRANCH  24  26
BRANCH  24  28
HETATM   28  O   UNK N   1      20.387  19.045   0.497  0.00  0.00    -0.307 OA
HETATM   29  H   UNK N   1      20.788  18.962  -0.383  0.00  0.00     0.222 HD
ENDBRANCH  24  28
ENDBRANCH  23  24
ENDBRANCH   4  23
BRANCH   5  30
HETATM   30  C   UNK N   1      23.660  19.044   4.029  0.00  0.00     0.215 C 
BRANCH  30  31
HETATM   31  O   UNK N   1      24.653  18.074   3.894  0.00  0.00    -0.294 OA
BRANCH  31  32
HETATM   32  P   UNK N   1      25.924  18.594   4.952  0.00  0.00     0.409 P 
HETATM   33  O   UNK N   1      26.742  18.163   3.703  0.00  0.00    -0.631 OA
BRANCH  32  34
HETATM   34  O   UNK N   1      27.018  17.444   5.672  0.00  0.00    -0.159 OA
BRANCH  34  35
HETATM   35  S   UNK N   1      28.326  18.389   6.280  0.00  0.00     0.249 S 
HETATM   36  O   UNK N   1      28.103  18.849   7.728  0.00  0.00    -0.579 OA
HETATM   37  O   UNK N   1      28.342  17.061   7.053  0.00  0.00    -0.579 OA
BRANCH  35  38
HETATM   38  O   UNK N   1      26.804  19.179   6.383  0.00  0.00    -0.273 OA
HETATM   39  H   UNK N   1      25.958  18.864   6.027  0.00  0.00     0.234 HD
ENDBRANCH  35  38
ENDBRANCH  34  35
ENDBRANCH  32  34
BRANCH  32  40
HETATM   40  O   UNK N   1      25.052  17.218   5.554  0.00  0.00    -0.306 OA
HETATM   41  H   UNK N   1      25.364  16.300   5.542  0.00  0.00     0.222 HD
ENDBRANCH  32  40
ENDBRANCH  31  32
ENDBRANCH  30  31
ENDBRANCH   5  30
TORSDOF 14
ENDMDL
MODEL 4
REMARK VINA RESULT:      -6.0     11.810     13.591
REMARK  14 active torsions:
REMARK  status: ('A' for Active; 'I' for Inactive)
REMARK    1  A    between atoms: C_2  and  N_1 
REMARK    2  A    between atoms: C_5  and  O_13 
REMARK    3  A    between atoms: C_12  and  O_17 
REMARK    4  A    between atoms: C_14  and  C_18 
REMARK    5  A    between atoms: C_15  and  N_21 
REMARK    6  A    between atoms: O_17  and  P_22 
REMARK    7  A    between atoms: C_18  and  O_23 
REMARK    8  A    between atoms: P_22  and  O_24 
REMARK    9  A    between atoms: P_22  and  O_25 
REMARK   10  A    between atoms: O_23  and  P_27 
REMARK   11  A    between atoms: P_27  and  O_28 
REMARK   12  A    between atoms: P_27  and  O_29 
REMARK   13  A    between atoms: O_28  and  S_31 
REMARK   14  A    between atoms: S_31  and  O_32 
ROOT
HETATM    1  C   UNK N   1      30.884  15.764   6.147  0.00  0.00     0.262 C 
HETATM    2  C   UNK N   1      32.171  16.037   5.360  0.00  0.00     0.199 C 
HETATM    3  O   UNK N   1      31.256  15.478   7.473  0.00  0.00    -0.353 OA
HETATM    4  C   UNK N   1      33.277  15.870   6.388  0.00  0.00     0.197 C 
HETATM    5  C   UNK N   1      32.455  16.180   7.609  0.00  0.00     0.180 C 
ENDROOT
BRANCH   1   6
HETATM    6  N   UNK N   1      29.982  16.926   6.108  0.00  0.00    -0.297 N 
HETATM    7  C   UNK N   1      29.257  17.474   7.101  0.00  0.00     0.142 A 
HETATM    8  C   UNK N   1      28.529  18.495   6.613  0.00  0.00     0.122 A 
HETATM    9  N   UNK N   1      29.208  17.111   8.406  0.00  0.00    -0.336 N 
HETATM   10  C   UNK N   1      27.687  19.213   7.452  0.00  0.00     0.131 A 
HETATM   11  N   UNK N   1      28.765  18.634   5.295  0.00  0.00    -0.346 N 
HETATM   12  N   UNK N   1      27.637  18.857   8.770  0.00  0.00    -0.337 N 
HETATM   13  C   UNK N   1      28.394  17.816   9.248  0.00  0.00     0.183 A 
ATOM     14  HN  UNK N   1      27.028  19.372   9.408  1.00  0.00     0.168 HD
HETATM   15  C   UNK N   1      29.667  17.652   5.005  0.00  0.00     0.188 A 
ATOM     16  HN  UNK N   1      28.360  19.320   4.657  1.00  0.00     0.167 HD
ATOM     17  HN  UNK N   1      29.766  16.332   8.753  1.00  0.00     0.168 HD
BRANCH  10  18
HETATM   18  N   UNK N   1      26.898  20.275   6.966  0.00  0.00    -0.383 N 
HETATM   19  H   UNK N   1      25.992  20.439   7.311  0.00  0.00     0.157 HD
HETATM   20  H   UNK N   1      27.262  20.865   6.268  0.00  0.00     0.157 HD
ENDBRANCH  10  18
ENDBRANCH   1   6
BRANCH   2  21
HETATM   21  O   UNK N   1      32.318  15.152   4.290  0.00  0.00    -0.388 OA
HETATM   22  H   UNK N   1      33.204  14.919   3.971  0.00  0.00     0.210 HD
ENDBRANCH   2  21
BRANCH   4  23
HETATM   23  O   UNK N   1      33.727  14.539   6.461  0.00  0.00    -0.286 OA
BRANCH  23  24
HETATM   24  P   UNK N   1      35.210  14.508   5.542  0.00  0.00     0.391 P 
HETATM   25  O   UNK N   1      35.302  15.924   6.172  0.00  0.00    -0.632 OA
BRANCH  24  26
HETATM   26  O   UNK N   1      36.772  14.486   6.297  0.00  0.00    -0.307 OA
HETATM   27  H   UNK N   1      37.525  15.011   5.981  0.00  0.00     0.222 HD
ENDBRANCH  24  26
BRANCH  24  28
HETATM   28  O   UNK N   1      35.277  13.342   6.825  0.00  0.00    -0.307 OA
HETATM   29  H   UNK N   1      35.762  12.502   6.786  0.00  0.00     0.222 HD
ENDBRANCH  24  28
ENDBRANCH  23  24
ENDBRANCH   4  23
BRANCH   5  30
HETATM   30  C   UNK N   1      33.120  15.926   8.939  0.00  0.00     0.215 C 
BRANCH  30  31
HETATM   31  O   UNK N   1      34.293  16.679   8.992  0.00  0.00    -0.294 OA
BRANCH  31  32
HETATM   32  P   UNK N   1      35.091  16.152  10.438  0.00  0.00     0.409 P 
HETATM   33  O   UNK N   1      35.671  17.585  10.292  0.00  0.00    -0.631 OA
BRANCH  32  34
HETATM   34  O   UNK N   1      36.799  15.803  10.444  0.00  0.00    -0.159 OA
BRANCH  34  35
HETATM   35  S   UNK N   1      36.915  14.120  10.085  0.00  0.00     0.249 S 
HETATM   36  O   UNK N   1      37.944  13.395  10.964  0.00  0.00    -0.579 OA
HETATM   37  O   UNK N   1      36.288  14.233  11.483  0.00  0.00    -0.579 OA
BRANCH  35  38
HETATM   38  O   UNK N   1      38.416  14.949   9.980  0.00  0.00    -0.273 OA
HETATM   39  H   UNK N   1      38.941  15.107   9.179  0.00  0.00     0.234 HD
ENDBRANCH  35  38
ENDBRANCH  34  35
ENDBRANCH  32  34
BRANCH  32  40
HETATM   40  O   UNK N   1      35.529  15.224   9.036  0.00  0.00    -0.306 OA
HETATM   41  H   UNK N   1      36.116  15.517   8.322  0.00  0.00     0.222 HD
ENDBRANCH  32  40
ENDBRANCH  31  32
ENDBRANCH  30  31
ENDBRANCH   5  30
TORSDOF 14
ENDMDL
MODEL 5
REMARK VINA RESULT:      -5.9     10.883     12.412
REMARK  14 active torsions:
REMARK  status: ('A' for Active; 'I' for Inactive)
REMARK    1  A    between atoms: C_2  and  N_1 
REMARK    2  A    between atoms: C_5  and  O_13 
REMARK    3  A    between atoms: C_12  and  O_17 
REMARK    4  A    between atoms: C_14  and  C_18 
REMARK    5  A    between atoms: C_15  and  N_21 
REMARK    6  A    between atoms: O_17  and  P_22 
REMARK    7  A    between atoms: C_18  and  O_23 
REMARK    8  A    between atoms: P_22  and  O_24 
REMARK    9  A    between atoms: P_22  and  O_25 
REMARK   10  A    between atoms: O_23  and  P_27 
REMARK   11  A    between atoms: P_27  and  O_28 
REMARK   12  A    between atoms: P_27  and  O_29 
REMARK   13  A    between atoms: O_28  and  S_31 
REMARK   14  A    between atoms: S_31  and  O_32 
ROOT
HETATM    1  C   UNK N   1      30.430  15.992   5.373  0.00  0.00     0.262 C 
HETATM    2  C   UNK N   1      30.936  15.965   3.926  0.00  0.00     0.199 C 
HETATM    3  O   UNK N   1      31.559  16.022   6.211  0.00  0.00    -0.353 OA
HETATM    4  C   UNK N   1      32.448  15.983   4.061  0.00  0.00     0.197 C 
HETATM    5  C   UNK N   1      32.515  16.648   5.409  0.00  0.00     0.180 C 
ENDROOT
BRANCH   1   6
HETATM    6  N   UNK N   1      29.581  17.168   5.617  0.00  0.00    -0.297 N 
HETATM    7  C   UNK N   1      29.051  17.610   6.773  0.00  0.00     0.142 A 
HETATM    8  C   UNK N   1      28.293  18.696   6.532  0.00  0.00     0.122 A 
HETATM    9  N   UNK N   1      29.201  17.097   8.018  0.00  0.00    -0.336 N 
HETATM   10  C   UNK N   1      27.629  19.327   7.575  0.00  0.00     0.131 A 
HETATM   11  N   UNK N   1      28.316  18.985   5.217  0.00  0.00    -0.346 N 
HETATM   12  N   UNK N   1      27.782  18.819   8.835  0.00  0.00    -0.337 N 
HETATM   13  C   UNK N   1      28.564  17.714   9.058  0.00  0.00     0.183 A 
ATOM     14  HN  UNK N   1      27.307  19.267   9.619  1.00  0.00     0.168 HD
HETATM   15  C   UNK N   1      29.118  18.025   4.671  0.00  0.00     0.188 A 
ATOM     16  HN  UNK N   1      27.840  19.749   4.737  1.00  0.00     0.167 HD
ATOM     17  HN  UNK N   1      29.778  16.271   8.176  1.00  0.00     0.168 HD
BRANCH  10  18
HETATM   18  N   UNK N   1      26.815  20.455   7.351  0.00  0.00    -0.383 N 
HETATM   19  H   UNK N   1      25.922  20.370   6.948  0.00  0.00     0.157 HD
HETATM   20  H   UNK N   1      27.146  21.346   7.604  0.00  0.00     0.157 HD
ENDBRANCH  10  18
ENDBRANCH   1   6
BRANCH   2  21
HETATM   21  O   UNK N   1      30.488  14.831   3.245  0.00  0.00    -0.388 OA
HETATM   22  H   UNK N   1      31.102  14.323   2.692  0.00  0.00     0.210 HD
ENDBRANCH   2  21
BRANCH   4  23
HETATM   23  O   UNK N   1      32.980  14.684   4.161  0.00  0.00    -0.286 OA
BRANCH  23  24
HETATM   24  P   UNK N   1      34.046  14.521   2.789  0.00  0.00     0.391 P 
HETATM   25  O   UNK N   1      35.017  14.151   3.942  0.00  0.00    -0.632 OA
BRANCH  24  26
HETATM   26  O   UNK N   1      34.675  12.987   2.277  0.00  0.00    -0.307 OA
HETATM   27  H   UNK N   1      34.275  12.456   1.569  0.00  0.00     0.222 HD
ENDBRANCH  24  26
BRANCH  24  28
HETATM   28  O   UNK N   1      32.801  13.314   2.725  0.00  0.00    -0.307 OA
HETATM   29  H   UNK N   1      32.850  12.443   3.150  0.00  0.00     0.222 HD
ENDBRANCH  24  28
ENDBRANCH  23  24
ENDBRANCH   4  23
BRANCH   5  30
HETATM   30  C   UNK N   1      33.874  16.688   6.062  0.00  0.00     0.215 C 
BRANCH  30  31
HETATM   31  O   UNK N   1      34.065  17.962   6.597  0.00  0.00    -0.294 OA
BRANCH  31  32
HETATM   32  P   UNK N   1      34.066  17.724   8.314  0.00  0.00     0.409 P 
HETATM   33  O   UNK N   1      34.738  19.121   8.214  0.00  0.00    -0.631 OA
BRANCH  32  34
HETATM   34  O   UNK N   1      35.549  17.422   9.178  0.00  0.00    -0.159 OA
BRANCH  34  35
HETATM   35  S   UNK N   1      35.082  16.522  10.573  0.00  0.00     0.249 S 
HETATM   36  O   UNK N   1      34.223  15.297  10.227  0.00  0.00    -0.579 OA
HETATM   37  O   UNK N   1      36.066  15.642   9.787  0.00  0.00    -0.579 OA
BRANCH  35  38
HETATM   38  O   UNK N   1      33.754  17.029   9.606  0.00  0.00    -0.273 OA
HETATM   39  H   UNK N   1      33.749  17.744   8.951  0.00  0.00     0.234 HD
ENDBRANCH  35  38
ENDBRANCH  34  35
ENDBRANCH  32  34
BRANCH  32  40
HETATM   40  O   UNK N   1      35.043  16.568   7.462  0.00  0.00    -0.306 OA
HETATM   41  H   UNK N   1      35.079  16.455   6.500  0.00  0.00     0.222 HD
ENDBRANCH  32  40
ENDBRANCH  31  32
ENDBRANCH  30  31
ENDBRANCH   5  30
TORSDOF 14
ENDMDL
MODEL 6
REMARK VINA RESULT:      -5.9     13.806     15.492
REMARK  14 active torsions:
REMARK  status: ('A' for Active; 'I' for Inactive)
REMARK    1  A    between atoms: C_2  and  N_1 
REMARK    2  A    between atoms: C_5  and  O_13 
REMARK    3  A    between atoms: C_12  and  O_17 
REMARK    4  A    between atoms: C_14  and  C_18 
REMARK    5  A    between atoms: C_15  and  N_21 
REMARK    6  A    between atoms: O_17  and  P_22 
REMARK    7  A    between atoms: C_18  and  O_23 
REMARK    8  A    between atoms: P_22  and  O_24 
REMARK    9  A    between atoms: P_22  and  O_25 
REMARK   10  A    between atoms: O_23  and  P_27 
REMARK   11  A    between atoms: P_27  and  O_28 
REMARK   12  A    between atoms: P_27  and  O_29 
REMARK   13  A    between atoms: O_28  and  S_31 
REMARK   14  A    between atoms: S_31  and  O_32 
ROOT
HETATM    1  C   UNK N   1      34.215  15.217  10.531  0.00  0.00     0.262 C 
HETATM    2  C   UNK N   1      34.918  16.261   9.656  0.00  0.00     0.199 C 
HETATM    3  O   UNK N   1      33.732  14.211   9.675  0.00  0.00    -0.353 OA
HETATM    4  C   UNK N   1      34.768  15.725   8.244  0.00  0.00     0.197 C 
HETATM    5  C   UNK N   1      34.624  14.271   8.603  0.00  0.00     0.180 C 
ENDROOT
BRANCH   1   6
HETATM    6  N   UNK N   1      35.140  14.645  11.522  0.00  0.00    -0.297 N 
HETATM    7  C   UNK N   1      35.232  13.378  11.968  0.00  0.00     0.142 A 
HETATM    8  C   UNK N   1      36.186  13.305  12.914  0.00  0.00     0.122 A 
HETATM    9  N   UNK N   1      34.512  12.296  11.583  0.00  0.00    -0.336 N 
HETATM   10  C   UNK N   1      36.458  12.093  13.537  0.00  0.00     0.131 A 
HETATM   11  N   UNK N   1      36.736  14.519  13.102  0.00  0.00    -0.346 N 
HETATM   12  N   UNK N   1      35.740  10.997  13.149  0.00  0.00    -0.337 N 
HETATM   13  C   UNK N   1      34.775  11.093  12.177  0.00  0.00     0.183 A 
ATOM     14  HN  UNK N   1      35.923  10.094  13.589  1.00  0.00     0.168 HD
HETATM   15  C   UNK N   1      36.072  15.332  12.230  0.00  0.00     0.188 A 
ATOM     16  HN  UNK N   1      37.481  14.774  13.750  1.00  0.00     0.167 HD
ATOM     17  HN  UNK N   1      33.791  12.377  10.867  1.00  0.00     0.168 HD
BRANCH  10  18
HETATM   18  N   UNK N   1      37.438  11.989  14.543  0.00  0.00    -0.383 N 
HETATM   19  H   UNK N   1      37.868  11.129  14.752  0.00  0.00     0.157 HD
HETATM   20  H   UNK N   1      37.697  12.793  15.048  0.00  0.00     0.157 HD
ENDBRANCH  10  18
ENDBRANCH   1   6
BRANCH   2  21
HETATM   21  O   UNK N   1      34.339  17.525   9.797  0.00  0.00    -0.388 OA
HETATM   22  H   UNK N   1      33.772  17.716  10.560  0.00  0.00     0.210 HD
ENDBRANCH   2  21
BRANCH   4  23
HETATM   23  O   UNK N   1      33.579  16.171   7.638  0.00  0.00    -0.286 OA
BRANCH  23  24
HETATM   24  P   UNK N   1      33.995  16.448   5.966  0.00  0.00     0.391 P 
HETATM   25  O   UNK N   1      32.454  16.301   5.850  0.00  0.00    -0.632 OA
BRANCH  24  26
HETATM   26  O   UNK N   1      33.539  17.894   5.122  0.00  0.00    -0.307 OA
HETATM   27  H   UNK N   1      33.401  18.748   5.563  0.00  0.00     0.222 HD
ENDBRANCH  24  26
BRANCH  24  28
HETATM   28  O   UNK N   1      34.331  17.865   6.909  0.00  0.00    -0.307 OA
HETATM   29  H   UNK N   1      33.695  18.575   7.091  0.00  0.00     0.222 HD
ENDBRANCH  24  28
ENDBRANCH  23  24
ENDBRANCH   4  23
BRANCH   5  30
HETATM   30  C   UNK N   1      34.232  13.346   7.478  0.00  0.00     0.215 C 
BRANCH  30  31
HETATM   31  O   UNK N   1      33.048  12.700   7.834  0.00  0.00    -0.294 OA
BRANCH  31  32
HETATM   32  P   UNK N   1      33.424  11.010   7.751  0.00  0.00     0.409 P 
HETATM   33  O   UNK N   1      32.541  11.174   6.483  0.00  0.00    -0.631 OA
BRANCH  32  34
HETATM   34  O   UNK N   1      32.204   9.803   8.058  0.00  0.00    -0.159 OA
BRANCH  34  35
HETATM   35  S   UNK N   1      32.346   9.438   9.737  0.00  0.00     0.249 S 
HETATM   36  O   UNK N   1      32.102   7.953  10.044  0.00  0.00    -0.579 OA
HETATM   37  O   UNK N   1      33.531   8.759   9.034  0.00  0.00    -0.579 OA
BRANCH  35  38
HETATM   38  O   UNK N   1      30.838   8.972   9.059  0.00  0.00    -0.273 OA
HETATM   39  H   UNK N   1      30.569   8.079   8.792  0.00  0.00     0.234 HD
ENDBRANCH  35  38
ENDBRANCH  34  35
ENDBRANCH  32  34
BRANCH  32  40
HETATM   40  O   UNK N   1      32.483  11.435   9.148  0.00  0.00    -0.306 OA
HETATM   41  H   UNK N   1      32.421  10.920   9.968  0.00  0.00     0.222 HD
ENDBRANCH  32  40
ENDBRANCH  31  32
ENDBRANCH  30  31
ENDBRANCH   5  30
TORSDOF 14
ENDMDL
MODEL 7
REMARK VINA RESULT:      -5.8     10.279     12.263
REMARK  14 active torsions:
REMARK  status: ('A' for Active; 'I' for Inactive)
REMARK    1  A    between atoms: C_2  and  N_1 
REMARK    2  A    between atoms: C_5  and  O_13 
REMARK    3  A    between atoms: C_12  and  O_17 
REMARK    4  A    between atoms: C_14  and  C_18 
REMARK    5  A    between atoms: C_15  and  N_21 
REMARK    6  A    between atoms: O_17  and  P_22 
REMARK    7  A    between atoms: C_18  and  O_23 
REMARK    8  A    between atoms: P_22  and  O_24 
REMARK    9  A    between atoms: P_22  and  O_25 
REMARK   10  A    between atoms: O_23  and  P_27 
REMARK   11  A    between atoms: P_27  and  O_28 
REMARK   12  A    between atoms: P_27  and  O_29 
REMARK   13  A    between atoms: O_28  and  S_31 
REMARK   14  A    between atoms: S_31  and  O_32 
ROOT
HETATM    1  C   UNK N   1      29.431  16.150   5.952  0.00  0.00     0.262 C 
HETATM    2  C   UNK N   1      30.120  15.081   5.097  0.00  0.00     0.199 C 
HETATM    3  O   UNK N   1      30.440  16.879   6.606  0.00  0.00    -0.353 OA
HETATM    4  C   UNK N   1      31.601  15.300   5.351  0.00  0.00     0.197 C 
HETATM    5  C   UNK N   1      31.520  16.754   5.730  0.00  0.00     0.180 C 
ENDROOT
BRANCH   1   6
HETATM    6  N   UNK N   1      28.610  17.046   5.122  0.00  0.00    -0.297 N 
HETATM    7  C   UNK N   1      28.080  18.245   5.431  0.00  0.00     0.142 A 
HETATM    8  C   UNK N   1      27.354  18.695   4.391  0.00  0.00     0.122 A 
HETATM    9  N   UNK N   1      28.206  18.949   6.583  0.00  0.00    -0.336 N 
HETATM   10  C   UNK N   1      26.697  19.915   4.478  0.00  0.00     0.131 A 
HETATM   11  N   UNK N   1      27.397  17.802   3.385  0.00  0.00    -0.346 N 
HETATM   12  N   UNK N   1      26.824  20.633   5.634  0.00  0.00    -0.337 N 
HETATM   13  C   UNK N   1      27.575  20.158   6.679  0.00  0.00     0.183 A 
ATOM     14  HN  UNK N   1      26.353  21.535   5.720  1.00  0.00     0.168 HD
HETATM   15  C   UNK N   1      28.179  16.790   3.861  0.00  0.00     0.188 A 
ATOM     16  HN  UNK N   1      26.946  17.867   2.472  1.00  0.00     0.167 HD
ATOM     17  HN  UNK N   1      28.759  18.586   7.359  1.00  0.00     0.168 HD
BRANCH  10  18
HETATM   18  N   UNK N   1      25.914  20.404   3.413  0.00  0.00    -0.383 N 
HETATM   19  H   UNK N   1      25.954  21.348   3.139  0.00  0.00     0.157 HD
HETATM   20  H   UNK N   1      25.314  19.788   2.934  0.00  0.00     0.157 HD
ENDBRANCH  10  18
ENDBRANCH   1   6
BRANCH   2  21
HETATM   21  O   UNK N   1      29.715  13.794   5.456  0.00  0.00    -0.388 OA
HETATM   22  H   UNK N   1      29.362  13.627   6.344  0.00  0.00     0.210 HD
ENDBRANCH   2  21
BRANCH   4  23
HETATM   23  O   UNK N   1      32.057  14.560   6.458  0.00  0.00    -0.286 OA
BRANCH  23  24
HETATM   24  P   UNK N   1      33.502  13.755   5.904  0.00  0.00     0.391 P 
HETATM   25  O   UNK N   1      33.979  14.263   7.291  0.00  0.00    -0.632 OA
BRANCH  24  26
HETATM   26  O   UNK N   1      34.106  12.309   6.649  0.00  0.00    -0.307 OA
HETATM   27  H   UNK N   1      33.613  11.472   6.666  0.00  0.00     0.222 HD
ENDBRANCH  24  26
BRANCH  24  28
HETATM   28  O   UNK N   1      32.235  12.598   6.160  0.00  0.00    -0.307 OA
HETATM   29  H   UNK N   1      32.021  11.867   5.559  0.00  0.00     0.222 HD
ENDBRANCH  24  28
ENDBRANCH  23  24
ENDBRANCH   4  23
BRANCH   5  30
HETATM   30  C   UNK N   1      32.782  17.366   6.284  0.00  0.00     0.215 C 
BRANCH  30  31
HETATM   31  O   UNK N   1      32.516  17.828   7.573  0.00  0.00    -0.294 OA
BRANCH  31  32
HETATM   32  P   UNK N   1      34.076  18.133   8.264  0.00  0.00     0.409 P 
HETATM   33  O   UNK N   1      34.470  17.772   6.806  0.00  0.00    -0.631 OA
BRANCH  32  34
HETATM   34  O   UNK N   1      35.198  16.832   8.555  0.00  0.00    -0.159 OA
BRANCH  34  35
HETATM   35  S   UNK N   1      35.085  16.510  10.245  0.00  0.00     0.249 S 
HETATM   36  O   UNK N   1      36.457  16.309  10.904  0.00  0.00    -0.579 OA
HETATM   37  O   UNK N   1      35.724  17.899  10.101  0.00  0.00    -0.579 OA
BRANCH  35  38
HETATM   38  O   UNK N   1      35.948  15.306   9.374  0.00  0.00    -0.273 OA
HETATM   39  H   UNK N   1      35.590  14.696   8.710  0.00  0.00     0.234 HD
ENDBRANCH  35  38
ENDBRANCH  34  35
ENDBRANCH  32  34
BRANCH  32  40
HETATM   40  O   UNK N   1      33.263  16.775   8.979  0.00  0.00    -0.306 OA
HETATM   41  H   UNK N   1      32.562  16.250   8.563  0.00  0.00     0.222 HD
ENDBRANCH  32  40
ENDBRANCH  31  32
ENDBRANCH  30  31
ENDBRANCH   5  30
TORSDOF 14
ENDMDL
MODEL 8
REMARK VINA RESULT:      -5.8     15.672     18.084
REMARK  14 active torsions:
REMARK  status: ('A' for Active; 'I' for Inactive)
REMARK    1  A    between atoms: C_2  and  N_1 
REMARK    2  A    between atoms: C_5  and  O_13 
REMARK    3  A    between atoms: C_12  and  O_17 
REMARK    4  A    between atoms: C_14  and  C_18 
REMARK    5  A    between atoms: C_15  and  N_21 
REMARK    6  A    between atoms: O_17  and  P_22 
REMARK    7  A    between atoms: C_18  and  O_23 
REMARK    8  A    between atoms: P_22  and  O_24 
REMARK    9  A    between atoms: P_22  and  O_25 
REMARK   10  A    between atoms: O_23  and  P_27 
REMARK   11  A    between atoms: P_27  and  O_28 
REMARK   12  A    between atoms: P_27  and  O_29 
REMARK   13  A    between atoms: O_28  and  S_31 
REMARK   14  A    between atoms: S_31  and  O_32 
ROOT
HETATM    1  C   UNK N   1      36.805  12.447  13.429  0.00  0.00     0.262 C 
HETATM    2  C   UNK N   1      35.984  11.436  12.620  0.00  0.00     0.199 C 
HETATM    3  O   UNK N   1      36.859  13.637  12.681  0.00  0.00    -0.353 OA
HETATM    4  C   UNK N   1      35.599  12.193  11.362  0.00  0.00     0.197 C 
HETATM    5  C   UNK N   1      35.679  13.581  11.937  0.00  0.00     0.180 C 
ENDROOT
BRANCH   1   6
HETATM    6  N   UNK N   1      36.194  12.697  14.744  0.00  0.00    -0.297 N 
HETATM    7  C   UNK N   1      36.430  13.694  15.617  0.00  0.00     0.142 A 
HETATM    8  C   UNK N   1      35.686  13.508  16.722  0.00  0.00     0.122 A 
HETATM    9  N   UNK N   1      37.271  14.749  15.482  0.00  0.00    -0.336 N 
HETATM   10  C   UNK N   1      35.767  14.408  17.776  0.00  0.00     0.131 A 
HETATM   11  N   UNK N   1      34.949  12.389  16.592  0.00  0.00    -0.346 N 
HETATM   12  N   UNK N   1      36.608  15.477  17.644  0.00  0.00    -0.337 N 
HETATM   13  C   UNK N   1      37.354  15.651  16.505  0.00  0.00     0.183 A 
ATOM     14  HN  UNK N   1      36.683  16.155  18.404  1.00  0.00     0.168 HD
HETATM   15  C   UNK N   1      35.281  11.904  15.360  0.00  0.00     0.188 A 
ATOM     16  HN  UNK N   1      34.291  11.993  17.263  1.00  0.00     0.167 HD
ATOM     17  HN  UNK N   1      37.828  14.867  14.636  1.00  0.00     0.168 HD
BRANCH  10  18
HETATM   18  N   UNK N   1      35.014  14.230  18.953  0.00  0.00    -0.383 N 
HETATM   19  H   UNK N   1      35.423  14.329  19.843  0.00  0.00     0.157 HD
HETATM   20  H   UNK N   1      34.059  14.001  18.884  0.00  0.00     0.157 HD
ENDBRANCH  10  18
ENDBRANCH   1   6
BRANCH   2  21
HETATM   21  O   UNK N   1      36.723  10.287  12.331  0.00  0.00    -0.388 OA
HETATM   22  H   UNK N   1      37.391   9.969  12.957  0.00  0.00     0.210 HD
ENDBRANCH   2  21
BRANCH   4  23
HETATM   23  O   UNK N   1      36.568  12.056  10.351  0.00  0.00    -0.286 OA
BRANCH  23  24
HETATM   24  P   UNK N   1      35.728  11.325   9.008  0.00  0.00     0.391 P 
HETATM   25  O   UNK N   1      36.298  12.596   8.322  0.00  0.00    -0.632 OA
BRANCH  24  26
HETATM   26  O   UNK N   1      36.561  10.671   7.633  0.00  0.00    -0.307 OA
HETATM   27  H   UNK N   1      36.218  10.726   6.727  0.00  0.00     0.222 HD
ENDBRANCH  24  26
BRANCH  24  28
HETATM   28  O   UNK N   1      37.063  10.328   9.491  0.00  0.00    -0.307 OA
HETATM   29  H   UNK N   1      37.996  10.528   9.318  0.00  0.00     0.222 HD
ENDBRANCH  24  28
ENDBRANCH  23  24
ENDBRANCH   4  23
BRANCH   5  30
HETATM   30  C   UNK N   1      35.568  14.716  10.950  0.00  0.00     0.215 C 
BRANCH  30  31
HETATM   31  O   UNK N   1      34.374  14.568  10.245  0.00  0.00    -0.294 OA
BRANCH  31  32
HETATM   32  P   UNK N   1      34.024  16.152   9.632  0.00  0.00     0.409 P 
HETATM   33  O   UNK N   1      32.658  15.445   9.409  0.00  0.00    -0.631 OA
BRANCH  32  34
HETATM   34  O   UNK N   1      33.804  16.425   7.925  0.00  0.00    -0.159 OA
BRANCH  34  35
HETATM   35  S   UNK N   1      33.685  18.137   7.756  0.00  0.00     0.249 S 
HETATM   36  O   UNK N   1      35.003  18.857   8.075  0.00  0.00    -0.579 OA
HETATM   37  O   UNK N   1      34.609  17.644   6.632  0.00  0.00    -0.579 OA
BRANCH  35  38
HETATM   38  O   UNK N   1      34.229  17.637   9.307  0.00  0.00    -0.273 OA
HETATM   39  H   UNK N   1      34.973  18.003   9.811  0.00  0.00     0.234 HD
ENDBRANCH  35  38
ENDBRANCH  34  35
ENDBRANCH  32  34
BRANCH  32  40
HETATM   40  O   UNK N   1      35.243  15.318   8.719  0.00  0.00    -0.306 OA
HETATM   41  H   UNK N   1      35.268  15.229   7.754  0.00  0.00     0.222 HD
ENDBRANCH  32  40
ENDBRANCH  31  32
ENDBRANCH  30  31
ENDBRANCH   5  30
TORSDOF 14
ENDMDL
MODEL 9
REMARK VINA RESULT:      -5.8      4.037      7.371
REMARK  14 active torsions:
REMARK  status: ('A' for Active; 'I' for Inactive)
REMARK    1  A    between atoms: C_2  and  N_1 
REMARK    2  A    between atoms: C_5  and  O_13 
REMARK    3  A    between atoms: C_12  and  O_17 
REMARK    4  A    between atoms: C_14  and  C_18 
REMARK    5  A    between atoms: C_15  and  N_21 
REMARK    6  A    between atoms: O_17  and  P_22 
REMARK    7  A    between atoms: C_18  and  O_23 
REMARK    8  A    between atoms: P_22  and  O_24 
REMARK    9  A    between atoms: P_22  and  O_25 
REMARK   10  A    between atoms: O_23  and  P_27 
REMARK   11  A    between atoms: P_27  and  O_28 
REMARK   12  A    between atoms: P_27  and  O_29 
REMARK   13  A    between atoms: O_28  and  S_31 
REMARK   14  A    between atoms: S_31  and  O_32 
ROOT
HETATM    1  C   UNK N   1      20.986  15.649   7.279  0.00  0.00     0.262 C 
HETATM    2  C   UNK N   1      20.598  14.227   7.701  0.00  0.00     0.199 C 
HETATM    3  O   UNK N   1      22.388  15.689   7.178  0.00  0.00    -0.353 OA
HETATM    4  C   UNK N   1      21.926  13.500   7.820  0.00  0.00     0.197 C 
HETATM    5  C   UNK N   1      22.707  14.365   6.869  0.00  0.00     0.180 C 
ENDROOT
BRANCH   1   6
HETATM    6  N   UNK N   1      20.370  16.007   5.991  0.00  0.00    -0.297 N 
HETATM    7  C   UNK N   1      20.674  17.016   5.154  0.00  0.00     0.142 A 
HETATM    8  C   UNK N   1      19.823  17.006   4.112  0.00  0.00     0.122 A 
HETATM    9  N   UNK N   1      21.659  17.941   5.273  0.00  0.00    -0.336 N 
HETATM   10  C   UNK N   1      19.931  17.966   3.115  0.00  0.00     0.131 A 
HETATM   11  N   UNK N   1      18.949  15.990   4.247  0.00  0.00    -0.346 N 
HETATM   12  N   UNK N   1      20.925  18.897   3.225  0.00  0.00    -0.337 N 
HETATM   13  C   UNK N   1      21.787  18.885   4.293  0.00  0.00     0.183 A 
ATOM     14  HN  UNK N   1      21.028  19.612   2.503  1.00  0.00     0.168 HD
HETATM   15  C   UNK N   1      19.308  15.387   5.417  0.00  0.00     0.188 A 
ATOM     16  HN  UNK N   1      18.191  15.731   3.616  1.00  0.00     0.167 HD
ATOM     17  HN  UNK N   1      22.290  17.931   6.073  1.00  0.00     0.168 HD
BRANCH  10  18
HETATM   18  N   UNK N   1      19.043  17.992   2.021  0.00  0.00    -0.383 N 
HETATM   19  H   UNK N   1      18.708  18.841   1.653  0.00  0.00     0.157 HD
HETATM   20  H   UNK N   1      18.751  17.143   1.618  0.00  0.00     0.157 HD
ENDBRANCH  10  18
ENDBRANCH   1   6
BRANCH   2  21
HETATM   21  O   UNK N   1      19.892  14.222   8.906  0.00  0.00    -0.388 OA
HETATM   22  H   UNK N   1      19.717  13.384   9.362  0.00  0.00     0.210 HD
ENDBRANCH   2  21
BRANCH   4  23
HETATM   23  O   UNK N   1      22.475  13.622   9.110  0.00  0.00    -0.286 OA
BRANCH  23  24
HETATM   24  P   UNK N   1      22.773  11.985   9.635  0.00  0.00     0.391 P 
HETATM   25  O   UNK N   1      24.112  12.657  10.044  0.00  0.00    -0.632 OA
BRANCH  24  26
HETATM   26  O   UNK N   1      22.916  11.556  11.310  0.00  0.00    -0.307 OA
HETATM   27  H   UNK N   1      22.595  12.118  12.033  0.00  0.00     0.222 HD
ENDBRANCH  24  26
BRANCH  24  28
HETATM   28  O   UNK N   1      21.503  12.693  10.581  0.00  0.00    -0.307 OA
HETATM   29  H   UNK N   1      21.611  13.049  11.476  0.00  0.00     0.222 HD
ENDBRANCH  24  28
ENDBRANCH  23  24
ENDBRANCH   4  23
BRANCH   5  30
HETATM   30  C   UNK N   1      24.196  14.128   6.827  0.00  0.00     0.215 C 
BRANCH  30  31
HETATM   31  O   UNK N   1      24.837  15.367   6.845  0.00  0.00    -0.294 OA
BRANCH  31  32
HETATM   32  P   UNK N   1      25.704  15.437   5.346  0.00  0.00     0.409 P 
HETATM   33  O   UNK N   1      26.880  15.409   6.360  0.00  0.00    -0.631 OA
BRANCH  32  34
HETATM   34  O   UNK N   1      26.564  16.878   4.873  0.00  0.00    -0.159 OA
BRANCH  34  35
HETATM   35  S   UNK N   1      25.382  18.133   4.893  0.00  0.00     0.249 S 
HETATM   36  O   UNK N   1      25.971  19.509   4.551  0.00  0.00    -0.579 OA
HETATM   37  O   UNK N   1      25.810  17.952   3.429  0.00  0.00    -0.579 OA
BRANCH  35  38
HETATM   38  O   UNK N   1      26.721  18.435   5.927  0.00  0.00    -0.273 OA
HETATM   39  H   UNK N   1      26.693  18.786   6.831  0.00  0.00     0.234 HD
ENDBRANCH  35  38
ENDBRANCH  34  35
ENDBRANCH  32  34
BRANCH  32  40
HETATM   40  O   UNK N   1      24.739  16.850   5.645  0.00  0.00    -0.306 OA
HETATM   41  H   UNK N   1      25.074  17.721   5.908  0.00  0.00     0.222 HD
ENDBRANCH  32  40
ENDBRANCH  31  32
ENDBRANCH  30  31
ENDBRANCH   5  30
TORSDOF 14
ENDMDL
