MODEL 1
REMARK VINA RESULT:      -5.4      0.000      0.000
REMARK  5 active torsions:
REMARK  status: ('A' for Active; 'I' for Inactive)
REMARK    1  A    between atoms: N_1  and  C_2 
REMARK    2  A    between atoms: C_2  and  C_3 
REMARK    3  A    between atoms: C_2  and  C_6 
REMARK    4  A    between atoms: C_3  and  O_5 
REMARK    5  A    between atoms: C_9  and  O_10 
ROOT
HETATM    1  C   UNK N   1      31.633  17.644   8.176  0.00  0.00    -0.026 A 
HETATM    2  C   UNK N   1      31.082  16.999   7.058  0.00  0.00     0.012 A 
HETATM    3  C   UNK N   1      29.719  17.140   6.765  0.00  0.00     0.037 A 
HETATM    4  C   UNK N   1      28.904  17.925   7.587  0.00  0.00     0.065 A 
HETATM    5  C   UNK N   1      29.447  18.567   8.699  0.00  0.00     0.037 A 
HETATM    6  C   UNK N   1      30.804  18.426   8.990  0.00  0.00     0.012 A 
ENDROOT
BRANCH   1   7
HETATM    7  C   UNK N   1      33.098  17.499   8.502  0.00  0.00     0.207 C 
BRANCH   7   8
HETATM    8  N   UNK N   1      33.477  16.613   9.592  0.00  0.00    -0.414 N 
HETATM    9  H   UNK N   1      34.089  15.818   9.414  0.00  0.00     0.151 HD
HETATM   10  H   UNK N   1      33.129  16.787  10.535  0.00  0.00     0.151 HD
ENDBRANCH   7   8
BRANCH   7  11
HETATM   11  C   UNK N   1      34.204  18.216   7.769  0.00  0.00     0.167 C 
HETATM   12  O   UNK N   1      34.417  17.967   6.593  0.00  0.00    -0.648 OA
BRANCH  11  13
HETATM   13  O   UNK N   1      34.964  19.132   8.399  0.00  0.00    -0.775 OA
HETATM   14  H   UNK N   1      35.163  19.944   7.977  0.00  0.00     0.167 HD
ENDBRANCH  11  13
ENDBRANCH   7  11
ENDBRANCH   1   7
BRANCH   4  15
HETATM   15  O   UNK N   1      27.598  18.063   7.309  0.00  0.00    -0.361 OA
HETATM   16  H   UNK N   1      26.960  17.951   7.986  0.00  0.00     0.217 HD
ENDBRANCH   4  15
TORSDOF 5
ENDMDL
MODEL 2
REMARK VINA RESULT:      -5.0      9.907     11.136
REMARK  5 active torsions:
REMARK  status: ('A' for Active; 'I' for Inactive)
REMARK    1  A    between atoms: N_1  and  C_2 
REMARK    2  A    between atoms: C_2  and  C_3 
REMARK    3  A    between atoms: C_2  and  C_6 
REMARK    4  A    between atoms: C_3  and  O_5 
REMARK    5  A    between atoms: C_9  and  O_10 
ROOT
HETATM    1  C   UNK N   1      35.674  12.517  16.373  0.00  0.00    -0.026 A 
HETATM    2  C   UNK N   1      35.609  11.402  17.224  0.00  0.00     0.012 A 
HETATM    3  C   UNK N   1      35.358  11.574  18.591  0.00  0.00     0.037 A 
HETATM    4  C   UNK N   1      35.172  12.859  19.113  0.00  0.00     0.065 A 
HETATM    5  C   UNK N   1      35.236  13.969  18.271  0.00  0.00     0.037 A 
HETATM    6  C   UNK N   1      35.485  13.797  16.910  0.00  0.00     0.012 A 
ENDROOT
BRANCH   1   7
HETATM    7  C   UNK N   1      35.942  12.345  14.900  0.00  0.00     0.207 C 
BRANCH   7   8
HETATM    8  N   UNK N   1      36.347  11.030  14.423  0.00  0.00    -0.414 N 
HETATM    9  H   UNK N   1      37.336  10.800  14.339  0.00  0.00     0.151 HD
HETATM   10  H   UNK N   1      35.640  10.339  14.172  0.00  0.00     0.151 HD
ENDBRANCH   7   8
BRANCH   7  11
HETATM   11  C   UNK N   1      35.820  13.449  13.880  0.00  0.00     0.167 C 
HETATM   12  O   UNK N   1      34.776  13.598  13.267  0.00  0.00    -0.648 OA
BRANCH  11  13
HETATM   13  O   UNK N   1      36.853  14.278  13.637  0.00  0.00    -0.775 OA
HETATM   14  H   UNK N   1      37.332  14.205  12.836  0.00  0.00     0.167 HD
ENDBRANCH  11  13
ENDBRANCH   7  11
ENDBRANCH   1   7
BRANCH   4  15
HETATM   15  O   UNK N   1      34.932  13.027  20.422  0.00  0.00    -0.361 OA
HETATM   16  H   UNK N   1      35.296  13.762  20.875  0.00  0.00     0.217 HD
ENDBRANCH   4  15
TORSDOF 5
ENDMDL
MODEL 3
REMARK VINA RESULT:      -5.0      9.947     11.213
REMARK  5 active torsions:
REMARK  status: ('A' for Active; 'I' for Inactive)
REMARK    1  A    between atoms: N_1  and  C_2 
REMARK    2  A    between atoms: C_2  and  C_3 
REMARK    3  A    between atoms: C_2  and  C_6 
REMARK    4  A    between atoms: C_3  and  O_5 
REMARK    5  A    between atoms: C_9  and  O_10 
ROOT
HETATM    1  C   UNK N   1      35.705  12.504  16.410  0.00  0.00    -0.026 A 
HETATM    2  C   UNK N   1      35.518  13.802  16.911  0.00  0.00     0.012 A 
HETATM    3  C   UNK N   1      35.243  13.999  18.270  0.00  0.00     0.037 A 
HETATM    4  C   UNK N   1      35.153  12.901  19.133  0.00  0.00     0.065 A 
HETATM    5  C   UNK N   1      35.338  11.610  18.639  0.00  0.00     0.037 A 
HETATM    6  C   UNK N   1      35.612  11.415  17.286  0.00  0.00     0.012 A 
ENDROOT
BRANCH   1   7
HETATM    7  C   UNK N   1      36.001  12.280  14.949  0.00  0.00     0.207 C 
BRANCH   7   8
HETATM    8  N   UNK N   1      36.477  10.967  14.537  0.00  0.00    -0.414 N 
HETATM    9  H   UNK N   1      35.989  10.456  13.802  0.00  0.00     0.151 HD
HETATM   10  H   UNK N   1      37.298  10.559  14.983  0.00  0.00     0.151 HD
ENDBRANCH   7   8
BRANCH   7  11
HETATM   11  C   UNK N   1      35.838  13.330  13.880  0.00  0.00     0.167 C 
HETATM   12  O   UNK N   1      34.746  13.510  13.365  0.00  0.00    -0.648 OA
BRANCH  11  13
HETATM   13  O   UNK N   1      36.886  14.076  13.483  0.00  0.00    -0.775 OA
HETATM   14  H   UNK N   1      37.207  14.761  14.035  0.00  0.00     0.167 HD
ENDBRANCH  11  13
ENDBRANCH   7  11
ENDBRANCH   1   7
BRANCH   4  15
HETATM   15  O   UNK N   1      34.890  13.086  20.435  0.00  0.00    -0.361 OA
HETATM   16  H   UNK N   1      34.981  12.375  21.038  0.00  0.00     0.217 HD
ENDBRANCH   4  15
TORSDOF 5
ENDMDL
MODEL 4
REMARK VINA RESULT:      -4.9      1.322      2.126
REMARK  5 active torsions:
REMARK  status: ('A' for Active; 'I' for Inactive)
REMARK    1  A    between atoms: N_1  and  C_2 
REMARK    2  A    between atoms: C_2  and  C_3 
REMARK    3  A    between atoms: C_2  and  C_6 
REMARK    4  A    between atoms: C_3  and  O_5 
REMARK    5  A    between atoms: C_9  and  O_10 
ROOT
HETATM    1  C   UNK N   1      31.222  17.314   7.637  0.00  0.00    -0.026 A 
HETATM    2  C   UNK N   1      31.163  18.116   8.788  0.00  0.00     0.012 A 
HETATM    3  C   UNK N   1      29.932  18.606   9.241  0.00  0.00     0.037 A 
HETATM    4  C   UNK N   1      28.757  18.296   8.548  0.00  0.00     0.065 A 
HETATM    5  C   UNK N   1      28.812  17.500   7.405  0.00  0.00     0.037 A 
HETATM    6  C   UNK N   1      30.038  17.012   6.954  0.00  0.00     0.012 A 
ENDROOT
BRANCH   1   7
HETATM    7  C   UNK N   1      32.542  16.781   7.140  0.00  0.00     0.207 C 
BRANCH   7   8
HETATM    8  N   UNK N   1      32.824  15.364   7.318  0.00  0.00    -0.414 N 
HETATM    9  H   UNK N   1      33.718  14.980   7.017  0.00  0.00     0.151 HD
HETATM   10  H   UNK N   1      32.126  14.755   7.746  0.00  0.00     0.151 HD
ENDBRANCH   7   8
BRANCH   7  11
HETATM   11  C   UNK N   1      33.596  17.622   6.465  0.00  0.00     0.167 C 
HETATM   12  O   UNK N   1      34.518  18.083   7.120  0.00  0.00    -0.648 OA
BRANCH  11  13
HETATM   13  O   UNK N   1      33.534  17.872   5.144  0.00  0.00    -0.775 OA
HETATM   14  H   UNK N   1      32.825  17.531   4.636  0.00  0.00     0.167 HD
ENDBRANCH  11  13
ENDBRANCH   7  11
ENDBRANCH   1   7
BRANCH   4  15
HETATM   15  O   UNK N   1      27.576  18.764   8.979  0.00  0.00    -0.361 OA
HETATM   16  H   UNK N   1      27.085  18.282   9.616  0.00  0.00     0.217 HD
ENDBRANCH   4  15
TORSDOF 5
ENDMDL
MODEL 5
REMARK VINA RESULT:      -4.9      2.498      3.339
REMARK  5 active torsions:
REMARK  status: ('A' for Active; 'I' for Inactive)
REMARK    1  A    between atoms: N_1  and  C_2 
REMARK    2  A    between atoms: C_2  and  C_3 
REMARK    3  A    between atoms: C_2  and  C_6 
REMARK    4  A    between atoms: C_3  and  O_5 
REMARK    5  A    between atoms: C_9  and  O_10 
ROOT
HETATM    1  C   UNK N   1      32.477  17.461   6.567  0.00  0.00    -0.026 A 
HETATM    2  C   UNK N   1      31.131  17.241   6.233  0.00  0.00     0.012 A 
HETATM    3  C   UNK N   1      30.752  17.114   4.890  0.00  0.00     0.037 A 
HETATM    4  C   UNK N   1      31.714  17.204   3.879  0.00  0.00     0.065 A 
HETATM    5  C   UNK N   1      33.051  17.422   4.207  0.00  0.00     0.037 A 
HETATM    6  C   UNK N   1      33.429  17.549   5.544  0.00  0.00     0.012 A 
ENDROOT
BRANCH   1   7
HETATM    7  C   UNK N   1      32.897  17.600   8.008  0.00  0.00     0.207 C 
BRANCH   7   8
HETATM    8  N   UNK N   1      31.872  17.506   9.037  0.00  0.00    -0.414 N 
HETATM    9  H   UNK N   1      31.091  16.860   8.922  0.00  0.00     0.151 HD
HETATM   10  H   UNK N   1      31.933  18.087   9.873  0.00  0.00     0.151 HD
ENDBRANCH   7   8
BRANCH   7  11
HETATM   11  C   UNK N   1      34.318  17.831   8.459  0.00  0.00     0.167 C 
HETATM   12  O   UNK N   1      34.952  16.919   8.964  0.00  0.00    -0.648 OA
BRANCH  11  13
HETATM   13  O   UNK N   1      34.898  19.037   8.310  0.00  0.00    -0.775 OA
HETATM   14  H   UNK N   1      35.832  19.106   8.279  0.00  0.00     0.167 HD
ENDBRANCH  11  13
ENDBRANCH   7  11
ENDBRANCH   1   7
BRANCH   4  15
HETATM   15  O   UNK N   1      31.353  17.082   2.592  0.00  0.00    -0.361 OA
HETATM   16  H   UNK N   1      30.677  16.481   2.350  0.00  0.00     0.217 HD
ENDBRANCH   4  15
TORSDOF 5
ENDMDL
MODEL 6
REMARK VINA RESULT:      -4.7      9.497     10.848
REMARK  5 active torsions:
REMARK  status: ('A' for Active; 'I' for Inactive)
REMARK    1  A    between atoms: N_1  and  C_2 
REMARK    2  A    between atoms: C_2  and  C_3 
REMARK    3  A    between atoms: C_2  and  C_6 
REMARK    4  A    between atoms: C_3  and  O_5 
REMARK    5  A    between atoms: C_9  and  O_10 
ROOT
HETATM    1  C   UNK N   1      36.220  12.902  15.713  0.00  0.00    -0.026 A 
HETATM    2  C   UNK N   1      35.469  13.220  16.855  0.00  0.00     0.012 A 
HETATM    3  C   UNK N   1      35.165  12.228  17.796  0.00  0.00     0.037 A 
HETATM    4  C   UNK N   1      35.609  10.916  17.599  0.00  0.00     0.065 A 
HETATM    5  C   UNK N   1      36.355  10.596  16.466  0.00  0.00     0.037 A 
HETATM    6  C   UNK N   1      36.658  11.584  15.529  0.00  0.00     0.012 A 
ENDROOT
BRANCH   1   7
HETATM    7  C   UNK N   1      36.554  13.961  14.693  0.00  0.00     0.207 C 
BRANCH   7   8
HETATM    8  N   UNK N   1      37.342  15.107  15.123  0.00  0.00    -0.414 N 
HETATM    9  H   UNK N   1      36.879  15.927  15.513  0.00  0.00     0.151 HD
HETATM   10  H   UNK N   1      38.358  15.090  15.034  0.00  0.00     0.151 HD
ENDBRANCH   7   8
BRANCH   7  11
HETATM   11  C   UNK N   1      36.124  13.913  13.249  0.00  0.00     0.167 C 
HETATM   12  O   UNK N   1      34.942  13.793  12.969  0.00  0.00    -0.648 OA
BRANCH  11  13
HETATM   13  O   UNK N   1      37.031  14.001  12.258  0.00  0.00    -0.775 OA
HETATM   14  H   UNK N   1      36.866  14.553  11.520  0.00  0.00     0.167 HD
ENDBRANCH  11  13
ENDBRANCH   7  11
ENDBRANCH   1   7
BRANCH   4  15
HETATM   15  O   UNK N   1      35.319   9.964  18.498  0.00  0.00    -0.361 OA
HETATM   16  H   UNK N   1      36.006   9.445  18.870  0.00  0.00     0.217 HD
ENDBRANCH   4  15
TORSDOF 5
ENDMDL
MODEL 7
REMARK VINA RESULT:      -4.7      6.584      8.350
REMARK  5 active torsions:
REMARK  status: ('A' for Active; 'I' for Inactive)
REMARK    1  A    between atoms: N_1  and  C_2 
REMARK    2  A    between atoms: C_2  and  C_3 
REMARK    3  A    between atoms: C_2  and  C_6 
REMARK    4  A    between atoms: C_3  and  O_5 
REMARK    5  A    between atoms: C_9  and  O_10 
ROOT
HETATM    1  C   UNK N   1      35.463  14.053  12.712  0.00  0.00    -0.026 A 
HETATM    2  C   UNK N   1      36.328  14.569  13.690  0.00  0.00     0.012 A 
HETATM    3  C   UNK N   1      36.711  13.776  14.779  0.00  0.00     0.037 A 
HETATM    4  C   UNK N   1      36.232  12.467  14.894  0.00  0.00     0.065 A 
HETATM    5  C   UNK N   1      35.373  11.950  13.925  0.00  0.00     0.037 A 
HETATM    6  C   UNK N   1      34.992  12.740  12.841  0.00  0.00     0.012 A 
ENDROOT
BRANCH   1   7
HETATM    7  C   UNK N   1      35.044  14.897  11.535  0.00  0.00     0.207 C 
BRANCH   7   8
HETATM    8  N   UNK N   1      33.819  14.541  10.834  0.00  0.00    -0.414 N 
HETATM    9  H   UNK N   1      33.727  13.623  10.400  0.00  0.00     0.151 HD
HETATM   10  H   UNK N   1      33.051  15.211  10.777  0.00  0.00     0.151 HD
ENDBRANCH   7   8
BRANCH   7  11
HETATM   11  C   UNK N   1      35.813  16.092  11.032  0.00  0.00     0.167 C 
HETATM   12  O   UNK N   1      35.234  17.147  10.828  0.00  0.00    -0.648 OA
BRANCH  11  13
HETATM   13  O   UNK N   1      37.138  16.011  10.802  0.00  0.00    -0.775 OA
HETATM   14  H   UNK N   1      37.453  15.590  10.028  0.00  0.00     0.167 HD
ENDBRANCH  11  13
ENDBRANCH   7  11
ENDBRANCH   1   7
BRANCH   4  15
HETATM   15  O   UNK N   1      36.597  11.704  15.937  0.00  0.00    -0.361 OA
HETATM   16  H   UNK N   1      37.431  11.835  16.344  0.00  0.00     0.217 HD
ENDBRANCH   4  15
TORSDOF 5
ENDMDL
MODEL 8
REMARK VINA RESULT:      -4.7      8.285      9.732
REMARK  5 active torsions:
REMARK  status: ('A' for Active; 'I' for Inactive)
REMARK    1  A    between atoms: N_1  and  C_2 
REMARK    2  A    between atoms: C_2  and  C_3 
REMARK    3  A    between atoms: C_2  and  C_6 
REMARK    4  A    between atoms: C_3  and  O_5 
REMARK    5  A    between atoms: C_9  and  O_10 
ROOT
HETATM    1  C   UNK N   1      36.105  13.724  14.866  0.00  0.00    -0.026 A 
HETATM    2  C   UNK N   1      35.070  13.000  15.478  0.00  0.00     0.012 A 
HETATM    3  C   UNK N   1      34.820  13.153  16.848  0.00  0.00     0.037 A 
HETATM    4  C   UNK N   1      35.602  14.027  17.609  0.00  0.00     0.065 A 
HETATM    5  C   UNK N   1      36.631  14.748  17.005  0.00  0.00     0.037 A 
HETATM    6  C   UNK N   1      36.880  14.596  15.641  0.00  0.00     0.012 A 
ENDROOT
BRANCH   1   7
HETATM    7  C   UNK N   1      36.383  13.569  13.392  0.00  0.00     0.207 C 
BRANCH   7   8
HETATM    8  N   UNK N   1      37.471  12.690  12.986  0.00  0.00    -0.414 N 
HETATM    9  H   UNK N   1      38.047  12.233  13.691  0.00  0.00     0.151 HD
HETATM   10  H   UNK N   1      37.656  12.533  11.995  0.00  0.00     0.151 HD
ENDBRANCH   7   8
BRANCH   7  11
HETATM   11  C   UNK N   1      35.606  14.266  12.304  0.00  0.00     0.167 C 
HETATM   12  O   UNK N   1      36.142  15.136  11.636  0.00  0.00    -0.648 OA
BRANCH  11  13
HETATM   13  O   UNK N   1      34.323  13.940  12.059  0.00  0.00    -0.775 OA
HETATM   14  H   UNK N   1      34.124  13.200  11.521  0.00  0.00     0.167 HD
ENDBRANCH  11  13
ENDBRANCH   7  11
ENDBRANCH   1   7
BRANCH   4  15
HETATM   15  O   UNK N   1      35.365  14.175  18.922  0.00  0.00    -0.361 OA
HETATM   16  H   UNK N   1      35.385  15.029  19.309  0.00  0.00     0.217 HD
ENDBRANCH   4  15
TORSDOF 5
ENDMDL
MODEL 9
REMARK VINA RESULT:      -4.7      3.630      4.678
REMARK  5 active torsions:
REMARK  status: ('A' for Active; 'I' for Inactive)
REMARK    1  A    between atoms: N_1  and  C_2 
REMARK    2  A    between atoms: C_2  and  C_3 
REMARK    3  A    between atoms: C_2  and  C_6 
REMARK    4  A    between atoms: C_3  and  O_5 
REMARK    5  A    between atoms: C_9  and  O_10 
ROOT
HETATM    1  C   UNK N   1      34.526  16.043   9.081  0.00  0.00    -0.026 A 
HETATM    2  C   UNK N   1      34.669  15.311   7.892  0.00  0.00     0.012 A 
HETATM    3  C   UNK N   1      34.470  15.934   6.654  0.00  0.00     0.037 A 
HETATM    4  C   UNK N   1      34.127  17.289   6.599  0.00  0.00     0.065 A 
HETATM    5  C   UNK N   1      33.984  18.020   7.778  0.00  0.00     0.037 A 
HETATM    6  C   UNK N   1      34.183  17.399   9.011  0.00  0.00     0.012 A 
ENDROOT
BRANCH   1   7
HETATM    7  C   UNK N   1      34.738  15.383  10.420  0.00  0.00     0.207 C 
BRANCH   7   8
HETATM    8  N   UNK N   1      33.578  14.839  11.111  0.00  0.00    -0.414 N 
HETATM    9  H   UNK N   1      33.647  14.574  12.093  0.00  0.00     0.151 HD
HETATM   10  H   UNK N   1      32.695  14.724  10.613  0.00  0.00     0.151 HD
ENDBRANCH   7   8
BRANCH   7  11
HETATM   11  C   UNK N   1      36.079  15.248  11.096  0.00  0.00     0.167 C 
HETATM   12  O   UNK N   1      36.278  14.329  11.875  0.00  0.00    -0.648 OA
BRANCH  11  13
HETATM   13  O   UNK N   1      37.065  16.131  10.850  0.00  0.00    -0.775 OA
HETATM   14  H   UNK N   1      37.034  16.665  10.082  0.00  0.00     0.167 HD
ENDBRANCH  11  13
ENDBRANCH   7  11
ENDBRANCH   1   7
BRANCH   4  15
HETATM   15  O   UNK N   1      33.936  17.890   5.414  0.00  0.00    -0.361 OA
HETATM   16  H   UNK N   1      34.459  17.647   4.676  0.00  0.00     0.217 HD
ENDBRANCH   4  15
TORSDOF 5
ENDMDL
