MODEL 1
REMARK VINA RESULT:      -6.9      0.000      0.000
REMARK  4 active torsions:
REMARK  status: ('A' for Active; 'I' for Inactive)
REMARK    1  A    between atoms: O_14  and  C_6 
REMARK    2  A    between atoms: C_8  and  C_7 
REMARK    3  A    between atoms: C_9  and  C_8 
REMARK    4  A    between atoms: P_15  and  O_14 
ROOT
HETATM    1  C   UNK N   1      33.485  16.211   9.052  0.00  0.00     0.165 C 
HETATM    2  C   UNK N   1      33.107  17.247   8.255  0.00  0.00     0.073 C 
ENDROOT
BRANCH   2   3
HETATM    3  C   UNK N   1      31.634  17.498   8.032  0.00  0.00    -0.017 A 
HETATM    4  C   UNK N   1      30.954  16.928   6.942  0.00  0.00     0.012 A 
HETATM    5  C   UNK N   1      29.586  17.150   6.753  0.00  0.00     0.001 A 
HETATM    6  C   UNK N   1      28.876  17.949   7.651  0.00  0.00     0.000 A 
HETATM    7  C   UNK N   1      29.534  18.526   8.736  0.00  0.00     0.001 A 
HETATM    8  C   UNK N   1      30.899  18.302   8.926  0.00  0.00     0.012 A 
ENDBRANCH   2   3
BRANCH   2   9
HETATM    9  C   UNK N   1      34.149  18.104   7.583  0.00  0.00     0.212 C 
HETATM   10  O   UNK N   1      34.457  17.909   6.417  0.00  0.00    -0.644 OA
HETATM   11  O   UNK N   1      34.766  19.096   8.251  0.00  0.00    -0.644 OA
ENDBRANCH   2   9
BRANCH   1  12
HETATM   12  O   UNK N   1      34.785  15.914   9.277  0.00  0.00    -0.283 OA
BRANCH  12  13
HETATM   13  P   UNK N   1      35.485  16.066  10.844  0.00  0.00     0.244 P 
HETATM   14  O   UNK N   1      35.920  17.547  10.666  0.00  0.00    -0.648 OA
HETATM   15  O   UNK N   1      36.864  15.511  10.400  0.00  0.00    -0.648 OA
HETATM   16  H   UNK N   1      35.973  15.615   9.635  0.00  0.00     0.164 HD
ENDBRANCH  12  13
ENDBRANCH   1  12
TORSDOF 4
ENDMDL
MODEL 2
REMARK VINA RESULT:      -6.7      0.170      1.257
REMARK  4 active torsions:
REMARK  status: ('A' for Active; 'I' for Inactive)
REMARK    1  A    between atoms: O_14  and  C_6 
REMARK    2  A    between atoms: C_8  and  C_7 
REMARK    3  A    between atoms: C_9  and  C_8 
REMARK    4  A    between atoms: P_15  and  O_14 
ROOT
HETATM    1  C   UNK N   1      33.371  16.207   9.002  0.00  0.00     0.165 C 
HETATM    2  C   UNK N   1      33.015  17.269   8.230  0.00  0.00     0.073 C 
ENDROOT
BRANCH   2   3
HETATM    3  C   UNK N   1      31.547  17.555   8.013  0.00  0.00    -0.017 A 
HETATM    4  C   UNK N   1      30.811  18.327   8.930  0.00  0.00     0.012 A 
HETATM    5  C   UNK N   1      29.458  18.603   8.712  0.00  0.00     0.001 A 
HETATM    6  C   UNK N   1      28.816  18.109   7.575  0.00  0.00     0.000 A 
HETATM    7  C   UNK N   1      29.528  17.338   6.657  0.00  0.00     0.001 A 
HETATM    8  C   UNK N   1      30.880  17.065   6.873  0.00  0.00     0.012 A 
ENDBRANCH   2   3
BRANCH   2   9
HETATM    9  C   UNK N   1      34.074  18.121   7.578  0.00  0.00     0.212 C 
HETATM   10  O   UNK N   1      34.379  17.947   6.408  0.00  0.00    -0.644 OA
HETATM   11  O   UNK N   1      34.710  19.085   8.270  0.00  0.00    -0.644 OA
ENDBRANCH   2   9
BRANCH   1  12
HETATM   12  O   UNK N   1      34.665  15.879   9.221  0.00  0.00    -0.283 OA
BRANCH  12  13
HETATM   13  P   UNK N   1      35.358  15.947  10.797  0.00  0.00     0.244 P 
HETATM   14  O   UNK N   1      36.004  17.348  10.613  0.00  0.00    -0.648 OA
HETATM   15  O   UNK N   1      36.649  15.193  10.379  0.00  0.00    -0.648 OA
HETATM   16  H   UNK N   1      35.792  15.417   9.600  0.00  0.00     0.164 HD
ENDBRANCH  12  13
ENDBRANCH   1  12
TORSDOF 4
ENDMDL
MODEL 3
REMARK VINA RESULT:      -6.2     12.216     13.796
REMARK  4 active torsions:
REMARK  status: ('A' for Active; 'I' for Inactive)
REMARK    1  A    between atoms: O_14  and  C_6 
REMARK    2  A    between atoms: C_8  and  C_7 
REMARK    3  A    between atoms: C_9  and  C_8 
REMARK    4  A    between atoms: P_15  and  O_14 
ROOT
HETATM    1  C   UNK N   1      20.582  13.881   7.152  0.00  0.00     0.165 C 
HETATM    2  C   UNK N   1      20.694  14.334   8.429  0.00  0.00     0.073 C 
ENDROOT
BRANCH   2   3
HETATM    3  C   UNK N   1      21.493  13.526   9.424  0.00  0.00    -0.017 A 
HETATM    4  C   UNK N   1      20.870  12.869  10.500  0.00  0.00     0.012 A 
HETATM    5  C   UNK N   1      21.614  12.107  11.406  0.00  0.00     0.001 A 
HETATM    6  C   UNK N   1      22.997  11.991  11.252  0.00  0.00     0.000 A 
HETATM    7  C   UNK N   1      23.635  12.638  10.194  0.00  0.00     0.001 A 
HETATM    8  C   UNK N   1      22.890  13.397   9.288  0.00  0.00     0.012 A 
ENDBRANCH   2   3
BRANCH   2   9
HETATM    9  C   UNK N   1      20.000  15.606   8.845  0.00  0.00     0.212 C 
HETATM   10  O   UNK N   1      18.848  15.582   9.251  0.00  0.00    -0.644 OA
HETATM   11  O   UNK N   1      20.630  16.794   8.773  0.00  0.00    -0.644 OA
ENDBRANCH   2   9
BRANCH   1  12
HETATM   12  O   UNK N   1      19.864  14.541   6.214  0.00  0.00    -0.283 OA
BRANCH  12  13
HETATM   13  P   UNK N   1      19.513  13.833   4.684  0.00  0.00     0.244 P 
HETATM   14  O   UNK N   1      19.540  15.170   3.894  0.00  0.00    -0.648 OA
HETATM   15  O   UNK N   1      17.977  13.878   4.893  0.00  0.00    -0.648 OA
HETATM   16  H   UNK N   1      18.718  14.278   5.719  0.00  0.00     0.164 HD
ENDBRANCH  12  13
ENDBRANCH   1  12
TORSDOF 4
ENDMDL
MODEL 4
REMARK VINA RESULT:      -6.1      3.732      4.838
REMARK  4 active torsions:
REMARK  status: ('A' for Active; 'I' for Inactive)
REMARK    1  A    between atoms: O_14  and  C_6 
REMARK    2  A    between atoms: C_8  and  C_7 
REMARK    3  A    between atoms: C_9  and  C_8 
REMARK    4  A    between atoms: P_15  and  O_14 
ROOT
HETATM    1  C   UNK N   1      29.851  17.281   6.951  0.00  0.00     0.165 C 
HETATM    2  C   UNK N   1      28.920  18.128   7.467  0.00  0.00     0.073 C 
ENDROOT
BRANCH   2   3
HETATM    3  C   UNK N   1      28.181  19.057   6.534  0.00  0.00    -0.017 A 
HETATM    4  C   UNK N   1      28.200  18.860   5.142  0.00  0.00     0.012 A 
HETATM    5  C   UNK N   1      27.497  19.713   4.285  0.00  0.00     0.001 A 
HETATM    6  C   UNK N   1      26.765  20.781   4.807  0.00  0.00     0.000 A 
HETATM    7  C   UNK N   1      26.736  20.996   6.185  0.00  0.00     0.001 A 
HETATM    8  C   UNK N   1      27.436  20.141   7.040  0.00  0.00     0.012 A 
ENDBRANCH   2   3
BRANCH   2   9
HETATM    9  C   UNK N   1      28.661  18.156   8.952  0.00  0.00     0.212 C 
HETATM   10  O   UNK N   1      27.678  17.604   9.422  0.00  0.00    -0.644 OA
HETATM   11  O   UNK N   1      29.501  18.792   9.790  0.00  0.00    -0.644 OA
ENDBRANCH   2   9
BRANCH   1  12
HETATM   12  O   UNK N   1      30.567  16.438   7.730  0.00  0.00    -0.283 OA
BRANCH  12  13
HETATM   13  P   UNK N   1      32.277  16.583   7.881  0.00  0.00     0.244 P 
HETATM   14  O   UNK N   1      32.463  15.278   8.703  0.00  0.00    -0.648 OA
HETATM   15  O   UNK N   1      32.198  17.479   9.145  0.00  0.00    -0.648 OA
HETATM   16  H   UNK N   1      31.221  17.081   8.616  0.00  0.00     0.164 HD
ENDBRANCH  12  13
ENDBRANCH   1  12
TORSDOF 4
ENDMDL
MODEL 5
REMARK VINA RESULT:      -6.0      7.978     10.185
REMARK  4 active torsions:
REMARK  status: ('A' for Active; 'I' for Inactive)
REMARK    1  A    between atoms: O_14  and  C_6 
REMARK    2  A    between atoms: C_8  and  C_7 
REMARK    3  A    between atoms: C_9  and  C_8 
REMARK    4  A    between atoms: P_15  and  O_14 
ROOT
HETATM    1  C   UNK N   1      35.226  13.247  14.758  0.00  0.00     0.165 C 
HETATM    2  C   UNK N   1      34.878  12.135  15.460  0.00  0.00     0.073 C 
ENDROOT
BRANCH   2   3
HETATM    3  C   UNK N   1      35.091  12.118  16.955  0.00  0.00    -0.017 A 
HETATM    4  C   UNK N   1      35.007  13.297  17.717  0.00  0.00     0.012 A 
HETATM    5  C   UNK N   1      35.186  13.271  19.104  0.00  0.00     0.001 A 
HETATM    6  C   UNK N   1      35.456  12.064  19.752  0.00  0.00     0.000 A 
HETATM    7  C   UNK N   1      35.547  10.885  19.013  0.00  0.00     0.001 A 
HETATM    8  C   UNK N   1      35.365  10.912  17.629  0.00  0.00     0.012 A 
ENDBRANCH   2   3
BRANCH   2   9
HETATM    9  C   UNK N   1      34.321  10.930  14.744  0.00  0.00     0.212 C 
HETATM   10  O   UNK N   1      33.114  10.768  14.646  0.00  0.00    -0.644 OA
HETATM   11  O   UNK N   1      35.138  10.006  14.204  0.00  0.00    -0.644 OA
ENDBRANCH   2   9
BRANCH   1  12
HETATM   12  O   UNK N   1      35.084  13.323  13.414  0.00  0.00    -0.283 OA
BRANCH  12  13
HETATM   13  P   UNK N   1      35.920  14.510  12.486  0.00  0.00     0.244 P 
HETATM   14  O   UNK N   1      35.287  14.105  11.127  0.00  0.00    -0.648 OA
HETATM   15  O   UNK N   1      37.173  13.619  12.276  0.00  0.00    -0.648 OA
HETATM   16  H   UNK N   1      36.245  13.233  12.894  0.00  0.00     0.164 HD
ENDBRANCH  12  13
ENDBRANCH   1  12
TORSDOF 4
ENDMDL
MODEL 6
REMARK VINA RESULT:      -6.0      2.618      3.587
REMARK  4 active torsions:
REMARK  status: ('A' for Active; 'I' for Inactive)
REMARK    1  A    between atoms: O_14  and  C_6 
REMARK    2  A    between atoms: C_8  and  C_7 
REMARK    3  A    between atoms: C_9  and  C_8 
REMARK    4  A    between atoms: P_15  and  O_14 
ROOT
HETATM    1  C   UNK N   1      34.595  15.684   8.242  0.00  0.00     0.165 C 
HETATM    2  C   UNK N   1      34.207  16.723   7.454  0.00  0.00     0.073 C 
ENDROOT
BRANCH   2   3
HETATM    3  C   UNK N   1      33.876  16.456   6.004  0.00  0.00    -0.017 A 
HETATM    4  C   UNK N   1      33.197  17.408   5.224  0.00  0.00     0.012 A 
HETATM    5  C   UNK N   1      32.911  17.161   3.877  0.00  0.00     0.001 A 
HETATM    6  C   UNK N   1      33.298  15.956   3.289  0.00  0.00     0.000 A 
HETATM    7  C   UNK N   1      33.969  14.997   4.047  0.00  0.00     0.001 A 
HETATM    8  C   UNK N   1      34.256  15.245   5.391  0.00  0.00     0.012 A 
ENDBRANCH   2   3
BRANCH   2   9
HETATM    9  C   UNK N   1      34.142  18.119   8.018  0.00  0.00     0.212 C 
HETATM   10  O   UNK N   1      35.121  18.850   7.982  0.00  0.00    -0.644 OA
HETATM   11  O   UNK N   1      33.012  18.589   8.578  0.00  0.00    -0.644 OA
ENDBRANCH   2   9
BRANCH   1  12
HETATM   12  O   UNK N   1      34.927  15.854   9.543  0.00  0.00    -0.283 OA
BRANCH  12  13
HETATM   13  P   UNK N   1      36.137  14.886  10.297  0.00  0.00     0.244 P 
HETATM   14  O   UNK N   1      35.250  14.449  11.494  0.00  0.00    -0.648 OA
HETATM   15  O   UNK N   1      36.760  16.078  11.072  0.00  0.00    -0.648 OA
HETATM   16  H   UNK N   1      35.832  16.230  10.359  0.00  0.00     0.164 HD
ENDBRANCH  12  13
ENDBRANCH   1  12
TORSDOF 4
ENDMDL
MODEL 7
REMARK VINA RESULT:      -5.9      6.990      9.295
REMARK  4 active torsions:
REMARK  status: ('A' for Active; 'I' for Inactive)
REMARK    1  A    between atoms: O_14  and  C_6 
REMARK    2  A    between atoms: C_8  and  C_7 
REMARK    3  A    between atoms: C_9  and  C_8 
REMARK    4  A    between atoms: P_15  and  O_14 
ROOT
HETATM    1  C   UNK N   1      36.220  14.055  13.868  0.00  0.00     0.165 C 
HETATM    2  C   UNK N   1      36.316  12.831  14.454  0.00  0.00     0.073 C 
ENDROOT
BRANCH   2   3
HETATM    3  C   UNK N   1      35.916  12.681  15.903  0.00  0.00    -0.017 A 
HETATM    4  C   UNK N   1      35.872  11.418  16.520  0.00  0.00     0.012 A 
HETATM    5  C   UNK N   1      35.519  11.289  17.867  0.00  0.00     0.001 A 
HETATM    6  C   UNK N   1      35.202  12.421  18.619  0.00  0.00     0.000 A 
HETATM    7  C   UNK N   1      35.236  13.682  18.024  0.00  0.00     0.001 A 
HETATM    8  C   UNK N   1      35.592  13.810  16.680  0.00  0.00     0.012 A 
ENDBRANCH   2   3
BRANCH   2   9
HETATM    9  C   UNK N   1      36.846  11.656  13.672  0.00  0.00     0.212 C 
HETATM   10  O   UNK N   1      38.029  11.356  13.724  0.00  0.00    -0.644 OA
HETATM   11  O   UNK N   1      36.032  10.917  12.894  0.00  0.00    -0.644 OA
ENDBRANCH   2   9
BRANCH   1  12
HETATM   12  O   UNK N   1      36.582  14.267  12.582  0.00  0.00    -0.283 OA
BRANCH  12  13
HETATM   13  P   UNK N   1      35.692  15.331  11.559  0.00  0.00     0.244 P 
HETATM   14  O   UNK N   1      35.558  14.325  10.383  0.00  0.00    -0.648 OA
HETATM   15  O   UNK N   1      36.962  15.997  10.967  0.00  0.00    -0.648 OA
HETATM   16  H   UNK N   1      37.042  15.140  11.773  0.00  0.00     0.164 HD
ENDBRANCH  12  13
ENDBRANCH   1  12
TORSDOF 4
ENDMDL
MODEL 8
REMARK VINA RESULT:      -5.8      1.734      2.145
REMARK  4 active torsions:
REMARK  status: ('A' for Active; 'I' for Inactive)
REMARK    1  A    between atoms: O_14  and  C_6 
REMARK    2  A    between atoms: C_8  and  C_7 
REMARK    3  A    between atoms: C_9  and  C_8 
REMARK    4  A    between atoms: P_15  and  O_14 
ROOT
HETATM    1  C   UNK N   1      33.226  15.709   8.139  0.00  0.00     0.165 C 
HETATM    2  C   UNK N   1      32.866  16.983   7.827  0.00  0.00     0.073 C 
ENDROOT
BRANCH   2   3
HETATM    3  C   UNK N   1      31.408  17.370   7.903  0.00  0.00    -0.017 A 
HETATM    4  C   UNK N   1      30.471  16.866   6.983  0.00  0.00     0.012 A 
HETATM    5  C   UNK N   1      29.119  17.213   7.070  0.00  0.00     0.001 A 
HETATM    6  C   UNK N   1      28.681  18.073   8.079  0.00  0.00     0.000 A 
HETATM    7  C   UNK N   1      29.596  18.587   8.998  0.00  0.00     0.001 A 
HETATM    8  C   UNK N   1      30.945  18.237   8.912  0.00  0.00     0.012 A 
ENDBRANCH   2   3
BRANCH   2   9
HETATM    9  C   UNK N   1      33.908  17.978   7.383  0.00  0.00     0.212 C 
HETATM   10  O   UNK N   1      34.276  18.015   6.218  0.00  0.00    -0.644 OA
HETATM   11  O   UNK N   1      34.460  18.840   8.257  0.00  0.00    -0.644 OA
ENDBRANCH   2   9
BRANCH   1  12
HETATM   12  O   UNK N   1      34.510  15.287   8.072  0.00  0.00    -0.283 OA
BRANCH  12  13
HETATM   13  P   UNK N   1      35.051  14.246   6.810  0.00  0.00     0.244 P 
HETATM   14  O   UNK N   1      36.379  13.845   7.511  0.00  0.00    -0.648 OA
HETATM   15  O   UNK N   1      35.715  15.392   6.002  0.00  0.00    -0.648 OA
HETATM   16  H   UNK N   1      35.166  15.604   7.024  0.00  0.00     0.164 HD
ENDBRANCH  12  13
ENDBRANCH   1  12
TORSDOF 4
ENDMDL
MODEL 9
REMARK VINA RESULT:      -5.8     11.714     13.532
REMARK  4 active torsions:
REMARK  status: ('A' for Active; 'I' for Inactive)
REMARK    1  A    between atoms: O_14  and  C_6 
REMARK    2  A    between atoms: C_8  and  C_7 
REMARK    3  A    between atoms: C_9  and  C_8 
REMARK    4  A    between atoms: P_15  and  O_14 
ROOT
HETATM    1  C   UNK N   1      43.898  23.754   2.383  0.00  0.00     0.165 C 
HETATM    2  C   UNK N   1      43.524  22.662   3.103  0.00  0.00     0.073 C 
ENDROOT
BRANCH   2   3
HETATM    3  C   UNK N   1      42.258  21.933   2.720  0.00  0.00    -0.017 A 
HETATM    4  C   UNK N   1      41.887  20.733   3.353  0.00  0.00     0.012 A 
HETATM    5  C   UNK N   1      40.703  20.073   3.007  0.00  0.00     0.001 A 
HETATM    6  C   UNK N   1      39.871  20.602   2.018  0.00  0.00     0.000 A 
HETATM    7  C   UNK N   1      40.223  21.789   1.376  0.00  0.00     0.001 A 
HETATM    8  C   UNK N   1      41.404  22.449   1.725  0.00  0.00     0.012 A 
ENDBRANCH   2   3
BRANCH   2   9
HETATM    9  C   UNK N   1      44.348  22.214   4.283  0.00  0.00     0.212 C 
HETATM   10  O   UNK N   1      45.302  21.466   4.128  0.00  0.00    -0.644 OA
HETATM   11  O   UNK N   1      44.049  22.620   5.532  0.00  0.00    -0.644 OA
ENDBRANCH   2   9
BRANCH   1  12
HETATM   12  O   UNK N   1      45.007  24.468   2.683  0.00  0.00    -0.283 OA
BRANCH  12  13
HETATM   13  P   UNK N   1      45.671  25.608   1.576  0.00  0.00     0.244 P 
HETATM   14  O   UNK N   1      47.136  25.456   2.070  0.00  0.00    -0.648 OA
HETATM   15  O   UNK N   1      45.389  26.827   2.493  0.00  0.00    -0.648 OA
HETATM   16  H   UNK N   1      45.098  25.733   2.824  0.00  0.00     0.164 HD
ENDBRANCH  12  13
ENDBRANCH   1  12
TORSDOF 4
ENDMDL
