REMARK  1 active torsions:
REMARK  status: ('A' for Active; 'I' for Inactive)
REMARK    1  A    between atoms: C_9  and  C_7 
ROOT
HETATM    1  C   UNK N   1      -0.105   3.802  -0.000  0.00  0.00     0.015 A 
HETATM    2  C   UNK N   1      -2.525   3.685   0.000  0.00  0.00     0.015 A 
HETATM    3  C   UNK N   1      -0.175   5.197  -0.000  0.00  0.00     0.024 A 
HETATM    4  C   UNK N   1      -2.594   5.077   0.000  0.00  0.00     0.024 A 
HETATM    5  C   UNK N   1      -1.282   3.039  -0.000  0.00  0.00    -0.008 A 
HETATM    6  C   UNK N   1      -1.421   5.833   0.000  0.00  0.00     0.034 A 
HETATM    7 Cl   UNK N   1      -1.515   7.578   0.000  0.00  0.00    -0.084 Cl
ENDROOT
BRANCH   5   8
HETATM    8  C   UNK N   1      -1.228   1.575  -0.000  0.00  0.00     0.059 A 
HETATM    9  C   UNK N   1      -0.096   0.795   0.000  0.00  0.00     0.119 A 
HETATM   10  N   UNK N   1      -0.486  -0.492   0.000  0.00  0.00    -0.360 N 
HETATM   11  C   UNK N   1      -1.837  -0.471  -0.000  0.00  0.00     0.180 A 
ATOM     12  HN  UNK N   1       0.115  -1.316   0.000  1.00  0.00     0.166 HD
HETATM   13  N   UNK N   1      -2.316   0.786  -0.000  0.00  0.00    -0.351 N 
HETATM   14  H   UNK N   1      -3.260   1.067  -0.000  0.00  0.00     0.166 HD
ENDBRANCH   5   8
TORSDOF 1
