REMARK  14 active torsions:
REMARK  status: ('A' for Active; 'I' for Inactive)
REMARK    1  A    between atoms: C_2  and  N_1 
REMARK    2  A    between atoms: C_5  and  O_13 
REMARK    3  A    between atoms: C_12  and  O_17 
REMARK    4  A    between atoms: C_14  and  C_18 
REMARK    5  A    between atoms: C_15  and  N_21 
REMARK    6  A    between atoms: O_17  and  P_22 
REMARK    7  A    between atoms: C_18  and  O_23 
REMARK    8  A    between atoms: P_22  and  O_24 
REMARK    9  A    between atoms: P_22  and  O_25 
REMARK   10  A    between atoms: O_23  and  P_27 
REMARK   11  A    between atoms: P_27  and  O_28 
REMARK   12  A    between atoms: P_27  and  O_29 
REMARK   13  A    between atoms: O_28  and  S_31 
REMARK   14  A    between atoms: S_31  and  O_32 
ROOT
HETATM    1  C   UNK N   1       2.756  -0.282  -0.683  0.00  0.00     0.262 C 
HETATM    2  C   UNK N   1       2.728  -1.177   0.561  0.00  0.00     0.199 C 
HETATM    3  O   UNK N   1       1.542  -0.475  -1.366  0.00  0.00    -0.353 OA
HETATM    4  C   UNK N   1       1.382  -1.875   0.486  0.00  0.00     0.197 C 
HETATM    5  C   UNK N   1       0.670  -0.836  -0.337  0.00  0.00     0.180 C 
ENDROOT
BRANCH   1   6
HETATM    6  N   UNK N   1       2.916   1.134  -0.315  0.00  0.00    -0.297 N 
HETATM    7  C   UNK N   1       1.975   2.084  -0.158  0.00  0.00     0.142 A 
HETATM    8  C   UNK N   1       2.567   3.257   0.131  0.00  0.00     0.122 A 
HETATM    9  N   UNK N   1       0.629   1.961  -0.264  0.00  0.00    -0.336 N 
HETATM   10  C   UNK N   1       1.797   4.396   0.327  0.00  0.00     0.131 A 
HETATM   11  N   UNK N   1       3.903   3.096   0.171  0.00  0.00    -0.346 N 
HETATM   12  N   UNK N   1       0.439   4.278   0.228  0.00  0.00    -0.337 N 
HETATM   13  C   UNK N   1      -0.144   3.070  -0.062  0.00  0.00     0.183 A 
ATOM     14  HN  UNK N   1      -0.149   5.100   0.371  1.00  0.00     0.168 HD
HETATM   15  C   UNK N   1       4.095   1.774  -0.109  0.00  0.00     0.188 A 
ATOM     16  HN  UNK N   1       4.612   3.803   0.366  1.00  0.00     0.167 HD
ATOM     17  HN  UNK N   1       0.203   1.062  -0.488  1.00  0.00     0.168 HD
BRANCH  10  18
HETATM   18  N   UNK N   1       2.389   5.642   0.613  0.00  0.00    -0.383 N 
HETATM   19  H   UNK N   1       3.349   5.719   0.813  0.00  0.00     0.157 HD
HETATM   20  H   UNK N   1       1.830   6.452   0.613  0.00  0.00     0.157 HD
ENDBRANCH  10  18
ENDBRANCH   1   6
BRANCH   2  21
HETATM   21  O   UNK N   1       3.787  -2.088   0.564  0.00  0.00    -0.388 OA
HETATM   22  H   UNK N   1       3.607  -3.041   0.566  0.00  0.00     0.210 HD
ENDBRANCH   2  21
BRANCH   4  23
HETATM   23  O   UNK N   1       1.454  -3.074  -0.247  0.00  0.00    -0.286 OA
BRANCH  23  24
HETATM   24  P   UNK N   1       0.602  -4.251   0.719  0.00  0.00     0.391 P 
HETATM   25  O   UNK N   1      -0.411  -4.056  -0.441  0.00  0.00    -0.632 OA
BRANCH  24  26
HETATM   26  O   UNK N   1       0.329  -5.877   0.178  0.00  0.00    -0.307 OA
HETATM   27  H   UNK N   1      -0.535  -6.200  -0.125  0.00  0.00     0.222 HD
ENDBRANCH  24  26
BRANCH  24  28
HETATM   28  O   UNK N   1       2.047  -4.951   0.061  0.00  0.00    -0.307 OA
HETATM   29  H   UNK N   1       2.112  -5.846  -0.307  0.00  0.00     0.222 HD
ENDBRANCH  24  28
ENDBRANCH  23  24
ENDBRANCH   4  23
BRANCH   5  30
HETATM   30  C   UNK N   1      -0.696  -1.218  -0.850  0.00  0.00     0.215 C 
BRANCH  30  31
HETATM   31  O   UNK N   1      -1.594  -1.168   0.216  0.00  0.00    -0.294 OA
BRANCH  31  32
HETATM   32  P   UNK N   1      -3.014  -0.419  -0.437  0.00  0.00     0.409 P 
HETATM   33  O   UNK N   1      -2.645   0.588   0.687  0.00  0.00    -0.631 OA
BRANCH  32  34
HETATM   34  O   UNK N   1      -4.507  -0.389   0.462  0.00  0.00    -0.159 OA
BRANCH  34  35
HETATM   35  S   UNK N   1      -5.721   0.007  -0.697  0.00  0.00     0.249 S 
HETATM   36  O   UNK N   1      -7.137  -0.012  -0.103  0.00  0.00    -0.579 OA
HETATM   37  O   UNK N   1      -5.671   1.169   0.307  0.00  0.00    -0.579 OA
BRANCH  35  38
HETATM   38  O   UNK N   1      -5.978  -1.506   0.076  0.00  0.00    -0.273 OA
HETATM   39  H   UNK N   1      -6.790  -1.808   0.512  0.00  0.00     0.234 HD
ENDBRANCH  35  38
ENDBRANCH  34  35
ENDBRANCH  32  34
BRANCH  32  40
HETATM   40  O   UNK N   1      -3.326  -1.970   0.279  0.00  0.00    -0.306 OA
HETATM   41  H   UNK N   1      -4.163  -2.252   0.679  0.00  0.00     0.222 HD
ENDBRANCH  32  40
ENDBRANCH  31  32
ENDBRANCH  30  31
ENDBRANCH   5  30
TORSDOF 14
