MODEL 1
REMARK VINA RESULT:      -5.6      0.000      0.000
REMARK  14 active torsions:
REMARK  status: ('A' for Active; 'I' for Inactive)
REMARK    1  A    between atoms: C_4  and  C_3 
REMARK    2  A    between atoms: C_5  and  C_4 
REMARK    3  A    between atoms: C_12  and  C_5 
REMARK    4  A    between atoms: C_11  and  C_7 
REMARK    5  A    between atoms: N_17  and  C_7 
REMARK    6  A    between atoms: C_10  and  C_8 
REMARK    7  A    between atoms: O_24  and  C_8 
REMARK    8  A    between atoms: C_14  and  C_12 
REMARK    9  A    between atoms: C_12  and  N_17 
REMARK   10  A    between atoms: O_18  and  C_13 
REMARK   11  A    between atoms: O_20  and  C_14 
REMARK   12  A    between atoms: P_25  and  O_21 
REMARK   13  A    between atoms: P_25  and  O_22 
REMARK   14  A    between atoms: P_25  and  O_24 
ROOT
HETATM    1  C   UNK N   1      27.581  19.598   7.257  0.00  0.00     0.071 C 
HETATM    2  C   UNK N   1      29.405  17.031   5.253  0.00  0.00     0.098 A 
HETATM    3  C   UNK N   1      28.562  18.535   6.890  0.00  0.00     0.039 A 
HETATM    4  C   UNK N   1      30.375  16.558   6.145  0.00  0.00    -0.008 A 
HETATM    5  C   UNK N   1      30.432  17.098   7.440  0.00  0.00     0.004 A 
HETATM    6  C   UNK N   1      29.514  18.093   7.819  0.00  0.00     0.096 A 
HETATM    7  N   UNK N   1      28.531  18.002   5.640  0.00  0.00    -0.367 N 
ATOM      8  HN  UNK N   1      27.835  18.337   4.974  1.00  0.00     0.165 HD
ENDROOT
BRANCH   5   9
HETATM    9  C   UNK N   1      31.486  16.629   8.397  0.00  0.00     0.157 C 
BRANCH   9  10
HETATM   10  N   UNK N   1      32.273  17.739   8.922  0.00  0.00    -0.404 N 
HETATM   11  H   UNK N   1      31.904  18.641   9.226  0.00  0.00     0.154 HD
BRANCH  10  12
HETATM   12  C   UNK N   1      33.685  17.342   8.938  0.00  0.00     0.175 C 
BRANCH  12  13
HETATM   13  C   UNK N   1      33.781  15.882   8.500  0.00  0.00     0.035 C 
BRANCH  13  14
HETATM   14  C   UNK N   1      34.807  15.119   9.322  0.00  0.00     0.002 C 
BRANCH  14  15
HETATM   15  C   UNK N   1      34.418  15.132  10.783  0.00  0.00    -0.004 C 
HETATM   16  C   UNK N   1      35.605  15.580  11.610  0.00  0.00     0.005 C 
ENDBRANCH  14  15
ENDBRANCH  13  14
ENDBRANCH  12  13
BRANCH  12  17
HETATM   17  C   UNK N   1      34.514  18.238   8.039  0.00  0.00     0.163 C 
HETATM   18  O   UNK N   1      35.226  19.111   8.513  0.00  0.00    -0.648 OA
BRANCH  17  19
HETATM   19  O   UNK N   1      34.485  18.063   6.704  0.00  0.00    -0.775 OA
HETATM   20  H   UNK N   1      33.826  17.539   6.291  0.00  0.00     0.167 HD
ENDBRANCH  17  19
ENDBRANCH  12  17
ENDBRANCH  10  12
ENDBRANCH   9  10
ENDBRANCH   5   9
BRANCH   4  21
HETATM   21  C   UNK N   1      31.358  15.494   5.735  0.00  0.00     0.221 C 
BRANCH  21  22
HETATM   22  O   UNK N   1      31.520  15.404   4.348  0.00  0.00    -0.292 OA
BRANCH  22  23
HETATM   23  P   UNK N   1      33.040  16.190   3.986  0.00  0.00     0.391 P 
HETATM   24  O   UNK N   1      32.905  17.723   4.210  0.00  0.00    -0.632 OA
BRANCH  23  25
HETATM   25  O   UNK N   1      34.299  15.654   5.054  0.00  0.00    -0.307 OA
HETATM   26  H   UNK N   1      35.267  15.603   5.099  0.00  0.00     0.222 HD
ENDBRANCH  23  25
BRANCH  23  27
HETATM   27  O   UNK N   1      33.503  15.950   2.331  0.00  0.00    -0.307 OA
HETATM   28  H   UNK N   1      34.285  15.880   1.761  0.00  0.00     0.222 HD
ENDBRANCH  23  27
ENDBRANCH  22  23
ENDBRANCH  21  22
ENDBRANCH   4  21
BRANCH   6  29
HETATM   29  O   UNK N   1      29.552  18.621   9.057  0.00  0.00    -0.358 OA
HETATM   30  H   UNK N   1      29.746  19.528   9.189  0.00  0.00     0.217 HD
ENDBRANCH   6  29
TORSDOF 14
ENDMDL
MODEL 2
REMARK VINA RESULT:      -5.5     13.186     15.363
REMARK  14 active torsions:
REMARK  status: ('A' for Active; 'I' for Inactive)
REMARK    1  A    between atoms: C_4  and  C_3 
REMARK    2  A    between atoms: C_5  and  C_4 
REMARK    3  A    between atoms: C_12  and  C_5 
REMARK    4  A    between atoms: C_11  and  C_7 
REMARK    5  A    between atoms: N_17  and  C_7 
REMARK    6  A    between atoms: C_10  and  C_8 
REMARK    7  A    between atoms: O_24  and  C_8 
REMARK    8  A    between atoms: C_14  and  C_12 
REMARK    9  A    between atoms: C_12  and  N_17 
REMARK   10  A    between atoms: O_18  and  C_13 
REMARK   11  A    between atoms: O_20  and  C_14 
REMARK   12  A    between atoms: P_25  and  O_21 
REMARK   13  A    between atoms: P_25  and  O_22 
REMARK   14  A    between atoms: P_25  and  O_24 
ROOT
HETATM    1  C   UNK N   1      27.541  28.734  -6.267  0.00  0.00     0.071 C 
HETATM    2  C   UNK N   1      25.963  25.438  -7.028  0.00  0.00     0.098 A 
HETATM    3  C   UNK N   1      27.144  27.301  -6.141  0.00  0.00     0.039 A 
HETATM    4  C   UNK N   1      26.380  24.629  -5.964  0.00  0.00    -0.008 A 
HETATM    5  C   UNK N   1      27.203  25.183  -4.969  0.00  0.00     0.004 A 
HETATM    6  C   UNK N   1      27.585  26.532  -5.054  0.00  0.00     0.096 A 
HETATM    7  N   UNK N   1      26.353  26.741  -7.095  0.00  0.00    -0.367 N 
ATOM      8  HN  UNK N   1      26.043  27.312  -7.881  1.00  0.00     0.165 HD
ENDROOT
BRANCH   5   9
HETATM    9  C   UNK N   1      27.687  24.323  -3.841  0.00  0.00     0.157 C 
BRANCH   9  10
HETATM   10  N   UNK N   1      29.143  24.339  -3.735  0.00  0.00    -0.404 N 
HETATM   11  H   UNK N   1      29.731  25.173  -3.720  0.00  0.00     0.154 HD
BRANCH  10  12
HETATM   12  C   UNK N   1      29.619  22.954  -3.655  0.00  0.00     0.175 C 
BRANCH  12  13
HETATM   13  C   UNK N   1      30.406  22.640  -4.926  0.00  0.00     0.035 C 
BRANCH  13  14
HETATM   14  C   UNK N   1      29.683  21.619  -5.791  0.00  0.00     0.002 C 
BRANCH  14  15
HETATM   15  C   UNK N   1      30.579  20.429  -6.052  0.00  0.00    -0.004 C 
HETATM   16  C   UNK N   1      30.066  19.677  -7.261  0.00  0.00     0.005 C 
ENDBRANCH  14  15
ENDBRANCH  13  14
ENDBRANCH  12  13
BRANCH  12  17
HETATM   17  C   UNK N   1      30.469  22.739  -2.419  0.00  0.00     0.163 C 
HETATM   18  O   UNK N   1      30.083  23.116  -1.323  0.00  0.00    -0.648 OA
BRANCH  17  19
HETATM   19  O   UNK N   1      31.657  22.112  -2.520  0.00  0.00    -0.775 OA
HETATM   20  H   UNK N   1      31.904  21.428  -1.928  0.00  0.00     0.167 HD
ENDBRANCH  17  19
ENDBRANCH  12  17
ENDBRANCH  10  12
ENDBRANCH   9  10
ENDBRANCH   5   9
BRANCH   4  21
HETATM   21  C   UNK N   1      25.970  23.183  -5.876  0.00  0.00     0.221 C 
BRANCH  21  22
HETATM   22  O   UNK N   1      26.404  22.425  -6.970  0.00  0.00    -0.292 OA
BRANCH  22  23
HETATM   23  P   UNK N   1      24.957  21.815  -7.740  0.00  0.00     0.391 P 
HETATM   24  O   UNK N   1      24.257  22.960  -8.526  0.00  0.00    -0.632 OA
BRANCH  23  25
HETATM   25  O   UNK N   1      25.333  20.586  -8.906  0.00  0.00    -0.307 OA
HETATM   26  H   UNK N   1      26.100  20.145  -9.305  0.00  0.00     0.222 HD
ENDBRANCH  23  25
BRANCH  23  27
HETATM   27  O   UNK N   1      23.818  21.219  -6.575  0.00  0.00    -0.307 OA
HETATM   28  H   UNK N   1      23.621  21.234  -5.625  0.00  0.00     0.222 HD
ENDBRANCH  23  27
ENDBRANCH  22  23
ENDBRANCH  21  22
ENDBRANCH   4  21
BRANCH   6  29
HETATM   29  O   UNK N   1      28.372  27.081  -4.110  0.00  0.00    -0.358 OA
HETATM   30  H   UNK N   1      28.010  27.410  -3.311  0.00  0.00     0.217 HD
ENDBRANCH   6  29
TORSDOF 14
ENDMDL
MODEL 3
REMARK VINA RESULT:      -5.5     13.266     15.832
REMARK  14 active torsions:
REMARK  status: ('A' for Active; 'I' for Inactive)
REMARK    1  A    between atoms: C_4  and  C_3 
REMARK    2  A    between atoms: C_5  and  C_4 
REMARK    3  A    between atoms: C_12  and  C_5 
REMARK    4  A    between atoms: C_11  and  C_7 
REMARK    5  A    between atoms: N_17  and  C_7 
REMARK    6  A    between atoms: C_10  and  C_8 
REMARK    7  A    between atoms: O_24  and  C_8 
REMARK    8  A    between atoms: C_14  and  C_12 
REMARK    9  A    between atoms: C_12  and  N_17 
REMARK   10  A    between atoms: O_18  and  C_13 
REMARK   11  A    between atoms: O_20  and  C_14 
REMARK   12  A    between atoms: P_25  and  O_21 
REMARK   13  A    between atoms: P_25  and  O_22 
REMARK   14  A    between atoms: P_25  and  O_24 
ROOT
HETATM    1  C   UNK N   1      25.576  22.733  -7.543  0.00  0.00     0.071 C 
HETATM    2  C   UNK N   1      28.937  23.228  -5.996  0.00  0.00     0.098 A 
HETATM    3  C   UNK N   1      26.637  23.184  -6.595  0.00  0.00     0.039 A 
HETATM    4  C   UNK N   1      28.659  24.007  -4.867  0.00  0.00    -0.008 A 
HETATM    5  C   UNK N   1      27.330  24.380  -4.607  0.00  0.00     0.004 A 
HETATM    6  C   UNK N   1      26.308  23.961  -5.475  0.00  0.00     0.096 A 
HETATM    7  N   UNK N   1      27.931  22.841  -6.829  0.00  0.00    -0.367 N 
ATOM      8  HN  UNK N   1      28.155  22.278  -7.649  1.00  0.00     0.165 HD
ENDROOT
BRANCH   5   9
HETATM    9  C   UNK N   1      27.017  25.242  -3.421  0.00  0.00     0.157 C 
BRANCH   9  10
HETATM   10  N   UNK N   1      26.070  26.300  -3.757  0.00  0.00    -0.404 N 
HETATM   11  H   UNK N   1      25.056  26.246  -3.658  0.00  0.00     0.154 HD
BRANCH  10  12
HETATM   12  C   UNK N   1      26.821  27.455  -4.260  0.00  0.00     0.175 C 
BRANCH  12  13
HETATM   13  C   UNK N   1      26.341  27.762  -5.677  0.00  0.00     0.035 C 
BRANCH  13  14
HETATM   14  C   UNK N   1      27.489  28.200  -6.573  0.00  0.00     0.002 C 
BRANCH  14  15
HETATM   15  C   UNK N   1      27.838  27.099  -7.549  0.00  0.00    -0.004 C 
HETATM   16  C   UNK N   1      26.561  26.513  -8.114  0.00  0.00     0.005 C 
ENDBRANCH  14  15
ENDBRANCH  13  14
ENDBRANCH  12  13
BRANCH  12  17
HETATM   17  C   UNK N   1      26.648  28.657  -3.353  0.00  0.00     0.163 C 
HETATM   18  O   UNK N   1      27.236  28.721  -2.284  0.00  0.00    -0.648 OA
BRANCH  17  19
HETATM   19  O   UNK N   1      25.852  29.676  -3.730  0.00  0.00    -0.775 OA
HETATM   20  H   UNK N   1      25.703  29.874  -4.634  0.00  0.00     0.167 HD
ENDBRANCH  17  19
ENDBRANCH  12  17
ENDBRANCH  10  12
ENDBRANCH   9  10
ENDBRANCH   5   9
BRANCH   4  21
HETATM   21  C   UNK N   1      29.757  24.456  -3.940  0.00  0.00     0.221 C 
BRANCH  21  22
HETATM   22  O   UNK N   1      30.929  23.703  -4.075  0.00  0.00    -0.292 OA
BRANCH  22  23
HETATM   23  P   UNK N   1      30.848  22.457  -2.850  0.00  0.00     0.391 P 
HETATM   24  O   UNK N   1      32.285  21.982  -2.490  0.00  0.00    -0.632 OA
BRANCH  23  25
HETATM   25  O   UNK N   1      30.154  23.061  -1.379  0.00  0.00    -0.307 OA
HETATM   26  H   UNK N   1      30.423  23.366  -0.497  0.00  0.00     0.222 HD
ENDBRANCH  23  25
BRANCH  23  27
HETATM   27  O   UNK N   1      29.972  21.069  -3.410  0.00  0.00    -0.307 OA
HETATM   28  H   UNK N   1      29.138  20.814  -3.836  0.00  0.00     0.222 HD
ENDBRANCH  23  27
ENDBRANCH  22  23
ENDBRANCH  21  22
ENDBRANCH   4  21
BRANCH   6  29
HETATM   29  O   UNK N   1      25.028  24.307  -5.241  0.00  0.00    -0.358 OA
HETATM   30  H   UNK N   1      24.818  25.054  -4.716  0.00  0.00     0.217 HD
ENDBRANCH   6  29
TORSDOF 14
ENDMDL
MODEL 4
REMARK VINA RESULT:      -5.5     10.638     13.173
REMARK  14 active torsions:
REMARK  status: ('A' for Active; 'I' for Inactive)
REMARK    1  A    between atoms: C_4  and  C_3 
REMARK    2  A    between atoms: C_5  and  C_4 
REMARK    3  A    between atoms: C_12  and  C_5 
REMARK    4  A    between atoms: C_11  and  C_7 
REMARK    5  A    between atoms: N_17  and  C_7 
REMARK    6  A    between atoms: C_10  and  C_8 
REMARK    7  A    between atoms: O_24  and  C_8 
REMARK    8  A    between atoms: C_14  and  C_12 
REMARK    9  A    between atoms: C_12  and  N_17 
REMARK   10  A    between atoms: O_18  and  C_13 
REMARK   11  A    between atoms: O_20  and  C_14 
REMARK   12  A    between atoms: P_25  and  O_21 
REMARK   13  A    between atoms: P_25  and  O_22 
REMARK   14  A    between atoms: P_25  and  O_24 
ROOT
HETATM    1  C   UNK N   1      19.345  14.354   0.569  0.00  0.00     0.071 C 
HETATM    2  C   UNK N   1      19.247  14.682   4.285  0.00  0.00     0.098 A 
HETATM    3  C   UNK N   1      19.516  14.926   1.936  0.00  0.00     0.039 A 
HETATM    4  C   UNK N   1      19.822  15.938   4.512  0.00  0.00    -0.008 A 
HETATM    5  C   UNK N   1      20.254  16.698   3.412  0.00  0.00     0.004 A 
HETATM    6  C   UNK N   1      20.096  16.191   2.112  0.00  0.00     0.096 A 
HETATM    7  N   UNK N   1      19.112  14.207   3.016  0.00  0.00    -0.367 N 
ATOM      8  HN  UNK N   1      18.696  13.287   2.873  1.00  0.00     0.165 HD
ENDROOT
BRANCH   5   9
HETATM    9  C   UNK N   1      20.903  18.031   3.638  0.00  0.00     0.157 C 
BRANCH   9  10
HETATM   10  N   UNK N   1      20.111  19.120   3.075  0.00  0.00    -0.404 N 
HETATM   11  H   UNK N   1      19.095  19.132   2.981  0.00  0.00     0.154 HD
BRANCH  10  12
HETATM   12  C   UNK N   1      21.021  20.196   2.668  0.00  0.00     0.175 C 
BRANCH  12  13
HETATM   13  C   UNK N   1      22.457  19.713   2.865  0.00  0.00     0.035 C 
BRANCH  13  14
HETATM   14  C   UNK N   1      23.436  20.875   2.901  0.00  0.00     0.002 C 
BRANCH  14  15
HETATM   15  C   UNK N   1      24.844  20.378   2.659  0.00  0.00    -0.004 C 
HETATM   16  C   UNK N   1      25.565  20.267   3.986  0.00  0.00     0.005 C 
ENDBRANCH  14  15
ENDBRANCH  13  14
ENDBRANCH  12  13
BRANCH  12  17
HETATM   17  C   UNK N   1      20.775  20.605   1.230  0.00  0.00     0.163 C 
HETATM   18  O   UNK N   1      20.710  21.785   0.919  0.00  0.00    -0.648 OA
BRANCH  17  19
HETATM   19  O   UNK N   1      20.642  19.663   0.276  0.00  0.00    -0.775 OA
HETATM   20  H   UNK N   1      21.122  18.858   0.310  0.00  0.00     0.167 HD
ENDBRANCH  17  19
ENDBRANCH  12  17
ENDBRANCH  10  12
ENDBRANCH   9  10
ENDBRANCH   5   9
BRANCH   4  21
HETATM   21  C   UNK N   1      19.991  16.478   5.907  0.00  0.00     0.221 C 
BRANCH  21  22
HETATM   22  O   UNK N   1      19.000  16.034   6.789  0.00  0.00    -0.292 OA
BRANCH  22  23
HETATM   23  P   UNK N   1      19.567  16.435   8.395  0.00  0.00     0.391 P 
HETATM   24  O   UNK N   1      18.444  16.153   9.434  0.00  0.00    -0.632 OA
BRANCH  23  25
HETATM   25  O   UNK N   1      20.913  15.443   8.856  0.00  0.00    -0.307 OA
HETATM   26  H   UNK N   1      21.106  14.543   9.166  0.00  0.00     0.222 HD
ENDBRANCH  23  25
BRANCH  23  27
HETATM   27  O   UNK N   1      19.977  18.116   8.525  0.00  0.00    -0.307 OA
HETATM   28  H   UNK N   1      19.630  18.963   8.846  0.00  0.00     0.222 HD
ENDBRANCH  23  27
ENDBRANCH  22  23
ENDBRANCH  21  22
ENDBRANCH   4  21
BRANCH   6  29
HETATM   29  O   UNK N   1      20.502  16.905   1.046  0.00  0.00    -0.358 OA
HETATM   30  H   UNK N   1      20.579  16.510   0.200  0.00  0.00     0.217 HD
ENDBRANCH   6  29
TORSDOF 14
ENDMDL
MODEL 5
REMARK VINA RESULT:      -5.4      8.023     10.514
REMARK  14 active torsions:
REMARK  status: ('A' for Active; 'I' for Inactive)
REMARK    1  A    between atoms: C_4  and  C_3 
REMARK    2  A    between atoms: C_5  and  C_4 
REMARK    3  A    between atoms: C_12  and  C_5 
REMARK    4  A    between atoms: C_11  and  C_7 
REMARK    5  A    between atoms: N_17  and  C_7 
REMARK    6  A    between atoms: C_10  and  C_8 
REMARK    7  A    between atoms: O_24  and  C_8 
REMARK    8  A    between atoms: C_14  and  C_12 
REMARK    9  A    between atoms: C_12  and  N_17 
REMARK   10  A    between atoms: O_18  and  C_13 
REMARK   11  A    between atoms: O_20  and  C_14 
REMARK   12  A    between atoms: P_25  and  O_21 
REMARK   13  A    between atoms: P_25  and  O_22 
REMARK   14  A    between atoms: P_25  and  O_24 
ROOT
HETATM    1  C   UNK N   1      23.234  13.545   6.729  0.00  0.00     0.071 C 
HETATM    2  C   UNK N   1      20.761  15.728   4.984  0.00  0.00     0.098 A 
HETATM    3  C   UNK N   1      22.627  14.741   6.076  0.00  0.00     0.039 A 
HETATM    4  C   UNK N   1      21.440  16.946   4.858  0.00  0.00    -0.008 A 
HETATM    5  C   UNK N   1      22.748  17.052   5.361  0.00  0.00     0.004 A 
HETATM    6  C   UNK N   1      23.350  15.939   5.972  0.00  0.00     0.096 A 
HETATM    7  N   UNK N   1      21.361  14.665   5.587  0.00  0.00    -0.367 N 
ATOM      8  HN  UNK N   1      20.848  13.788   5.673  1.00  0.00     0.165 HD
ENDROOT
BRANCH   5   9
HETATM    9  C   UNK N   1      23.478  18.358   5.267  0.00  0.00     0.157 C 
BRANCH   9  10
HETATM   10  N   UNK N   1      24.346  18.408   4.094  0.00  0.00    -0.404 N 
HETATM   11  H   UNK N   1      24.513  17.641   3.443  0.00  0.00     0.154 HD
BRANCH  10  12
HETATM   12  C   UNK N   1      24.937  19.748   4.011  0.00  0.00     0.175 C 
BRANCH  12  13
HETATM   13  C   UNK N   1      26.448  19.598   3.842  0.00  0.00     0.035 C 
BRANCH  13  14
HETATM   14  C   UNK N   1      27.206  20.630   4.661  0.00  0.00     0.002 C 
BRANCH  14  15
HETATM   15  C   UNK N   1      27.134  20.283   6.131  0.00  0.00    -0.004 C 
HETATM   16  C   UNK N   1      26.516  21.441   6.885  0.00  0.00     0.005 C 
ENDBRANCH  14  15
ENDBRANCH  13  14
ENDBRANCH  12  13
BRANCH  12  17
HETATM   17  C   UNK N   1      24.336  20.540   2.867  0.00  0.00     0.163 C 
HETATM   18  O   UNK N   1      25.006  20.823   1.885  0.00  0.00    -0.648 OA
BRANCH  17  19
HETATM   19  O   UNK N   1      23.046  20.925   2.920  0.00  0.00    -0.775 OA
HETATM   20  H   UNK N   1      22.773  21.769   2.617  0.00  0.00     0.167 HD
ENDBRANCH  17  19
ENDBRANCH  12  17
ENDBRANCH  10  12
ENDBRANCH   9  10
ENDBRANCH   5   9
BRANCH   4  21
HETATM   21  C   UNK N   1      20.791  18.137   4.205  0.00  0.00     0.221 C 
BRANCH  21  22
HETATM   22  O   UNK N   1      21.401  18.500   2.999  0.00  0.00    -0.292 OA
BRANCH  22  23
HETATM   23  P   UNK N   1      20.175  18.323   1.765  0.00  0.00     0.391 P 
HETATM   24  O   UNK N   1      20.190  16.868   1.215  0.00  0.00    -0.632 OA
BRANCH  23  25
HETATM   25  O   UNK N   1      18.585  18.580   2.411  0.00  0.00    -0.307 OA
HETATM   26  H   UNK N   1      17.971  19.303   2.614  0.00  0.00     0.222 HD
ENDBRANCH  23  25
BRANCH  23  27
HETATM   27  O   UNK N   1      20.465  19.383   0.422  0.00  0.00    -0.307 OA
HETATM   28  H   UNK N   1      20.012  20.003  -0.171  0.00  0.00     0.222 HD
ENDBRANCH  23  27
ENDBRANCH  22  23
ENDBRANCH  21  22
ENDBRANCH   4  21
BRANCH   6  29
HETATM   29  O   UNK N   1      24.602  16.021   6.459  0.00  0.00    -0.358 OA
HETATM   30  H   UNK N   1      25.119  15.251   6.596  0.00  0.00     0.217 HD
ENDBRANCH   6  29
TORSDOF 14
ENDMDL
MODEL 6
REMARK VINA RESULT:      -5.3     12.964     15.243
REMARK  14 active torsions:
REMARK  status: ('A' for Active; 'I' for Inactive)
REMARK    1  A    between atoms: C_4  and  C_3 
REMARK    2  A    between atoms: C_5  and  C_4 
REMARK    3  A    between atoms: C_12  and  C_5 
REMARK    4  A    between atoms: C_11  and  C_7 
REMARK    5  A    between atoms: N_17  and  C_7 
REMARK    6  A    between atoms: C_10  and  C_8 
REMARK    7  A    between atoms: O_24  and  C_8 
REMARK    8  A    between atoms: C_14  and  C_12 
REMARK    9  A    between atoms: C_12  and  N_17 
REMARK   10  A    between atoms: O_18  and  C_13 
REMARK   11  A    between atoms: O_20  and  C_14 
REMARK   12  A    between atoms: P_25  and  O_21 
REMARK   13  A    between atoms: P_25  and  O_22 
REMARK   14  A    between atoms: P_25  and  O_24 
ROOT
HETATM    1  C   UNK N   1      25.797  23.867  -8.226  0.00  0.00     0.071 C 
HETATM    2  C   UNK N   1      25.484  26.408  -5.511  0.00  0.00     0.098 A 
HETATM    3  C   UNK N   1      25.979  24.555  -6.914  0.00  0.00     0.039 A 
HETATM    4  C   UNK N   1      26.272  25.878  -4.482  0.00  0.00    -0.008 A 
HETATM    5  C   UNK N   1      26.925  24.651  -4.687  0.00  0.00     0.004 A 
HETATM    6  C   UNK N   1      26.782  23.984  -5.916  0.00  0.00     0.096 A 
HETATM    7  N   UNK N   1      25.352  25.740  -6.690  0.00  0.00    -0.367 N 
ATOM      8  HN  UNK N   1      24.769  26.140  -7.425  1.00  0.00     0.165 HD
ENDROOT
BRANCH   5   9
HETATM    9  C   UNK N   1      27.746  24.051  -3.586  0.00  0.00     0.157 C 
BRANCH   9  10
HETATM   10  N   UNK N   1      29.172  24.096  -3.888  0.00  0.00    -0.404 N 
HETATM   11  H   UNK N   1      29.690  24.918  -4.202  0.00  0.00     0.154 HD
BRANCH  10  12
HETATM   12  C   UNK N   1      29.738  22.761  -3.666  0.00  0.00     0.175 C 
BRANCH  12  13
HETATM   13  C   UNK N   1      30.563  22.376  -4.893  0.00  0.00     0.035 C 
BRANCH  13  14
HETATM   14  C   UNK N   1      30.208  20.984  -5.390  0.00  0.00     0.002 C 
BRANCH  14  15
HETATM   15  C   UNK N   1      31.444  20.113  -5.424  0.00  0.00    -0.004 C 
HETATM   16  C   UNK N   1      32.130  20.277  -6.764  0.00  0.00     0.005 C 
ENDBRANCH  14  15
ENDBRANCH  13  14
ENDBRANCH  12  13
BRANCH  12  17
HETATM   17  C   UNK N   1      30.582  22.727  -2.408  0.00  0.00     0.163 C 
HETATM   18  O   UNK N   1      30.167  23.211  -1.365  0.00  0.00    -0.648 OA
BRANCH  17  19
HETATM   19  O   UNK N   1      31.797  22.145  -2.428  0.00  0.00    -0.775 OA
HETATM   20  H   UNK N   1      32.411  22.315  -3.116  0.00  0.00     0.167 HD
ENDBRANCH  17  19
ENDBRANCH  12  17
ENDBRANCH  10  12
ENDBRANCH   9  10
ENDBRANCH   5   9
BRANCH   4  21
HETATM   21  C   UNK N   1      26.422  26.594  -3.166  0.00  0.00     0.221 C 
BRANCH  21  22
HETATM   22  O   UNK N   1      25.667  27.769  -3.095  0.00  0.00    -0.292 OA
BRANCH  22  23
HETATM   23  P   UNK N   1      26.812  29.087  -3.207  0.00  0.00     0.391 P 
HETATM   24  O   UNK N   1      27.519  29.287  -1.835  0.00  0.00    -0.632 OA
BRANCH  23  25
HETATM   25  O   UNK N   1      28.067  28.738  -4.353  0.00  0.00    -0.307 OA
HETATM   26  H   UNK N   1      28.405  29.051  -5.207  0.00  0.00     0.222 HD
ENDBRANCH  23  25
BRANCH  23  27
HETATM   27  O   UNK N   1      26.026  30.582  -3.602  0.00  0.00    -0.307 OA
HETATM   28  H   UNK N   1      26.158  31.405  -4.099  0.00  0.00     0.222 HD
ENDBRANCH  23  27
ENDBRANCH  22  23
ENDBRANCH  21  22
ENDBRANCH   4  21
BRANCH   6  29
HETATM   29  O   UNK N   1      27.400  22.809  -6.131  0.00  0.00    -0.358 OA
HETATM   30  H   UNK N   1      26.969  21.996  -5.954  0.00  0.00     0.217 HD
ENDBRANCH   6  29
TORSDOF 14
ENDMDL
MODEL 7
REMARK VINA RESULT:      -5.3      4.970      8.063
REMARK  14 active torsions:
REMARK  status: ('A' for Active; 'I' for Inactive)
REMARK    1  A    between atoms: C_4  and  C_3 
REMARK    2  A    between atoms: C_5  and  C_4 
REMARK    3  A    between atoms: C_12  and  C_5 
REMARK    4  A    between atoms: C_11  and  C_7 
REMARK    5  A    between atoms: N_17  and  C_7 
REMARK    6  A    between atoms: C_10  and  C_8 
REMARK    7  A    between atoms: O_24  and  C_8 
REMARK    8  A    between atoms: C_14  and  C_12 
REMARK    9  A    between atoms: C_12  and  N_17 
REMARK   10  A    between atoms: O_18  and  C_13 
REMARK   11  A    between atoms: O_20  and  C_14 
REMARK   12  A    between atoms: P_25  and  O_21 
REMARK   13  A    between atoms: P_25  and  O_22 
REMARK   14  A    between atoms: P_25  and  O_24 
ROOT
HETATM    1  C   UNK N   1      39.471  12.135   9.279  0.00  0.00     0.071 C 
HETATM    2  C   UNK N   1      36.396  14.000   8.284  0.00  0.00     0.098 A 
HETATM    3  C   UNK N   1      38.210  12.926   9.381  0.00  0.00     0.039 A 
HETATM    4  C   UNK N   1      35.847  14.393   9.510  0.00  0.00    -0.008 A 
HETATM    5  C   UNK N   1      36.507  14.034  10.698  0.00  0.00     0.004 A 
HETATM    6  C   UNK N   1      37.702  13.298  10.634  0.00  0.00     0.096 A 
HETATM    7  N   UNK N   1      37.551  13.280   8.246  0.00  0.00    -0.367 N 
ATOM      8  HN  UNK N   1      37.931  12.999   7.343  1.00  0.00     0.165 HD
ENDROOT
BRANCH   5   9
HETATM    9  C   UNK N   1      35.916  14.416  12.022  0.00  0.00     0.157 C 
BRANCH   9  10
HETATM   10  N   UNK N   1      35.570  13.243  12.818  0.00  0.00    -0.404 N 
HETATM   11  H   UNK N   1      35.338  12.320  12.451  0.00  0.00     0.154 HD
BRANCH  10  12
HETATM   12  C   UNK N   1      35.612  13.615  14.236  0.00  0.00     0.175 C 
BRANCH  12  13
HETATM   13  C   UNK N   1      34.577  12.778  14.985  0.00  0.00     0.035 C 
BRANCH  13  14
HETATM   14  C   UNK N   1      34.167  11.551  14.185  0.00  0.00     0.002 C 
BRANCH  14  15
HETATM   15  C   UNK N   1      33.884  10.393  15.115  0.00  0.00    -0.004 C 
HETATM   16  C   UNK N   1      35.153  10.029  15.856  0.00  0.00     0.005 C 
ENDBRANCH  14  15
ENDBRANCH  13  14
ENDBRANCH  12  13
BRANCH  12  17
HETATM   17  C   UNK N   1      36.999  13.412  14.814  0.00  0.00     0.163 C 
HETATM   18  O   UNK N   1      37.597  12.360  14.644  0.00  0.00    -0.648 OA
BRANCH  17  19
HETATM   19  O   UNK N   1      37.591  14.404  15.507  0.00  0.00    -0.775 OA
HETATM   20  H   UNK N   1      37.328  14.616  16.382  0.00  0.00     0.167 HD
ENDBRANCH  17  19
ENDBRANCH  12  17
ENDBRANCH  10  12
ENDBRANCH   9  10
ENDBRANCH   5   9
BRANCH   4  21
HETATM   21  C   UNK N   1      34.565  15.179   9.575  0.00  0.00     0.221 C 
BRANCH  21  22
HETATM   22  O   UNK N   1      34.122  15.607   8.319  0.00  0.00    -0.292 OA
BRANCH  22  23
HETATM   23  P   UNK N   1      34.069  17.353   8.393  0.00  0.00     0.391 P 
HETATM   24  O   UNK N   1      35.118  17.868   9.419  0.00  0.00    -0.632 OA
BRANCH  23  25
HETATM   25  O   UNK N   1      34.494  18.064   6.867  0.00  0.00    -0.307 OA
HETATM   26  H   UNK N   1      34.578  18.935   6.447  0.00  0.00     0.222 HD
ENDBRANCH  23  25
BRANCH  23  27
HETATM   27  O   UNK N   1      32.515  17.922   8.916  0.00  0.00    -0.307 OA
HETATM   28  H   UNK N   1      31.839  17.776   9.597  0.00  0.00     0.222 HD
ENDBRANCH  23  27
ENDBRANCH  22  23
ENDBRANCH  21  22
ENDBRANCH   4  21
BRANCH   6  29
HETATM   29  O   UNK N   1      38.349  12.947  11.760  0.00  0.00    -0.358 OA
HETATM   30  H   UNK N   1      38.637  12.066  11.897  0.00  0.00     0.217 HD
ENDBRANCH   6  29
TORSDOF 14
ENDMDL
MODEL 8
REMARK VINA RESULT:      -5.2     11.355     12.720
REMARK  14 active torsions:
REMARK  status: ('A' for Active; 'I' for Inactive)
REMARK    1  A    between atoms: C_4  and  C_3 
REMARK    2  A    between atoms: C_5  and  C_4 
REMARK    3  A    between atoms: C_12  and  C_5 
REMARK    4  A    between atoms: C_11  and  C_7 
REMARK    5  A    between atoms: N_17  and  C_7 
REMARK    6  A    between atoms: C_10  and  C_8 
REMARK    7  A    between atoms: O_24  and  C_8 
REMARK    8  A    between atoms: C_14  and  C_12 
REMARK    9  A    between atoms: C_12  and  N_17 
REMARK   10  A    between atoms: O_18  and  C_13 
REMARK   11  A    between atoms: O_20  and  C_14 
REMARK   12  A    between atoms: P_25  and  O_21 
REMARK   13  A    between atoms: P_25  and  O_22 
REMARK   14  A    between atoms: P_25  and  O_24 
ROOT
HETATM    1  C   UNK N   1      19.014  12.718   2.136  0.00  0.00     0.071 C 
HETATM    2  C   UNK N   1      20.462  16.156   2.276  0.00  0.00     0.098 A 
HETATM    3  C   UNK N   1      19.408  14.060   2.658  0.00  0.00     0.039 A 
HETATM    4  C   UNK N   1      20.158  16.579   3.575  0.00  0.00    -0.008 A 
HETATM    5  C   UNK N   1      19.458  15.711   4.429  0.00  0.00     0.004 A 
HETATM    6  C   UNK N   1      19.083  14.437   3.969  0.00  0.00     0.096 A 
HETATM    7  N   UNK N   1      20.081  14.920   1.849  0.00  0.00    -0.367 N 
ATOM      8  HN  UNK N   1      20.307  14.632   0.897  1.00  0.00     0.165 HD
ENDROOT
BRANCH   5   9
HETATM    9  C   UNK N   1      19.094  16.160   5.812  0.00  0.00     0.157 C 
BRANCH   9  10
HETATM   10  N   UNK N   1      20.027  15.649   6.810  0.00  0.00    -0.404 N 
HETATM   11  H   UNK N   1      20.889  15.138   6.614  0.00  0.00     0.154 HD
BRANCH  10  12
HETATM   12  C   UNK N   1      19.519  15.991   8.142  0.00  0.00     0.175 C 
BRANCH  12  13
HETATM   13  C   UNK N   1      20.252  15.135   9.173  0.00  0.00     0.035 C 
BRANCH  13  14
HETATM   14  C   UNK N   1      21.348  14.302   8.528  0.00  0.00     0.002 C 
BRANCH  14  15
HETATM   15  C   UNK N   1      21.888  13.295   9.519  0.00  0.00    -0.004 C 
HETATM   16  C   UNK N   1      20.791  12.918  10.492  0.00  0.00     0.005 C 
ENDBRANCH  14  15
ENDBRANCH  13  14
ENDBRANCH  12  13
BRANCH  12  17
HETATM   17  C   UNK N   1      19.698  17.468   8.432  0.00  0.00     0.163 C 
HETATM   18  O   UNK N   1      20.662  18.077   7.993  0.00  0.00    -0.648 OA
BRANCH  17  19
HETATM   19  O   UNK N   1      18.780  18.126   9.166  0.00  0.00    -0.775 OA
HETATM   20  H   UNK N   1      17.862  17.971   9.058  0.00  0.00     0.167 HD
ENDBRANCH  17  19
ENDBRANCH  12  17
ENDBRANCH  10  12
ENDBRANCH   9  10
ENDBRANCH   5   9
BRANCH   4  21
HETATM   21  C   UNK N   1      20.560  17.945   4.064  0.00  0.00     0.221 C 
BRANCH  21  22
HETATM   22  O   UNK N   1      21.686  18.452   3.407  0.00  0.00    -0.292 OA
BRANCH  22  23
HETATM   23  P   UNK N   1      21.228  20.029   2.806  0.00  0.00     0.391 P 
HETATM   24  O   UNK N   1      20.219  20.693   3.787  0.00  0.00    -0.632 OA
BRANCH  23  25
HETATM   25  O   UNK N   1      22.595  21.095   2.722  0.00  0.00    -0.307 OA
HETATM   26  H   UNK N   1      23.334  21.316   2.133  0.00  0.00     0.222 HD
ENDBRANCH  23  25
BRANCH  23  27
HETATM   27  O   UNK N   1      20.446  19.920   1.261  0.00  0.00    -0.307 OA
HETATM   28  H   UNK N   1      20.221  19.284   0.564  0.00  0.00     0.222 HD
ENDBRANCH  23  27
ENDBRANCH  22  23
ENDBRANCH  21  22
ENDBRANCH   4  21
BRANCH   6  29
HETATM   29  O   UNK N   1      18.413  13.591   4.773  0.00  0.00    -0.358 OA
HETATM   30  H   UNK N   1      17.579  13.823   5.132  0.00  0.00     0.217 HD
ENDBRANCH   6  29
TORSDOF 14
ENDMDL
MODEL 9
REMARK VINA RESULT:      -5.2     13.101     15.142
REMARK  14 active torsions:
REMARK  status: ('A' for Active; 'I' for Inactive)
REMARK    1  A    between atoms: C_4  and  C_3 
REMARK    2  A    between atoms: C_5  and  C_4 
REMARK    3  A    between atoms: C_12  and  C_5 
REMARK    4  A    between atoms: C_11  and  C_7 
REMARK    5  A    between atoms: N_17  and  C_7 
REMARK    6  A    between atoms: C_10  and  C_8 
REMARK    7  A    between atoms: O_24  and  C_8 
REMARK    8  A    between atoms: C_14  and  C_12 
REMARK    9  A    between atoms: C_12  and  N_17 
REMARK   10  A    between atoms: O_18  and  C_13 
REMARK   11  A    between atoms: O_20  and  C_14 
REMARK   12  A    between atoms: P_25  and  O_21 
REMARK   13  A    between atoms: P_25  and  O_22 
REMARK   14  A    between atoms: P_25  and  O_24 
ROOT
HETATM    1  C   UNK N   1      25.552  27.890  -3.903  0.00  0.00     0.071 C 
HETATM    2  C   UNK N   1      25.928  26.216  -7.218  0.00  0.00     0.098 A 
HETATM    3  C   UNK N   1      25.935  26.884  -4.937  0.00  0.00     0.039 A 
HETATM    4  C   UNK N   1      26.634  25.048  -6.909  0.00  0.00    -0.008 A 
HETATM    5  C   UNK N   1      26.997  24.803  -5.574  0.00  0.00     0.004 A 
HETATM    6  C   UNK N   1      26.641  25.727  -4.577  0.00  0.00     0.096 A 
HETATM    7  N   UNK N   1      25.601  27.102  -6.236  0.00  0.00    -0.367 N 
ATOM      8  HN  UNK N   1      25.091  27.950  -6.482  1.00  0.00     0.165 HD
ENDROOT
BRANCH   5   9
HETATM    9  C   UNK N   1      27.783  23.574  -5.230  0.00  0.00     0.157 C 
BRANCH   9  10
HETATM   10  N   UNK N   1      29.030  23.904  -4.548  0.00  0.00    -0.404 N 
HETATM   11  H   UNK N   1      29.522  24.796  -4.602  0.00  0.00     0.154 HD
BRANCH  10  12
HETATM   12  C   UNK N   1      29.458  22.736  -3.770  0.00  0.00     0.175 C 
BRANCH  12  13
HETATM   13  C   UNK N   1      30.910  22.423  -4.129  0.00  0.00     0.035 C 
BRANCH  13  14
HETATM   14  C   UNK N   1      31.036  21.069  -4.809  0.00  0.00     0.002 C 
BRANCH  14  15
HETATM   15  C   UNK N   1      32.251  20.335  -4.286  0.00  0.00    -0.004 C 
HETATM   16  C   UNK N   1      32.932  21.187  -3.236  0.00  0.00     0.005 C 
ENDBRANCH  14  15
ENDBRANCH  13  14
ENDBRANCH  12  13
BRANCH  12  17
HETATM   17  C   UNK N   1      29.305  22.985  -2.282  0.00  0.00     0.163 C 
HETATM   18  O   UNK N   1      28.198  23.118  -1.783  0.00  0.00    -0.648 OA
BRANCH  17  19
HETATM   19  O   UNK N   1      30.396  23.044  -1.494  0.00  0.00    -0.775 OA
HETATM   20  H   UNK N   1      30.383  23.491  -0.671  0.00  0.00     0.167 HD
ENDBRANCH  17  19
ENDBRANCH  12  17
ENDBRANCH  10  12
ENDBRANCH   9  10
ENDBRANCH   5   9
BRANCH   4  21
HETATM   21  C   UNK N   1      27.016  24.062  -7.981  0.00  0.00     0.221 C 
BRANCH  21  22
HETATM   22  O   UNK N   1      25.994  23.841  -8.910  0.00  0.00    -0.292 OA
BRANCH  22  23
HETATM   23  P   UNK N   1      25.467  22.191  -8.668  0.00  0.00     0.391 P 
HETATM   24  O   UNK N   1      24.086  22.180  -7.952  0.00  0.00    -0.632 OA
BRANCH  23  25
HETATM   25  O   UNK N   1      25.234  21.373 -10.181  0.00  0.00    -0.307 OA
HETATM   26  H   UNK N   1      25.680  21.238 -11.032  0.00  0.00     0.222 HD
ENDBRANCH  23  25
BRANCH  23  27
HETATM   27  O   UNK N   1      26.574  21.309  -7.664  0.00  0.00    -0.307 OA
HETATM   28  H   UNK N   1      26.951  21.300  -6.770  0.00  0.00     0.222 HD
ENDBRANCH  23  27
ENDBRANCH  22  23
ENDBRANCH  21  22
ENDBRANCH   4  21
BRANCH   6  29
HETATM   29  O   UNK N   1      26.979  25.509  -3.292  0.00  0.00    -0.358 OA
HETATM   30  H   UNK N   1      26.390  25.723  -2.595  0.00  0.00     0.217 HD
ENDBRANCH   6  29
TORSDOF 14
ENDMDL
