REMARK  9 active torsions:
REMARK  status: ('A' for Active; 'I' for Inactive)
REMARK    1  A    between atoms: C_5  and  C_4 
REMARK    2  A    between atoms: N_16  and  C_4 
REMARK    3  A    between atoms: C_7  and  C_6 
REMARK    4  A    between atoms: C_9  and  C_6 
REMARK    5  A    between atoms: C_10  and  C_8 
REMARK    6  A    between atoms: C_8  and  O_18 
REMARK    7  A    between atoms: C_12  and  C_10 
REMARK    8  A    between atoms: C_10  and  N_13 
REMARK    9  A    between atoms: C_12  and  O_20 
ROOT
HETATM    1  C   UNK N   1       0.354  -0.924  -0.723  0.00  0.00     0.078 A 
HETATM    2  C   UNK N   1       1.641  -0.711  -0.126  0.00  0.00     0.270 A 
HETATM    3  C   UNK N   1       0.622   1.309  -0.432  0.00  0.00     0.242 A 
HETATM    4  N   UNK N   1      -0.212   0.208  -0.913  0.00  0.00    -0.338 N 
ATOM      5  HN  UNK N   1      -1.129   0.327  -1.343  1.00  0.00     0.164 HD
HETATM    6  N   UNK N   1       1.822   0.606   0.042  0.00  0.00    -0.289 N 
HETATM    7  O   UNK N   1       2.455  -1.569   0.182  0.00  0.00    -0.266 OA
ENDROOT
BRANCH   3   8
HETATM    8  C   UNK N   1      -0.110   2.082   0.707  0.00  0.00     0.182 C 
BRANCH   8   9
HETATM    9  C   UNK N   1      -1.491   2.643   0.293  0.00  0.00     0.143 C 
HETATM   10  C   UNK N   1      -2.499   1.545  -0.011  0.00  0.00     0.041 C 
BRANCH   9  11
HETATM   11  O   UNK N   1      -2.012   3.415   1.334  0.00  0.00    -0.394 OA
HETATM   12  H   UNK N   1      -1.729   3.996   2.056  0.00  0.00     0.210 HD
ENDBRANCH   9  11
ENDBRANCH   8   9
BRANCH   8  13
HETATM   13  N   UNK N   1       0.711   3.192   1.163  0.00  0.00    -0.418 N 
HETATM   14  H   UNK N   1       1.674   3.082   1.483  0.00  0.00     0.150 HD
HETATM   15  H   UNK N   1       0.305   4.128   1.163  0.00  0.00     0.150 HD
ENDBRANCH   8  13
ENDBRANCH   3   8
BRANCH   3  16
HETATM   16  O   UNK N   1       0.936   2.156  -1.500  0.00  0.00    -0.352 OA
HETATM   17  H   UNK N   1       1.554   2.261  -2.241  0.00  0.00     0.214 HD
ENDBRANCH   3  16
BRANCH   6  18
HETATM   18  C   UNK N   1       3.023   1.173   0.636  0.00  0.00     0.200 C 
BRANCH  18  19
HETATM   19  C   UNK N   1       3.295   2.577   0.194  0.00  0.00     0.251 C 
HETATM   20  O   UNK N   1       4.357   2.866  -0.330  0.00  0.00    -0.305 OA
ENDBRANCH  18  19
ENDBRANCH   6  18
BRANCH   1  21
HETATM   21  C   UNK N   1      -0.305  -2.221  -1.071  0.00  0.00     0.066 C 
BRANCH  21  22
HETATM   22  C   UNK N   1      -0.658  -2.996   0.188  0.00  0.00    -0.017 C 
HETATM   23  C   UNK N   1      -1.924  -3.792  -0.046  0.00  0.00     0.010 C 
HETATM   24  C   UNK N   1       0.467  -3.944   0.553  0.00  0.00     0.010 C 
ENDBRANCH  21  22
ENDBRANCH   1  21
TORSDOF 9
