MODEL 1
REMARK VINA RESULT:      -6.6      0.000      0.000
REMARK  6 active torsions:
REMARK  status: ('A' for Active; 'I' for Inactive)
REMARK    1  A    between atoms: C_2  and  C_4 
REMARK    2  A    between atoms: C_6  and  S_7 
REMARK    3  A    between atoms: S_7  and  C_8 
REMARK    4  A    between atoms: C_11  and  O_12 
REMARK    5  A    between atoms: C_13  and  C_15 
REMARK    6  A    between atoms: C_20  and  O_21 
ROOT
HETATM    1  S   UNK N   1      31.974  16.055   5.524  0.00  0.00    -0.091 SA
ENDROOT
BRANCH   1   2
HETATM    2  C   UNK N   1      30.499  17.066   5.830  0.00  0.00     0.006 A 
HETATM    3  C   UNK N   1      30.122  17.306   7.156  0.00  0.00     0.029 A 
HETATM    4  C   UNK N   1      28.994  18.091   7.458  0.00  0.00    -0.020 A 
HETATM    5  C   UNK N   1      28.255  18.661   6.400  0.00  0.00     0.072 A 
HETATM    6  C   UNK N   1      28.617  18.402   5.077  0.00  0.00     0.038 A 
HETATM    7  C   UNK N   1      29.720  17.596   4.796  0.00  0.00     0.021 A 
BRANCH   4   8
HETATM    8  C   UNK N   1      28.575  18.331   8.893  0.00  0.00     0.013 C 
HETATM    9  C   UNK N   1      27.883  17.103   9.459  0.00  0.00     0.015 C 
HETATM   10  C   UNK N   1      29.732  18.692   9.816  0.00  0.00     0.015 C 
ENDBRANCH   4   8
BRANCH   5  11
HETATM   11  O   UNK N   1      27.194  19.448   6.648  0.00  0.00    -0.360 OA
HETATM   12  H   UNK N   1      26.328  19.133   6.480  0.00  0.00     0.217 HD
ENDBRANCH   5  11
ENDBRANCH   1   2
BRANCH   1  13
HETATM   13  C   UNK N   1      33.083  16.522   6.877  0.00  0.00     0.006 A 
HETATM   14  C   UNK N   1      33.392  17.872   7.057  0.00  0.00     0.021 A 
HETATM   15  C   UNK N   1      34.220  18.271   8.108  0.00  0.00     0.038 A 
HETATM   16  C   UNK N   1      34.735  17.328   9.005  0.00  0.00     0.072 A 
HETATM   17  C   UNK N   1      34.429  15.953   8.835  0.00  0.00    -0.020 A 
HETATM   18  C   UNK N   1      33.625  15.579   7.753  0.00  0.00     0.029 A 
BRANCH  16  19
HETATM   19  O   UNK N   1      35.507  17.761  10.016  0.00  0.00    -0.360 OA
HETATM   20  H   UNK N   1      35.353  17.455  10.889  0.00  0.00     0.217 HD
ENDBRANCH  16  19
BRANCH  17  21
HETATM   21  C   UNK N   1      34.893  14.841   9.760  0.00  0.00     0.013 C 
HETATM   22  C   UNK N   1      34.696  13.487   9.095  0.00  0.00     0.015 C 
HETATM   23  C   UNK N   1      34.257  14.789  11.137  0.00  0.00     0.015 C 
ENDBRANCH  17  21
ENDBRANCH   1  13
TORSDOF 6
ENDMDL
MODEL 2
REMARK VINA RESULT:      -6.5     12.518     16.303
REMARK  6 active torsions:
REMARK  status: ('A' for Active; 'I' for Inactive)
REMARK    1  A    between atoms: C_2  and  C_4 
REMARK    2  A    between atoms: C_6  and  S_7 
REMARK    3  A    between atoms: S_7  and  C_8 
REMARK    4  A    between atoms: C_11  and  O_12 
REMARK    5  A    between atoms: C_13  and  C_15 
REMARK    6  A    between atoms: C_20  and  O_21 
ROOT
HETATM    1  S   UNK N   1      29.908  21.392  -7.308  0.00  0.00    -0.091 SA
ENDROOT
BRANCH   1   2
HETATM    2  C   UNK N   1      30.195  21.861  -5.579  0.00  0.00     0.006 A 
HETATM    3  C   UNK N   1      30.211  23.222  -5.254  0.00  0.00     0.029 A 
HETATM    4  C   UNK N   1      30.418  23.649  -3.930  0.00  0.00    -0.020 A 
HETATM    5  C   UNK N   1      30.586  22.680  -2.918  0.00  0.00     0.072 A 
HETATM    6  C   UNK N   1      30.594  21.323  -3.246  0.00  0.00     0.038 A 
HETATM    7  C   UNK N   1      30.418  20.919  -4.569  0.00  0.00     0.021 A 
BRANCH   4   8
HETATM    8  C   UNK N   1      30.457  25.122  -3.584  0.00  0.00     0.013 C 
HETATM    9  C   UNK N   1      31.666  25.788  -4.220  0.00  0.00     0.015 C 
HETATM   10  C   UNK N   1      29.212  25.885  -4.019  0.00  0.00     0.015 C 
ENDBRANCH   4   8
BRANCH   5  11
HETATM   11  O   UNK N   1      30.748  23.046  -1.635  0.00  0.00    -0.360 OA
HETATM   12  H   UNK N   1      30.608  22.424  -0.949  0.00  0.00     0.217 HD
ENDBRANCH   5  11
ENDBRANCH   1   2
BRANCH   1  13
HETATM   13  C   UNK N   1      28.139  21.707  -7.533  0.00  0.00     0.006 A 
HETATM   14  C   UNK N   1      27.392  20.820  -8.310  0.00  0.00     0.021 A 
HETATM   15  C   UNK N   1      26.020  21.016  -8.479  0.00  0.00     0.038 A 
HETATM   16  C   UNK N   1      25.372  22.090  -7.860  0.00  0.00     0.072 A 
HETATM   17  C   UNK N   1      26.119  23.000  -7.067  0.00  0.00    -0.020 A 
HETATM   18  C   UNK N   1      27.497  22.799  -6.942  0.00  0.00     0.029 A 
BRANCH  16  19
HETATM   19  O   UNK N   1      24.046  22.225  -8.031  0.00  0.00    -0.360 OA
HETATM   20  H   UNK N   1      23.702  22.440  -8.876  0.00  0.00     0.217 HD
ENDBRANCH  16  19
BRANCH  17  21
HETATM   21  C   UNK N   1      25.529  24.180  -6.314  0.00  0.00     0.013 C 
HETATM   22  C   UNK N   1      25.857  25.481  -7.033  0.00  0.00     0.015 C 
HETATM   23  C   UNK N   1      25.932  24.329  -4.858  0.00  0.00     0.015 C 
ENDBRANCH  17  21
ENDBRANCH   1  13
TORSDOF 6
ENDMDL
MODEL 3
REMARK VINA RESULT:      -6.4      2.730      7.418
REMARK  6 active torsions:
REMARK  status: ('A' for Active; 'I' for Inactive)
REMARK    1  A    between atoms: C_2  and  C_4 
REMARK    2  A    between atoms: C_6  and  S_7 
REMARK    3  A    between atoms: S_7  and  C_8 
REMARK    4  A    between atoms: C_11  and  O_12 
REMARK    5  A    between atoms: C_13  and  C_15 
REMARK    6  A    between atoms: C_20  and  O_21 
ROOT
HETATM    1  S   UNK N   1      28.772  17.332   7.913  0.00  0.00    -0.091 SA
ENDROOT
BRANCH   1   2
HETATM    2  C   UNK N   1      30.549  17.478   7.578  0.00  0.00     0.006 A 
HETATM    3  C   UNK N   1      31.014  17.149   6.301  0.00  0.00     0.029 A 
HETATM    4  C   UNK N   1      32.379  17.251   5.977  0.00  0.00    -0.020 A 
HETATM    5  C   UNK N   1      33.280  17.719   6.956  0.00  0.00     0.072 A 
HETATM    6  C   UNK N   1      32.820  18.026   8.238  0.00  0.00     0.038 A 
HETATM    7  C   UNK N   1      31.469  17.888   8.551  0.00  0.00     0.021 A 
BRANCH   4   8
HETATM    8  C   UNK N   1      32.883  16.873   4.600  0.00  0.00     0.013 C 
HETATM    9  C   UNK N   1      33.161  15.381   4.525  0.00  0.00     0.015 C 
HETATM   10  C   UNK N   1      31.920  17.233   3.476  0.00  0.00     0.015 C 
ENDBRANCH   4   8
BRANCH   5  11
HETATM   11  O   UNK N   1      34.586  17.868   6.674  0.00  0.00    -0.360 OA
HETATM   12  H   UNK N   1      34.857  18.052   5.796  0.00  0.00     0.217 HD
ENDBRANCH   5  11
ENDBRANCH   1   2
BRANCH   1  13
HETATM   13  C   UNK N   1      28.015  18.158   6.490  0.00  0.00     0.006 A 
HETATM   14  C   UNK N   1      28.065  19.551   6.416  0.00  0.00     0.021 A 
HETATM   15  C   UNK N   1      27.518  20.218   5.319  0.00  0.00     0.038 A 
HETATM   16  C   UNK N   1      26.930  19.502   4.271  0.00  0.00     0.072 A 
HETATM   17  C   UNK N   1      26.872  18.085   4.332  0.00  0.00    -0.020 A 
HETATM   18  C   UNK N   1      27.398  17.445   5.459  0.00  0.00     0.029 A 
BRANCH  16  19
HETATM   19  O   UNK N   1      26.439  20.185   3.223  0.00  0.00    -0.360 OA
HETATM   20  H   UNK N   1      25.807  20.864   3.360  0.00  0.00     0.217 HD
ENDBRANCH  16  19
BRANCH  17  21
HETATM   21  C   UNK N   1      26.297  17.193   3.245  0.00  0.00     0.013 C 
HETATM   22  C   UNK N   1      24.859  16.821   3.575  0.00  0.00     0.015 C 
HETATM   23  C   UNK N   1      27.058  15.916   2.938  0.00  0.00     0.015 C 
ENDBRANCH  17  21
ENDBRANCH   1  13
TORSDOF 6
ENDMDL
MODEL 4
REMARK VINA RESULT:      -6.4      2.665      4.473
REMARK  6 active torsions:
REMARK  status: ('A' for Active; 'I' for Inactive)
REMARK    1  A    between atoms: C_2  and  C_4 
REMARK    2  A    between atoms: C_6  and  S_7 
REMARK    3  A    between atoms: S_7  and  C_8 
REMARK    4  A    between atoms: C_11  and  O_12 
REMARK    5  A    between atoms: C_13  and  C_15 
REMARK    6  A    between atoms: C_20  and  O_21 
ROOT
HETATM    1  S   UNK N   1      28.877  17.286   8.042  0.00  0.00    -0.091 SA
ENDROOT
BRANCH   1   2
HETATM    2  C   UNK N   1      27.998  18.303   6.823  0.00  0.00     0.006 A 
HETATM    3  C   UNK N   1      27.377  17.660   5.746  0.00  0.00     0.029 A 
HETATM    4  C   UNK N   1      26.672  18.393   4.774  0.00  0.00    -0.020 A 
HETATM    5  C   UNK N   1      26.574  19.793   4.912  0.00  0.00     0.072 A 
HETATM    6  C   UNK N   1      27.213  20.437   5.973  0.00  0.00     0.038 A 
HETATM    7  C   UNK N   1      27.934  19.698   6.910  0.00  0.00     0.021 A 
BRANCH   4   8
HETATM    8  C   UNK N   1      26.019  17.698   3.597  0.00  0.00     0.013 C 
HETATM    9  C   UNK N   1      26.826  16.479   3.184  0.00  0.00     0.015 C 
HETATM   10  C   UNK N   1      24.589  17.250   3.869  0.00  0.00     0.015 C 
ENDBRANCH   4   8
BRANCH   5  11
HETATM   11  O   UNK N   1      25.876  20.524   4.026  0.00  0.00    -0.360 OA
HETATM   12  H   UNK N   1      25.942  21.459   4.034  0.00  0.00     0.217 HD
ENDBRANCH   5  11
ENDBRANCH   1   2
BRANCH   1  13
HETATM   13  C   UNK N   1      30.612  17.476   7.563  0.00  0.00     0.006 A 
HETATM   14  C   UNK N   1      31.537  17.872   8.532  0.00  0.00     0.021 A 
HETATM   15  C   UNK N   1      32.888  18.000   8.205  0.00  0.00     0.038 A 
HETATM   16  C   UNK N   1      33.337  17.716   6.910  0.00  0.00     0.072 A 
HETATM   17  C   UNK N   1      32.410  17.312   5.916  0.00  0.00    -0.020 A 
HETATM   18  C   UNK N   1      31.057  17.225   6.263  0.00  0.00     0.029 A 
BRANCH  16  19
HETATM   19  O   UNK N   1      34.650  17.828   6.648  0.00  0.00    -0.360 OA
HETATM   20  H   UNK N   1      34.970  17.674   5.780  0.00  0.00     0.217 HD
ENDBRANCH  16  19
BRANCH  17  21
HETATM   21  C   UNK N   1      32.774  16.939   4.489  0.00  0.00     0.013 C 
HETATM   22  C   UNK N   1      31.540  16.983   3.600  0.00  0.00     0.015 C 
HETATM   23  C   UNK N   1      33.455  15.597   4.288  0.00  0.00     0.015 C 
ENDBRANCH  17  21
ENDBRANCH   1  13
TORSDOF 6
ENDMDL
MODEL 5
REMARK VINA RESULT:      -6.4      3.296      5.152
REMARK  6 active torsions:
REMARK  status: ('A' for Active; 'I' for Inactive)
REMARK    1  A    between atoms: C_2  and  C_4 
REMARK    2  A    between atoms: C_6  and  S_7 
REMARK    3  A    between atoms: S_7  and  C_8 
REMARK    4  A    between atoms: C_11  and  O_12 
REMARK    5  A    between atoms: C_13  and  C_15 
REMARK    6  A    between atoms: C_20  and  O_21 
ROOT
HETATM    1  S   UNK N   1      28.530  17.164   4.682  0.00  0.00    -0.091 SA
ENDROOT
BRANCH   1   2
HETATM    2  C   UNK N   1      27.147  18.264   4.267  0.00  0.00     0.006 A 
HETATM    3  C   UNK N   1      25.848  17.748   4.326  0.00  0.00     0.029 A 
HETATM    4  C   UNK N   1      24.735  18.553   4.026  0.00  0.00    -0.020 A 
HETATM    5  C   UNK N   1      24.941  19.907   3.686  0.00  0.00     0.072 A 
HETATM    6  C   UNK N   1      26.239  20.415   3.605  0.00  0.00     0.038 A 
HETATM    7  C   UNK N   1      27.333  19.595   3.875  0.00  0.00     0.021 A 
BRANCH   4   8
HETATM    8  C   UNK N   1      23.331  17.987   4.068  0.00  0.00     0.013 C 
HETATM    9  C   UNK N   1      23.335  16.521   3.671  0.00  0.00     0.015 C 
HETATM   10  C   UNK N   1      22.664  18.108   5.433  0.00  0.00     0.015 C 
ENDBRANCH   4   8
BRANCH   5  11
HETATM   11  O   UNK N   1      23.901  20.718   3.431  0.00  0.00    -0.360 OA
HETATM   12  H   UNK N   1      23.080  20.577   3.860  0.00  0.00     0.217 HD
ENDBRANCH   5  11
ENDBRANCH   1   2
BRANCH   1  13
HETATM   13  C   UNK N   1      28.966  17.667   6.365  0.00  0.00     0.006 A 
HETATM   14  C   UNK N   1      28.010  18.328   7.139  0.00  0.00     0.021 A 
HETATM   15  C   UNK N   1      28.303  18.703   8.451  0.00  0.00     0.038 A 
HETATM   16  C   UNK N   1      29.548  18.407   9.015  0.00  0.00     0.072 A 
HETATM   17  C   UNK N   1      30.530  17.736   8.241  0.00  0.00    -0.020 A 
HETATM   18  C   UNK N   1      30.221  17.402   6.918  0.00  0.00     0.029 A 
BRANCH  16  19
HETATM   19  O   UNK N   1      29.777  18.765  10.290  0.00  0.00    -0.360 OA
HETATM   20  H   UNK N   1      29.253  19.431  10.692  0.00  0.00     0.217 HD
ENDBRANCH  16  19
BRANCH  17  21
HETATM   21  C   UNK N   1      31.902  17.325   8.748  0.00  0.00     0.013 C 
HETATM   22  C   UNK N   1      32.989  18.071   7.989  0.00  0.00     0.015 C 
HETATM   23  C   UNK N   1      32.228  15.842   8.707  0.00  0.00     0.015 C 
ENDBRANCH  17  21
ENDBRANCH   1  13
TORSDOF 6
ENDMDL
MODEL 6
REMARK VINA RESULT:      -6.4      2.148      6.039
REMARK  6 active torsions:
REMARK  status: ('A' for Active; 'I' for Inactive)
REMARK    1  A    between atoms: C_2  and  C_4 
REMARK    2  A    between atoms: C_6  and  S_7 
REMARK    3  A    between atoms: S_7  and  C_8 
REMARK    4  A    between atoms: C_11  and  O_12 
REMARK    5  A    between atoms: C_13  and  C_15 
REMARK    6  A    between atoms: C_20  and  O_21 
ROOT
HETATM    1  S   UNK N   1      29.266  16.950   3.862  0.00  0.00    -0.091 SA
ENDROOT
BRANCH   1   2
HETATM    2  C   UNK N   1      30.991  16.828   4.412  0.00  0.00     0.006 A 
HETATM    3  C   UNK N   1      31.248  16.792   5.786  0.00  0.00     0.029 A 
HETATM    4  C   UNK N   1      32.563  16.688   6.275  0.00  0.00    -0.020 A 
HETATM    5  C   UNK N   1      33.628  16.592   5.356  0.00  0.00     0.072 A 
HETATM    6  C   UNK N   1      33.373  16.651   3.985  0.00  0.00     0.038 A 
HETATM    7  C   UNK N   1      32.066  16.786   3.518  0.00  0.00     0.021 A 
BRANCH   4   8
HETATM    8  C   UNK N   1      32.841  16.672   7.764  0.00  0.00     0.013 C 
HETATM    9  C   UNK N   1      33.054  18.085   8.281  0.00  0.00     0.015 C 
HETATM   10  C   UNK N   1      31.732  16.028   8.586  0.00  0.00     0.015 C 
ENDBRANCH   4   8
BRANCH   5  11
HETATM   11  O   UNK N   1      34.895  16.452   5.783  0.00  0.00    -0.360 OA
HETATM   12  H   UNK N   1      35.454  17.202   5.842  0.00  0.00     0.217 HD
ENDBRANCH   5  11
ENDBRANCH   1   2
BRANCH   1  13
HETATM   13  C   UNK N   1      28.542  18.127   5.031  0.00  0.00     0.006 A 
HETATM   14  C   UNK N   1      27.801  19.200   4.533  0.00  0.00     0.021 A 
HETATM   15  C   UNK N   1      27.204  20.110   5.407  0.00  0.00     0.038 A 
HETATM   16  C   UNK N   1      27.322  19.949   6.792  0.00  0.00     0.072 A 
HETATM   17  C   UNK N   1      28.072  18.863   7.313  0.00  0.00    -0.020 A 
HETATM   18  C   UNK N   1      28.688  17.987   6.413  0.00  0.00     0.029 A 
BRANCH  16  19
HETATM   19  O   UNK N   1      26.710  20.835   7.595  0.00  0.00    -0.360 OA
HETATM   20  H   UNK N   1      26.788  20.757   8.526  0.00  0.00     0.217 HD
ENDBRANCH  16  19
BRANCH  17  21
HETATM   21  C   UNK N   1      28.244  18.558   8.791  0.00  0.00     0.013 C 
HETATM   22  C   UNK N   1      29.653  18.914   9.243  0.00  0.00     0.015 C 
HETATM   23  C   UNK N   1      27.950  17.135   9.233  0.00  0.00     0.015 C 
ENDBRANCH  17  21
ENDBRANCH   1  13
TORSDOF 6
ENDMDL
MODEL 7
REMARK VINA RESULT:      -6.4     12.330     14.905
REMARK  6 active torsions:
REMARK  status: ('A' for Active; 'I' for Inactive)
REMARK    1  A    between atoms: C_2  and  C_4 
REMARK    2  A    between atoms: C_6  and  S_7 
REMARK    3  A    between atoms: S_7  and  C_8 
REMARK    4  A    between atoms: C_11  and  O_12 
REMARK    5  A    between atoms: C_13  and  C_15 
REMARK    6  A    between atoms: C_20  and  O_21 
ROOT
HETATM    1  S   UNK N   1      30.206  21.632  -7.766  0.00  0.00    -0.091 SA
ENDROOT
BRANCH   1   2
HETATM    2  C   UNK N   1      28.399  21.691  -7.609  0.00  0.00     0.006 A 
HETATM    3  C   UNK N   1      27.828  22.766  -6.920  0.00  0.00     0.029 A 
HETATM    4  C   UNK N   1      26.433  22.875  -6.774  0.00  0.00    -0.020 A 
HETATM    5  C   UNK N   1      25.606  21.891  -7.357  0.00  0.00     0.072 A 
HETATM    6  C   UNK N   1      26.177  20.806  -8.024  0.00  0.00     0.038 A 
HETATM    7  C   UNK N   1      27.563  20.698  -8.133  0.00  0.00     0.021 A 
BRANCH   4   8
HETATM    8  C   UNK N   1      25.818  24.027  -6.008  0.00  0.00     0.013 C 
HETATM    9  C   UNK N   1      26.549  24.246  -4.695  0.00  0.00     0.015 C 
HETATM   10  C   UNK N   1      25.820  25.342  -6.778  0.00  0.00     0.015 C 
ENDBRANCH   4   8
BRANCH   5  11
HETATM   11  O   UNK N   1      24.268  21.980  -7.272  0.00  0.00    -0.360 OA
HETATM   12  H   UNK N   1      23.875  22.508  -6.605  0.00  0.00     0.217 HD
ENDBRANCH   5  11
ENDBRANCH   1   2
BRANCH   1  13
HETATM   13  C   UNK N   1      30.766  21.528  -6.048  0.00  0.00     0.006 A 
HETATM   14  C   UNK N   1      31.676  20.529  -5.696  0.00  0.00     0.021 A 
HETATM   15  C   UNK N   1      32.152  20.439  -4.387  0.00  0.00     0.038 A 
HETATM   16  C   UNK N   1      31.740  21.358  -3.415  0.00  0.00     0.072 A 
HETATM   17  C   UNK N   1      30.816  22.379  -3.757  0.00  0.00    -0.020 A 
HETATM   18  C   UNK N   1      30.330  22.424  -5.068  0.00  0.00     0.029 A 
BRANCH  16  19
HETATM   19  O   UNK N   1      32.244  21.248  -2.174  0.00  0.00    -0.360 OA
HETATM   20  H   UNK N   1      32.006  21.870  -1.514  0.00  0.00     0.217 HD
ENDBRANCH  16  19
BRANCH  17  21
HETATM   21  C   UNK N   1      30.322  23.456  -2.807  0.00  0.00     0.013 C 
HETATM   22  C   UNK N   1      29.030  23.014  -2.136  0.00  0.00     0.015 C 
HETATM   23  C   UNK N   1      30.100  24.837  -3.398  0.00  0.00     0.015 C 
ENDBRANCH  17  21
ENDBRANCH   1  13
TORSDOF 6
ENDMDL
MODEL 8
REMARK VINA RESULT:      -6.3     12.873     16.762
REMARK  6 active torsions:
REMARK  status: ('A' for Active; 'I' for Inactive)
REMARK    1  A    between atoms: C_2  and  C_4 
REMARK    2  A    between atoms: C_6  and  S_7 
REMARK    3  A    between atoms: S_7  and  C_8 
REMARK    4  A    between atoms: C_11  and  O_12 
REMARK    5  A    between atoms: C_13  and  C_15 
REMARK    6  A    between atoms: C_20  and  O_21 
ROOT
HETATM    1  S   UNK N   1      26.947  24.779  -5.654  0.00  0.00    -0.091 SA
ENDROOT
BRANCH   1   2
HETATM    2  C   UNK N   1      28.083  24.145  -4.388  0.00  0.00     0.006 A 
HETATM    3  C   UNK N   1      29.433  23.996  -4.722  0.00  0.00     0.029 A 
HETATM    4  C   UNK N   1      30.364  23.520  -3.782  0.00  0.00    -0.020 A 
HETATM    5  C   UNK N   1      29.923  23.214  -2.477  0.00  0.00     0.072 A 
HETATM    6  C   UNK N   1      28.571  23.340  -2.151  0.00  0.00     0.038 A 
HETATM    7  C   UNK N   1      27.657  23.784  -3.105  0.00  0.00     0.021 A 
BRANCH   4   8
HETATM    8  C   UNK N   1      31.822  23.339  -4.152  0.00  0.00     0.013 C 
HETATM    9  C   UNK N   1      31.985  22.185  -5.127  0.00  0.00     0.015 C 
HETATM   10  C   UNK N   1      32.453  24.578  -4.774  0.00  0.00     0.015 C 
ENDBRANCH   4   8
BRANCH   5  11
HETATM   11  O   UNK N   1      30.788  22.793  -1.539  0.00  0.00    -0.360 OA
HETATM   12  H   UNK N   1      30.651  23.019  -0.640  0.00  0.00     0.217 HD
ENDBRANCH   5  11
ENDBRANCH   1   2
BRANCH   1  13
HETATM   13  C   UNK N   1      26.709  26.506  -5.167  0.00  0.00     0.006 A 
HETATM   14  C   UNK N   1      25.781  26.800  -4.166  0.00  0.00     0.021 A 
HETATM   15  C   UNK N   1      25.593  28.118  -3.745  0.00  0.00     0.038 A 
HETATM   16  C   UNK N   1      26.344  29.158  -4.305  0.00  0.00     0.072 A 
HETATM   17  C   UNK N   1      27.291  28.874  -5.322  0.00  0.00    -0.020 A 
HETATM   18  C   UNK N   1      27.434  27.549  -5.748  0.00  0.00     0.029 A 
BRANCH  16  19
HETATM   19  O   UNK N   1      26.147  30.407  -3.851  0.00  0.00    -0.360 OA
HETATM   20  H   UNK N   1      25.981  31.105  -4.455  0.00  0.00     0.217 HD
ENDBRANCH  16  19
BRANCH  17  21
HETATM   21  C   UNK N   1      28.192  29.905  -5.981  0.00  0.00     0.013 C 
HETATM   22  C   UNK N   1      28.789  29.341  -7.262  0.00  0.00     0.015 C 
HETATM   23  C   UNK N   1      29.324  30.460  -5.135  0.00  0.00     0.015 C 
ENDBRANCH  17  21
ENDBRANCH   1  13
TORSDOF 6
ENDMDL
MODEL 9
REMARK VINA RESULT:      -6.3     10.759     12.496
REMARK  6 active torsions:
REMARK  status: ('A' for Active; 'I' for Inactive)
REMARK    1  A    between atoms: C_2  and  C_4 
REMARK    2  A    between atoms: C_6  and  S_7 
REMARK    3  A    between atoms: S_7  and  C_8 
REMARK    4  A    between atoms: C_11  and  O_12 
REMARK    5  A    between atoms: C_13  and  C_15 
REMARK    6  A    between atoms: C_20  and  O_21 
ROOT
HETATM    1  S   UNK N   1      22.650  17.331   5.438  0.00  0.00    -0.091 SA
ENDROOT
BRANCH   1   2
HETATM    2  C   UNK N   1      21.579  17.338   3.974  0.00  0.00     0.006 A 
HETATM    3  C   UNK N   1      21.626  16.238   3.112  0.00  0.00     0.029 A 
HETATM    4  C   UNK N   1      20.813  16.180   1.965  0.00  0.00    -0.020 A 
HETATM    5  C   UNK N   1      19.922  17.243   1.705  0.00  0.00     0.072 A 
HETATM    6  C   UNK N   1      19.892  18.351   2.553  0.00  0.00     0.038 A 
HETATM    7  C   UNK N   1      20.728  18.406   3.668  0.00  0.00     0.021 A 
BRANCH   4   8
HETATM    8  C   UNK N   1      20.881  14.998   1.021  0.00  0.00     0.013 C 
HETATM    9  C   UNK N   1      22.296  14.451   0.953  0.00  0.00     0.015 C 
HETATM   10  C   UNK N   1      19.948  13.856   1.404  0.00  0.00     0.015 C 
ENDBRANCH   4   8
BRANCH   5  11
HETATM   11  O   UNK N   1      19.101  17.207   0.642  0.00  0.00    -0.360 OA
HETATM   12  H   UNK N   1      18.965  17.980   0.129  0.00  0.00     0.217 HD
ENDBRANCH   5  11
ENDBRANCH   1   2
BRANCH   1  13
HETATM   13  C   UNK N   1      21.666  16.434   6.665  0.00  0.00     0.006 A 
HETATM   14  C   UNK N   1      21.903  15.070   6.850  0.00  0.00     0.021 A 
HETATM   15  C   UNK N   1      21.182  14.355   7.809  0.00  0.00     0.038 A 
HETATM   16  C   UNK N   1      20.229  14.995   8.608  0.00  0.00     0.072 A 
HETATM   17  C   UNK N   1      19.978  16.381   8.431  0.00  0.00    -0.020 A 
HETATM   18  C   UNK N   1      20.691  17.065   7.441  0.00  0.00     0.029 A 
BRANCH  16  19
HETATM   19  O   UNK N   1      19.578  14.272   9.534  0.00  0.00    -0.360 OA
HETATM   20  H   UNK N   1      18.664  14.092   9.432  0.00  0.00     0.217 HD
ENDBRANCH  16  19
BRANCH  17  21
HETATM   21  C   UNK N   1      19.000  17.197   9.258  0.00  0.00     0.013 C 
HETATM   22  C   UNK N   1      17.623  17.184   8.611  0.00  0.00     0.015 C 
HETATM   23  C   UNK N   1      19.380  18.641   9.534  0.00  0.00     0.015 C 
ENDBRANCH  17  21
ENDBRANCH   1  13
TORSDOF 6
ENDMDL
