MODEL 1
REMARK VINA RESULT:      -5.6      0.000      0.000
REMARK  16 active torsions:
REMARK  status: ('A' for Active; 'I' for Inactive)
REMARK    1  A    between atoms: C_2  and  O_1 
REMARK    2  A    between atoms: C_2  and  C_3 
REMARK    3  A    between atoms: C_2  and  C_9 
REMARK    4  A    between atoms: C_3  and  O_4 
REMARK    5  A    between atoms: O_4  and  P_5 
REMARK    6  A    between atoms: P_5  and  O_6 
REMARK    7  A    between atoms: P_5  and  O_7 
REMARK    8  A    between atoms: C_9  and  O_10 
REMARK    9  A    between atoms: C_9  and  C_11 
REMARK   10  A    between atoms: C_11  and  O_12 
REMARK   11  A    between atoms: C_11  and  C_13 
REMARK   12  A    between atoms: C_13  and  C_15 
REMARK   13  A    between atoms: C_15  and  O_16 
REMARK   14  A    between atoms: O_16  and  P_17 
REMARK   15  A    between atoms: P_17  and  O_18 
REMARK   16  A    between atoms: P_17  and  O_19 
ROOT
HETATM    1  C   UNK N   1      34.654  15.696  10.831  0.00  0.00     0.185 C 
ENDROOT
BRANCH   1   2
HETATM    2  C   UNK N   1      36.051  15.088  11.052  0.00  0.00     0.174 C 
BRANCH   2   3
HETATM    3  O   UNK N   1      37.066  16.035  10.917  0.00  0.00    -0.391 OA
HETATM    4  H   UNK N   1      37.038  16.683  10.194  0.00  0.00     0.210 HD
ENDBRANCH   2   3
BRANCH   2   5
HETATM    5  C   UNK N   1      36.175  14.465  12.442  0.00  0.00     0.215 C 
BRANCH   5   6
HETATM    6  O   UNK N   1      36.133  13.066  12.403  0.00  0.00    -0.294 OA
BRANCH   6   7
HETATM    7  P   UNK N   1      35.847  12.556  14.040  0.00  0.00     0.390 P 
HETATM    8  O   UNK N   1      36.384  13.998  14.249  0.00  0.00    -0.632 OA
BRANCH   7   9
HETATM    9  O   UNK N   1      34.585  13.298  14.972  0.00  0.00    -0.307 OA
HETATM   10  H   UNK N   1      33.752  13.559  14.549  0.00  0.00     0.222 HD
ENDBRANCH   7   9
BRANCH   7  11
HETATM   11  O   UNK N   1      34.358  12.609  13.151  0.00  0.00    -0.307 OA
HETATM   12  H   UNK N   1      34.120  13.404  12.647  0.00  0.00     0.222 HD
ENDBRANCH   7  11
ENDBRANCH   6   7
ENDBRANCH   5   6
ENDBRANCH   2   5
ENDBRANCH   1   2
BRANCH   1  13
HETATM   13  O   UNK N   1      33.714  14.818  11.376  0.00  0.00    -0.390 OA
HETATM   14  H   UNK N   1      33.467  13.989  10.937  0.00  0.00     0.210 HD
ENDBRANCH   1  13
BRANCH   1  15
HETATM   15  C   UNK N   1      34.325  15.977   9.351  0.00  0.00     0.221 C 
BRANCH  15  16
HETATM   16  O   UNK N   1      35.141  15.171   8.553  0.00  0.00    -0.385 OA
HETATM   17  H   UNK N   1      34.964  14.247   8.323  0.00  0.00     0.210 HD
ENDBRANCH  15  16
BRANCH  15  18
HETATM   18  C   UNK N   1      34.507  17.420   8.931  0.00  0.00     0.181 C 
HETATM   19  O   UNK N   1      35.324  18.140   9.485  0.00  0.00    -0.293 OA
BRANCH  18  20
HETATM   20  C   UNK N   1      33.665  17.998   7.837  0.00  0.00     0.261 C 
BRANCH  20  21
HETATM   21  O   UNK N   1      34.393  18.039   6.643  0.00  0.00    -0.290 OA
BRANCH  21  22
HETATM   22  P   UNK N   1      33.386  17.271   5.452  0.00  0.00     0.391 P 
HETATM   23  O   UNK N   1      32.438  17.338   6.679  0.00  0.00    -0.632 OA
BRANCH  22  24
HETATM   24  O   UNK N   1      32.896  15.618   5.652  0.00  0.00    -0.307 OA
HETATM   25  H   UNK N   1      32.785  15.176   6.508  0.00  0.00     0.222 HD
ENDBRANCH  22  24
BRANCH  22  26
HETATM   26  O   UNK N   1      34.743  16.249   5.820  0.00  0.00    -0.307 OA
HETATM   27  H   UNK N   1      35.030  15.376   5.511  0.00  0.00     0.222 HD
ENDBRANCH  22  26
ENDBRANCH  21  22
ENDBRANCH  20  21
ENDBRANCH  18  20
ENDBRANCH  15  18
ENDBRANCH   1  15
TORSDOF 16
ENDMDL
MODEL 2
REMARK VINA RESULT:      -5.6      1.392      2.270
REMARK  16 active torsions:
REMARK  status: ('A' for Active; 'I' for Inactive)
REMARK    1  A    between atoms: C_2  and  O_1 
REMARK    2  A    between atoms: C_2  and  C_3 
REMARK    3  A    between atoms: C_2  and  C_9 
REMARK    4  A    between atoms: C_3  and  O_4 
REMARK    5  A    between atoms: O_4  and  P_5 
REMARK    6  A    between atoms: P_5  and  O_6 
REMARK    7  A    between atoms: P_5  and  O_7 
REMARK    8  A    between atoms: C_9  and  O_10 
REMARK    9  A    between atoms: C_9  and  C_11 
REMARK   10  A    between atoms: C_11  and  O_12 
REMARK   11  A    between atoms: C_11  and  C_13 
REMARK   12  A    between atoms: C_13  and  C_15 
REMARK   13  A    between atoms: C_15  and  O_16 
REMARK   14  A    between atoms: O_16  and  P_17 
REMARK   15  A    between atoms: P_17  and  O_18 
REMARK   16  A    between atoms: P_17  and  O_19 
ROOT
HETATM    1  C   UNK N   1      35.403  14.623  11.817  0.00  0.00     0.185 C 
ENDROOT
BRANCH   1   2
HETATM    2  C   UNK N   1      36.023  13.285  12.259  0.00  0.00     0.174 C 
BRANCH   2   3
HETATM    3  O   UNK N   1      37.314  13.443  12.767  0.00  0.00    -0.391 OA
HETATM    4  H   UNK N   1      37.612  12.906  13.518  0.00  0.00     0.210 HD
ENDBRANCH   2   3
BRANCH   2   5
HETATM    5  C   UNK N   1      35.178  12.608  13.337  0.00  0.00     0.215 C 
BRANCH   5   6
HETATM    6  O   UNK N   1      34.896  13.465  14.409  0.00  0.00    -0.294 OA
BRANCH   6   7
HETATM    7  P   UNK N   1      35.460  12.644  15.833  0.00  0.00     0.390 P 
HETATM    8  O   UNK N   1      36.501  13.789  15.696  0.00  0.00    -0.632 OA
BRANCH   7   9
HETATM    9  O   UNK N   1      35.367  13.427  17.379  0.00  0.00    -0.307 OA
HETATM   10  H   UNK N   1      35.250  12.904  18.188  0.00  0.00     0.222 HD
ENDBRANCH   7   9
BRANCH   7  11
HETATM   11  O   UNK N   1      33.883  13.316  16.103  0.00  0.00    -0.307 OA
HETATM   12  H   UNK N   1      33.531  13.385  17.004  0.00  0.00     0.222 HD
ENDBRANCH   7  11
ENDBRANCH   6   7
ENDBRANCH   5   6
ENDBRANCH   2   5
ENDBRANCH   1   2
BRANCH   1  13
HETATM   13  O   UNK N   1      34.033  14.420  11.632  0.00  0.00    -0.390 OA
HETATM   14  H   UNK N   1      33.521  13.822  12.198  0.00  0.00     0.210 HD
ENDBRANCH   1  13
BRANCH   1  15
HETATM   15  C   UNK N   1      36.033  15.206  10.537  0.00  0.00     0.221 C 
BRANCH  15  16
HETATM   16  O   UNK N   1      37.108  16.021  10.900  0.00  0.00    -0.385 OA
HETATM   17  H   UNK N   1      37.201  16.483  11.747  0.00  0.00     0.210 HD
ENDBRANCH  15  16
BRANCH  15  18
HETATM   18  C   UNK N   1      35.080  16.012   9.679  0.00  0.00     0.181 C 
HETATM   19  O   UNK N   1      34.646  17.088  10.060  0.00  0.00    -0.293 OA
BRANCH  18  20
HETATM   20  C   UNK N   1      34.634  15.486   8.351  0.00  0.00     0.261 C 
BRANCH  20  21
HETATM   21  O   UNK N   1      35.114  16.308   7.325  0.00  0.00    -0.290 OA
BRANCH  21  22
HETATM   22  P   UNK N   1      33.709  16.819   6.438  0.00  0.00     0.391 P 
HETATM   23  O   UNK N   1      34.565  16.155   5.327  0.00  0.00    -0.632 OA
BRANCH  22  24
HETATM   24  O   UNK N   1      33.832  18.074   5.245  0.00  0.00    -0.307 OA
HETATM   25  H   UNK N   1      34.416  18.845   5.315  0.00  0.00     0.222 HD
ENDBRANCH  22  24
BRANCH  22  26
HETATM   26  O   UNK N   1      34.544  18.209   7.064  0.00  0.00    -0.307 OA
HETATM   27  H   UNK N   1      35.240  18.331   7.729  0.00  0.00     0.222 HD
ENDBRANCH  22  26
ENDBRANCH  21  22
ENDBRANCH  20  21
ENDBRANCH  18  20
ENDBRANCH  15  18
ENDBRANCH   1  15
TORSDOF 16
ENDMDL
MODEL 3
REMARK VINA RESULT:      -5.5     12.174     15.102
REMARK  16 active torsions:
REMARK  status: ('A' for Active; 'I' for Inactive)
REMARK    1  A    between atoms: C_2  and  O_1 
REMARK    2  A    between atoms: C_2  and  C_3 
REMARK    3  A    between atoms: C_2  and  C_9 
REMARK    4  A    between atoms: C_3  and  O_4 
REMARK    5  A    between atoms: O_4  and  P_5 
REMARK    6  A    between atoms: P_5  and  O_6 
REMARK    7  A    between atoms: P_5  and  O_7 
REMARK    8  A    between atoms: C_9  and  O_10 
REMARK    9  A    between atoms: C_9  and  C_11 
REMARK   10  A    between atoms: C_11  and  O_12 
REMARK   11  A    between atoms: C_11  and  C_13 
REMARK   12  A    between atoms: C_13  and  C_15 
REMARK   13  A    between atoms: C_15  and  O_16 
REMARK   14  A    between atoms: O_16  and  P_17 
REMARK   15  A    between atoms: P_17  and  O_18 
REMARK   16  A    between atoms: P_17  and  O_19 
ROOT
HETATM    1  C   UNK N   1      41.358  23.751   0.651  0.00  0.00     0.185 C 
ENDROOT
BRANCH   1   2
HETATM    2  C   UNK N   1      42.459  24.299  -0.276  0.00  0.00     0.174 C 
BRANCH   2   3
HETATM    3  O   UNK N   1      42.231  25.627  -0.639  0.00  0.00    -0.391 OA
HETATM    4  H   UNK N   1      41.961  25.846  -1.545  0.00  0.00     0.210 HD
ENDBRANCH   2   3
BRANCH   2   5
HETATM    5  C   UNK N   1      43.834  24.227   0.387  0.00  0.00     0.215 C 
BRANCH   5   6
HETATM    6  O   UNK N   1      44.079  25.322   1.225  0.00  0.00    -0.294 OA
BRANCH   6   7
HETATM    7  P   UNK N   1      45.801  25.371   1.450  0.00  0.00     0.390 P 
HETATM    8  O   UNK N   1      45.298  26.131   2.708  0.00  0.00    -0.632 OA
BRANCH   7   9
HETATM    9  O   UNK N   1      46.532  24.480   2.748  0.00  0.00    -0.307 OA
HETATM   10  H   UNK N   1      47.480  24.274   2.729  0.00  0.00     0.222 HD
ENDBRANCH   7   9
BRANCH   7  11
HETATM   11  O   UNK N   1      45.229  23.733   1.487  0.00  0.00    -0.307 OA
HETATM   12  H   UNK N   1      44.343  23.535   1.831  0.00  0.00     0.222 HD
ENDBRANCH   7  11
ENDBRANCH   6   7
ENDBRANCH   5   6
ENDBRANCH   2   5
ENDBRANCH   1   2
BRANCH   1  13
HETATM   13  O   UNK N   1      41.643  24.176   1.951  0.00  0.00    -0.390 OA
HETATM   14  H   UNK N   1      41.342  23.685   2.731  0.00  0.00     0.210 HD
ENDBRANCH   1  13
BRANCH   1  15
HETATM   15  C   UNK N   1      41.220  22.216   0.610  0.00  0.00     0.221 C 
BRANCH  15  16
HETATM   16  O   UNK N   1      40.096  21.891  -0.153  0.00  0.00    -0.385 OA
HETATM   17  H   UNK N   1      39.183  21.873   0.172  0.00  0.00     0.210 HD
ENDBRANCH  15  16
BRANCH  15  18
HETATM   18  C   UNK N   1      41.091  21.562   1.969  0.00  0.00     0.181 C 
HETATM   19  O   UNK N   1      40.034  21.580   2.580  0.00  0.00    -0.293 OA
BRANCH  18  20
HETATM   20  C   UNK N   1      42.274  20.896   2.599  0.00  0.00     0.261 C 
BRANCH  20  21
HETATM   21  O   UNK N   1      43.402  21.718   2.488  0.00  0.00    -0.290 OA
BRANCH  21  22
HETATM   22  P   UNK N   1      44.146  21.710   4.059  0.00  0.00     0.391 P 
HETATM   23  O   UNK N   1      43.905  23.225   3.826  0.00  0.00    -0.632 OA
BRANCH  22  24
HETATM   24  O   UNK N   1      45.726  22.390   4.286  0.00  0.00    -0.307 OA
HETATM   25  H   UNK N   1      46.423  21.993   4.831  0.00  0.00     0.222 HD
ENDBRANCH  22  24
BRANCH  22  26
HETATM   26  O   UNK N   1      45.268  21.110   2.876  0.00  0.00    -0.307 OA
HETATM   27  H   UNK N   1      46.230  20.983   2.865  0.00  0.00     0.222 HD
ENDBRANCH  22  26
ENDBRANCH  21  22
ENDBRANCH  20  21
ENDBRANCH  18  20
ENDBRANCH  15  18
ENDBRANCH   1  15
TORSDOF 16
ENDMDL
MODEL 4
REMARK VINA RESULT:      -5.4      1.849      2.639
REMARK  16 active torsions:
REMARK  status: ('A' for Active; 'I' for Inactive)
REMARK    1  A    between atoms: C_2  and  O_1 
REMARK    2  A    between atoms: C_2  and  C_3 
REMARK    3  A    between atoms: C_2  and  C_9 
REMARK    4  A    between atoms: C_3  and  O_4 
REMARK    5  A    between atoms: O_4  and  P_5 
REMARK    6  A    between atoms: P_5  and  O_6 
REMARK    7  A    between atoms: P_5  and  O_7 
REMARK    8  A    between atoms: C_9  and  O_10 
REMARK    9  A    between atoms: C_9  and  C_11 
REMARK   10  A    between atoms: C_11  and  O_12 
REMARK   11  A    between atoms: C_11  and  C_13 
REMARK   12  A    between atoms: C_13  and  C_15 
REMARK   13  A    between atoms: C_15  and  O_16 
REMARK   14  A    between atoms: O_16  and  P_17 
REMARK   15  A    between atoms: P_17  and  O_18 
REMARK   16  A    between atoms: P_17  and  O_19 
ROOT
HETATM    1  C   UNK N   1      35.236  14.760  11.719  0.00  0.00     0.185 C 
ENDROOT
BRANCH   1   2
HETATM    2  C   UNK N   1      35.979  13.493  12.180  0.00  0.00     0.174 C 
BRANCH   2   3
HETATM    3  O   UNK N   1      37.156  13.792  12.868  0.00  0.00    -0.391 OA
HETATM    4  H   UNK N   1      37.747  13.078  13.158  0.00  0.00     0.210 HD
ENDBRANCH   2   3
BRANCH   2   5
HETATM    5  C   UNK N   1      35.107  12.639  13.099  0.00  0.00     0.215 C 
BRANCH   5   6
HETATM    6  O   UNK N   1      34.837  13.274  14.318  0.00  0.00    -0.294 OA
BRANCH   6   7
HETATM    7  P   UNK N   1      34.965  12.039  15.534  0.00  0.00     0.390 P 
HETATM    8  O   UNK N   1      36.427  12.560  15.459  0.00  0.00    -0.632 OA
BRANCH   7   9
HETATM    9  O   UNK N   1      35.297  12.474  17.181  0.00  0.00    -0.307 OA
HETATM   10  H   UNK N   1      36.113  12.176  17.612  0.00  0.00     0.222 HD
ENDBRANCH   7   9
BRANCH   7  11
HETATM   11  O   UNK N   1      33.916  13.313  16.070  0.00  0.00    -0.307 OA
HETATM   12  H   UNK N   1      34.186  13.888  16.804  0.00  0.00     0.222 HD
ENDBRANCH   7  11
ENDBRANCH   6   7
ENDBRANCH   5   6
ENDBRANCH   2   5
ENDBRANCH   1   2
BRANCH   1  13
HETATM   13  O   UNK N   1      33.876  14.453  11.637  0.00  0.00    -0.390 OA
HETATM   14  H   UNK N   1      33.268  14.603  12.377  0.00  0.00     0.210 HD
ENDBRANCH   1  13
BRANCH   1  15
HETATM   15  C   UNK N   1      35.739  15.319  10.373  0.00  0.00     0.221 C 
BRANCH  15  16
HETATM   16  O   UNK N   1      37.135  15.342  10.394  0.00  0.00    -0.385 OA
HETATM   17  H   UNK N   1      37.685  16.136  10.314  0.00  0.00     0.210 HD
ENDBRANCH  15  16
BRANCH  15  18
HETATM   18  C   UNK N   1      35.235  16.708  10.043  0.00  0.00     0.181 C 
HETATM   19  O   UNK N   1      35.825  17.703  10.435  0.00  0.00    -0.293 OA
BRANCH  18  20
HETATM   20  C   UNK N   1      33.981  16.884   9.245  0.00  0.00     0.261 C 
BRANCH  20  21
HETATM   21  O   UNK N   1      33.479  15.635   8.860  0.00  0.00    -0.290 OA
BRANCH  21  22
HETATM   22  P   UNK N   1      31.829  15.917   8.393  0.00  0.00     0.391 P 
HETATM   23  O   UNK N   1      32.423  17.350   8.351  0.00  0.00    -0.632 OA
BRANCH  22  24
HETATM   24  O   UNK N   1      30.761  16.807   9.433  0.00  0.00    -0.307 OA
HETATM   25  H   UNK N   1      30.066  16.408   9.979  0.00  0.00     0.222 HD
ENDBRANCH  22  24
BRANCH  22  26
HETATM   26  O   UNK N   1      31.882  15.311  10.021  0.00  0.00    -0.307 OA
HETATM   27  H   UNK N   1      32.201  14.487  10.421  0.00  0.00     0.222 HD
ENDBRANCH  22  26
ENDBRANCH  21  22
ENDBRANCH  20  21
ENDBRANCH  18  20
ENDBRANCH  15  18
ENDBRANCH   1  15
TORSDOF 16
ENDMDL
MODEL 5
REMARK VINA RESULT:      -5.4      2.007      7.876
REMARK  16 active torsions:
REMARK  status: ('A' for Active; 'I' for Inactive)
REMARK    1  A    between atoms: C_2  and  O_1 
REMARK    2  A    between atoms: C_2  and  C_3 
REMARK    3  A    between atoms: C_2  and  C_9 
REMARK    4  A    between atoms: C_3  and  O_4 
REMARK    5  A    between atoms: O_4  and  P_5 
REMARK    6  A    between atoms: P_5  and  O_6 
REMARK    7  A    between atoms: P_5  and  O_7 
REMARK    8  A    between atoms: C_9  and  O_10 
REMARK    9  A    between atoms: C_9  and  C_11 
REMARK   10  A    between atoms: C_11  and  O_12 
REMARK   11  A    between atoms: C_11  and  C_13 
REMARK   12  A    between atoms: C_13  and  C_15 
REMARK   13  A    between atoms: C_15  and  O_16 
REMARK   14  A    between atoms: O_16  and  P_17 
REMARK   15  A    between atoms: P_17  and  O_18 
REMARK   16  A    between atoms: P_17  and  O_19 
ROOT
HETATM    1  C   UNK N   1      35.212  14.400  11.634  0.00  0.00     0.185 C 
ENDROOT
BRANCH   1   2
HETATM    2  C   UNK N   1      35.571  15.880  11.411  0.00  0.00     0.174 C 
BRANCH   2   3
HETATM    3  O   UNK N   1      36.889  16.045  10.981  0.00  0.00    -0.391 OA
HETATM    4  H   UNK N   1      37.552  15.361  11.168  0.00  0.00     0.210 HD
ENDBRANCH   2   3
BRANCH   2   5
HETATM    5  C   UNK N   1      34.657  16.526  10.370  0.00  0.00     0.215 C 
BRANCH   5   6
HETATM    6  O   UNK N   1      35.332  17.465   9.580  0.00  0.00    -0.294 OA
BRANCH   6   7
HETATM    7  P   UNK N   1      34.171  18.020   8.410  0.00  0.00     0.390 P 
HETATM    8  O   UNK N   1      35.237  19.149   8.357  0.00  0.00    -0.632 OA
BRANCH   7   9
HETATM    9  O   UNK N   1      34.591  18.066   6.727  0.00  0.00    -0.307 OA
HETATM   10  H   UNK N   1      34.149  18.688   6.128  0.00  0.00     0.222 HD
ENDBRANCH   7   9
BRANCH   7  11
HETATM   11  O   UNK N   1      34.881  16.521   7.899  0.00  0.00    -0.307 OA
HETATM   12  H   UNK N   1      35.846  16.434   7.845  0.00  0.00     0.222 HD
ENDBRANCH   7  11
ENDBRANCH   6   7
ENDBRANCH   5   6
ENDBRANCH   2   5
ENDBRANCH   1   2
BRANCH   1  13
HETATM   13  O   UNK N   1      33.864  14.233  11.305  0.00  0.00    -0.390 OA
HETATM   14  H   UNK N   1      33.404  13.389  11.431  0.00  0.00     0.210 HD
ENDBRANCH   1  13
BRANCH   1  15
HETATM   15  C   UNK N   1      35.475  13.907  13.070  0.00  0.00     0.221 C 
BRANCH  15  16
HETATM   16  O   UNK N   1      36.817  14.135  13.381  0.00  0.00    -0.385 OA
HETATM   17  H   UNK N   1      37.290  13.758  14.138  0.00  0.00     0.210 HD
ENDBRANCH  15  16
BRANCH  15  18
HETATM   18  C   UNK N   1      35.165  12.442  13.297  0.00  0.00     0.181 C 
HETATM   19  O   UNK N   1      35.279  11.627  12.395  0.00  0.00    -0.293 OA
BRANCH  18  20
HETATM   20  C   UNK N   1      34.687  11.972  14.635  0.00  0.00     0.261 C 
BRANCH  20  21
HETATM   21  O   UNK N   1      35.647  12.256  15.613  0.00  0.00    -0.290 OA
BRANCH  21  22
HETATM   22  P   UNK N   1      34.855  13.295  16.760  0.00  0.00     0.391 P 
HETATM   23  O   UNK N   1      36.172  14.068  16.483  0.00  0.00    -0.632 OA
BRANCH  22  24
HETATM   24  O   UNK N   1      35.517  13.513  18.350  0.00  0.00    -0.307 OA
HETATM   25  H   UNK N   1      36.289  13.037  18.695  0.00  0.00     0.222 HD
ENDBRANCH  22  24
BRANCH  22  26
HETATM   26  O   UNK N   1      35.223  11.769  17.507  0.00  0.00    -0.307 OA
HETATM   27  H   UNK N   1      35.805  11.500  18.235  0.00  0.00     0.222 HD
ENDBRANCH  22  26
ENDBRANCH  21  22
ENDBRANCH  20  21
ENDBRANCH  18  20
ENDBRANCH  15  18
ENDBRANCH   1  15
TORSDOF 16
ENDMDL
MODEL 6
REMARK VINA RESULT:      -5.4      3.083      4.782
REMARK  16 active torsions:
REMARK  status: ('A' for Active; 'I' for Inactive)
REMARK    1  A    between atoms: C_2  and  O_1 
REMARK    2  A    between atoms: C_2  and  C_3 
REMARK    3  A    between atoms: C_2  and  C_9 
REMARK    4  A    between atoms: C_3  and  O_4 
REMARK    5  A    between atoms: O_4  and  P_5 
REMARK    6  A    between atoms: P_5  and  O_6 
REMARK    7  A    between atoms: P_5  and  O_7 
REMARK    8  A    between atoms: C_9  and  O_10 
REMARK    9  A    between atoms: C_9  and  C_11 
REMARK   10  A    between atoms: C_11  and  O_12 
REMARK   11  A    between atoms: C_11  and  C_13 
REMARK   12  A    between atoms: C_13  and  C_15 
REMARK   13  A    between atoms: C_15  and  O_16 
REMARK   14  A    between atoms: O_16  and  P_17 
REMARK   15  A    between atoms: P_17  and  O_18 
REMARK   16  A    between atoms: P_17  and  O_19 
ROOT
HETATM    1  C   UNK N   1      32.760  17.689   7.978  0.00  0.00     0.185 C 
ENDROOT
BRANCH   1   2
HETATM    2  C   UNK N   1      34.296  17.775   8.040  0.00  0.00     0.174 C 
BRANCH   2   3
HETATM    3  O   UNK N   1      34.745  19.087   8.191  0.00  0.00    -0.391 OA
HETATM    4  H   UNK N   1      35.321  19.324   8.936  0.00  0.00     0.210 HD
ENDBRANCH   2   3
BRANCH   2   5
HETATM    5  C   UNK N   1      34.854  16.954   9.203  0.00  0.00     0.215 C 
BRANCH   5   6
HETATM    6  O   UNK N   1      34.974  15.596   8.884  0.00  0.00    -0.294 OA
BRANCH   6   7
HETATM    7  P   UNK N   1      34.630  14.733  10.353  0.00  0.00     0.390 P 
HETATM    8  O   UNK N   1      34.705  16.200  10.860  0.00  0.00    -0.632 OA
BRANCH   7   9
HETATM    9  O   UNK N   1      33.098  14.941  11.142  0.00  0.00    -0.307 OA
HETATM   10  H   UNK N   1      32.881  15.779  11.579  0.00  0.00     0.222 HD
ENDBRANCH   7   9
BRANCH   7  11
HETATM   11  O   UNK N   1      33.318  14.569   9.230  0.00  0.00    -0.307 OA
HETATM   12  H   UNK N   1      32.468  14.204   9.524  0.00  0.00     0.222 HD
ENDBRANCH   7  11
ENDBRANCH   6   7
ENDBRANCH   5   6
ENDBRANCH   2   5
ENDBRANCH   1   2
BRANCH   1  13
HETATM   13  O   UNK N   1      32.296  17.384   9.260  0.00  0.00    -0.390 OA
HETATM   14  H   UNK N   1      32.617  16.613   9.754  0.00  0.00     0.210 HD
ENDBRANCH   1  13
BRANCH   1  15
HETATM   15  C   UNK N   1      32.237  16.655   6.961  0.00  0.00     0.221 C 
BRANCH  15  16
HETATM   16  O   UNK N   1      33.329  16.076   6.313  0.00  0.00    -0.385 OA
HETATM   17  H   UNK N   1      33.780  15.263   6.589  0.00  0.00     0.210 HD
ENDBRANCH  15  16
BRANCH  15  18
HETATM   18  C   UNK N   1      31.296  17.221   5.919  0.00  0.00     0.181 C 
HETATM   19  O   UNK N   1      31.705  17.564   4.820  0.00  0.00    -0.293 OA
BRANCH  18  20
HETATM   20  C   UNK N   1      29.842  17.390   6.230  0.00  0.00     0.261 C 
BRANCH  20  21
HETATM   21  O   UNK N   1      29.600  17.080   7.573  0.00  0.00    -0.290 OA
BRANCH  21  22
HETATM   22  P   UNK N   1      28.695  18.422   8.208  0.00  0.00     0.391 P 
HETATM   23  O   UNK N   1      29.502  17.962   9.451  0.00  0.00    -0.632 OA
BRANCH  22  24
HETATM   24  O   UNK N   1      27.457  18.161   9.397  0.00  0.00    -0.307 OA
HETATM   25  H   UNK N   1      26.593  17.761   9.213  0.00  0.00     0.222 HD
ENDBRANCH  22  24
BRANCH  22  26
HETATM   26  O   UNK N   1      27.606  17.158   7.721  0.00  0.00    -0.307 OA
HETATM   27  H   UNK N   1      27.007  16.565   8.201  0.00  0.00     0.222 HD
ENDBRANCH  22  26
ENDBRANCH  21  22
ENDBRANCH  20  21
ENDBRANCH  18  20
ENDBRANCH  15  18
ENDBRANCH   1  15
TORSDOF 16
ENDMDL
MODEL 7
REMARK VINA RESULT:      -5.4      1.394      7.317
REMARK  16 active torsions:
REMARK  status: ('A' for Active; 'I' for Inactive)
REMARK    1  A    between atoms: C_2  and  O_1 
REMARK    2  A    between atoms: C_2  and  C_3 
REMARK    3  A    between atoms: C_2  and  C_9 
REMARK    4  A    between atoms: C_3  and  O_4 
REMARK    5  A    between atoms: O_4  and  P_5 
REMARK    6  A    between atoms: P_5  and  O_6 
REMARK    7  A    between atoms: P_5  and  O_7 
REMARK    8  A    between atoms: C_9  and  O_10 
REMARK    9  A    between atoms: C_9  and  C_11 
REMARK   10  A    between atoms: C_11  and  O_12 
REMARK   11  A    between atoms: C_11  and  C_13 
REMARK   12  A    between atoms: C_13  and  C_15 
REMARK   13  A    between atoms: C_15  and  O_16 
REMARK   14  A    between atoms: O_16  and  P_17 
REMARK   15  A    between atoms: P_17  and  O_18 
REMARK   16  A    between atoms: P_17  and  O_19 
ROOT
HETATM    1  C   UNK N   1      35.860  15.547  11.204  0.00  0.00     0.185 C 
ENDROOT
BRANCH   1   2
HETATM    2  C   UNK N   1      34.948  16.608  10.562  0.00  0.00     0.174 C 
BRANCH   2   3
HETATM    3  O   UNK N   1      35.654  17.749  10.178  0.00  0.00    -0.391 OA
HETATM    4  H   UNK N   1      35.185  18.507   9.794  0.00  0.00     0.210 HD
ENDBRANCH   2   3
BRANCH   2   5
HETATM    5  C   UNK N   1      34.240  16.058   9.324  0.00  0.00     0.215 C 
BRANCH   5   6
HETATM    6  O   UNK N   1      33.676  17.073   8.540  0.00  0.00    -0.294 OA
BRANCH   6   7
HETATM    7  P   UNK N   1      34.167  16.738   6.907  0.00  0.00     0.390 P 
HETATM    8  O   UNK N   1      32.620  16.781   6.768  0.00  0.00    -0.632 OA
BRANCH   7   9
HETATM    9  O   UNK N   1      33.931  17.930   5.668  0.00  0.00    -0.307 OA
HETATM   10  H   UNK N   1      34.645  18.544   5.436  0.00  0.00     0.222 HD
ENDBRANCH   7   9
BRANCH   7  11
HETATM   11  O   UNK N   1      34.753  18.292   7.411  0.00  0.00    -0.307 OA
HETATM   12  H   UNK N   1      35.447  18.354   8.086  0.00  0.00     0.222 HD
ENDBRANCH   7  11
ENDBRANCH   6   7
ENDBRANCH   5   6
ENDBRANCH   2   5
ENDBRANCH   1   2
BRANCH   1  13
HETATM   13  O   UNK N   1      37.100  15.603  10.563  0.00  0.00    -0.390 OA
HETATM   14  H   UNK N   1      37.313  16.292   9.914  0.00  0.00     0.210 HD
ENDBRANCH   1  13
BRANCH   1  15
HETATM   15  C   UNK N   1      35.290  14.116  11.139  0.00  0.00     0.221 C 
BRANCH  15  16
HETATM   16  O   UNK N   1      34.282  13.993  12.097  0.00  0.00    -0.385 OA
HETATM   17  H   UNK N   1      33.981  14.700  12.688  0.00  0.00     0.210 HD
ENDBRANCH  15  16
BRANCH  15  18
HETATM   18  C   UNK N   1      36.313  13.023  11.366  0.00  0.00     0.181 C 
HETATM   19  O   UNK N   1      36.990  12.591  10.445  0.00  0.00    -0.293 OA
BRANCH  18  20
HETATM   20  C   UNK N   1      36.495  12.433  12.729  0.00  0.00     0.261 C 
BRANCH  20  21
HETATM   21  O   UNK N   1      36.780  13.444  13.654  0.00  0.00    -0.290 OA
BRANCH  21  22
HETATM   22  P   UNK N   1      36.397  12.776  15.213  0.00  0.00     0.391 P 
HETATM   23  O   UNK N   1      35.017  13.310  14.745  0.00  0.00    -0.632 OA
BRANCH  22  24
HETATM   24  O   UNK N   1      35.923  13.814  16.521  0.00  0.00    -0.307 OA
HETATM   25  H   UNK N   1      35.009  13.943  16.818  0.00  0.00     0.222 HD
ENDBRANCH  22  24
BRANCH  22  26
HETATM   26  O   UNK N   1      37.503  14.103  15.400  0.00  0.00    -0.307 OA
HETATM   27  H   UNK N   1      38.226  14.457  14.859  0.00  0.00     0.222 HD
ENDBRANCH  22  26
ENDBRANCH  21  22
ENDBRANCH  20  21
ENDBRANCH  18  20
ENDBRANCH  15  18
ENDBRANCH   1  15
TORSDOF 16
ENDMDL
MODEL 8
REMARK VINA RESULT:      -5.4      1.703      2.798
REMARK  16 active torsions:
REMARK  status: ('A' for Active; 'I' for Inactive)
REMARK    1  A    between atoms: C_2  and  O_1 
REMARK    2  A    between atoms: C_2  and  C_3 
REMARK    3  A    between atoms: C_2  and  C_9 
REMARK    4  A    between atoms: C_3  and  O_4 
REMARK    5  A    between atoms: O_4  and  P_5 
REMARK    6  A    between atoms: P_5  and  O_6 
REMARK    7  A    between atoms: P_5  and  O_7 
REMARK    8  A    between atoms: C_9  and  O_10 
REMARK    9  A    between atoms: C_9  and  C_11 
REMARK   10  A    between atoms: C_11  and  O_12 
REMARK   11  A    between atoms: C_11  and  C_13 
REMARK   12  A    between atoms: C_13  and  C_15 
REMARK   13  A    between atoms: C_15  and  O_16 
REMARK   14  A    between atoms: O_16  and  P_17 
REMARK   15  A    between atoms: P_17  and  O_18 
REMARK   16  A    between atoms: P_17  and  O_19 
ROOT
HETATM    1  C   UNK N   1      35.362  13.780  11.885  0.00  0.00     0.185 C 
ENDROOT
BRANCH   1   2
HETATM    2  C   UNK N   1      36.273  13.728  13.125  0.00  0.00     0.174 C 
BRANCH   2   3
HETATM    3  O   UNK N   1      36.739  14.992  13.491  0.00  0.00    -0.391 OA
HETATM    4  H   UNK N   1      36.113  15.722  13.629  0.00  0.00     0.210 HD
ENDBRANCH   2   3
BRANCH   2   5
HETATM    5  C   UNK N   1      35.543  13.134  14.329  0.00  0.00     0.215 C 
BRANCH   5   6
HETATM    6  O   UNK N   1      36.055  13.602  15.546  0.00  0.00    -0.294 OA
BRANCH   6   7
HETATM    7  P   UNK N   1      35.207  12.727  16.785  0.00  0.00     0.390 P 
HETATM    8  O   UNK N   1      34.081  12.968  15.742  0.00  0.00    -0.632 OA
BRANCH   7   9
HETATM    9  O   UNK N   1      34.631  11.120  16.472  0.00  0.00    -0.307 OA
HETATM   10  H   UNK N   1      35.137  10.350  16.776  0.00  0.00     0.222 HD
ENDBRANCH   7   9
BRANCH   7  11
HETATM   11  O   UNK N   1      36.450  11.739  16.086  0.00  0.00    -0.307 OA
HETATM   12  H   UNK N   1      36.236  11.123  15.368  0.00  0.00     0.222 HD
ENDBRANCH   7  11
ENDBRANCH   6   7
ENDBRANCH   5   6
ENDBRANCH   2   5
ENDBRANCH   1   2
BRANCH   1  13
HETATM   13  O   UNK N   1      36.097  13.311  10.794  0.00  0.00    -0.390 OA
HETATM   14  H   UNK N   1      35.815  13.463   9.879  0.00  0.00     0.210 HD
ENDBRANCH   1  13
BRANCH   1  15
HETATM   15  C   UNK N   1      34.799  15.183  11.586  0.00  0.00     0.221 C 
BRANCH  15  16
HETATM   16  O   UNK N   1      33.476  15.051  11.158  0.00  0.00    -0.385 OA
HETATM   17  H   UNK N   1      33.191  14.615  10.341  0.00  0.00     0.210 HD
ENDBRANCH  15  16
BRANCH  15  18
HETATM   18  C   UNK N   1      35.573  15.960  10.541  0.00  0.00     0.181 C 
HETATM   19  O   UNK N   1      36.744  16.259  10.718  0.00  0.00    -0.293 OA
BRANCH  18  20
HETATM   20  C   UNK N   1      34.902  16.395   9.277  0.00  0.00     0.261 C 
BRANCH  20  21
HETATM   21  O   UNK N   1      34.166  17.564   9.502  0.00  0.00    -0.290 OA
BRANCH  21  22
HETATM   22  P   UNK N   1      33.468  17.982   7.966  0.00  0.00     0.391 P 
HETATM   23  O   UNK N   1      33.853  16.495   7.749  0.00  0.00    -0.632 OA
BRANCH  22  24
HETATM   24  O   UNK N   1      34.457  18.044   6.540  0.00  0.00    -0.307 OA
HETATM   25  H   UNK N   1      35.314  18.494   6.484  0.00  0.00     0.222 HD
ENDBRANCH  22  24
BRANCH  22  26
HETATM   26  O   UNK N   1      34.905  18.922   8.233  0.00  0.00    -0.307 OA
HETATM   27  H   UNK N   1      35.320  19.307   9.021  0.00  0.00     0.222 HD
ENDBRANCH  22  26
ENDBRANCH  21  22
ENDBRANCH  20  21
ENDBRANCH  18  20
ENDBRANCH  15  18
ENDBRANCH   1  15
TORSDOF 16
ENDMDL
MODEL 9
REMARK VINA RESULT:      -5.3      1.657      3.037
REMARK  16 active torsions:
REMARK  status: ('A' for Active; 'I' for Inactive)
REMARK    1  A    between atoms: C_2  and  O_1 
REMARK    2  A    between atoms: C_2  and  C_3 
REMARK    3  A    between atoms: C_2  and  C_9 
REMARK    4  A    between atoms: C_3  and  O_4 
REMARK    5  A    between atoms: O_4  and  P_5 
REMARK    6  A    between atoms: P_5  and  O_6 
REMARK    7  A    between atoms: P_5  and  O_7 
REMARK    8  A    between atoms: C_9  and  O_10 
REMARK    9  A    between atoms: C_9  and  C_11 
REMARK   10  A    between atoms: C_11  and  O_12 
REMARK   11  A    between atoms: C_11  and  C_13 
REMARK   12  A    between atoms: C_13  and  C_15 
REMARK   13  A    between atoms: C_15  and  O_16 
REMARK   14  A    between atoms: O_16  and  P_17 
REMARK   15  A    between atoms: P_17  and  O_18 
REMARK   16  A    between atoms: P_17  and  O_19 
ROOT
HETATM    1  C   UNK N   1      36.587  13.682  11.209  0.00  0.00     0.185 C 
ENDROOT
BRANCH   1   2
HETATM    2  C   UNK N   1      35.669  14.109  12.368  0.00  0.00     0.174 C 
BRANCH   2   3
HETATM    3  O   UNK N   1      34.317  13.995  12.040  0.00  0.00    -0.391 OA
HETATM    4  H   UNK N   1      33.886  14.675  11.498  0.00  0.00     0.210 HD
ENDBRANCH   2   3
BRANCH   2   5
HETATM    5  C   UNK N   1      35.919  13.266  13.618  0.00  0.00     0.215 C 
BRANCH   5   6
HETATM    6  O   UNK N   1      34.905  13.417  14.572  0.00  0.00    -0.294 OA
BRANCH   6   7
HETATM    7  P   UNK N   1      35.546  12.764  16.050  0.00  0.00     0.390 P 
HETATM    8  O   UNK N   1      36.477  13.985  15.815  0.00  0.00    -0.632 OA
BRANCH   7   9
HETATM    9  O   UNK N   1      35.385  13.653  17.532  0.00  0.00    -0.307 OA
HETATM   10  H   UNK N   1      34.657  14.283  17.649  0.00  0.00     0.222 HD
ENDBRANCH   7   9
BRANCH   7  11
HETATM   11  O   UNK N   1      33.915  13.308  16.283  0.00  0.00    -0.307 OA
HETATM   12  H   UNK N   1      33.287  13.295  15.542  0.00  0.00     0.222 HD
ENDBRANCH   7  11
ENDBRANCH   6   7
ENDBRANCH   5   6
ENDBRANCH   2   5
ENDBRANCH   1   2
BRANCH   1  13
HETATM   13  O   UNK N   1      37.800  13.257  11.758  0.00  0.00    -0.390 OA
HETATM   14  H   UNK N   1      38.653  13.474  11.352  0.00  0.00     0.210 HD
ENDBRANCH   1  13
BRANCH   1  15
HETATM   15  C   UNK N   1      36.833  14.794  10.169  0.00  0.00     0.221 C 
BRANCH  15  16
HETATM   16  O   UNK N   1      37.010  16.004  10.844  0.00  0.00    -0.385 OA
HETATM   17  H   UNK N   1      37.273  16.842  10.434  0.00  0.00     0.210 HD
ENDBRANCH  15  16
BRANCH  15  18
HETATM   18  C   UNK N   1      35.722  14.960   9.154  0.00  0.00     0.181 C 
HETATM   19  O   UNK N   1      35.625  14.208   8.197  0.00  0.00    -0.293 OA
BRANCH  18  20
HETATM   20  C   UNK N   1      34.731  16.073   9.298  0.00  0.00     0.261 C 
BRANCH  20  21
HETATM   21  O   UNK N   1      34.151  16.361   8.057  0.00  0.00    -0.290 OA
BRANCH  21  22
HETATM   22  P   UNK N   1      33.791  18.061   8.092  0.00  0.00     0.391 P 
HETATM   23  O   UNK N   1      34.654  17.942   6.807  0.00  0.00    -0.632 OA
BRANCH  22  24
HETATM   24  O   UNK N   1      35.054  19.220   8.367  0.00  0.00    -0.307 OA
HETATM   25  H   UNK N   1      35.386  19.475   9.241  0.00  0.00     0.222 HD
ENDBRANCH  22  24
BRANCH  22  26
HETATM   26  O   UNK N   1      34.749  17.636   9.478  0.00  0.00    -0.307 OA
HETATM   27  H   UNK N   1      35.332  18.136  10.071  0.00  0.00     0.222 HD
ENDBRANCH  22  26
ENDBRANCH  21  22
ENDBRANCH  20  21
ENDBRANCH  18  20
ENDBRANCH  15  18
ENDBRANCH   1  15
TORSDOF 16
ENDMDL
