MODEL 1
REMARK VINA RESULT:      -5.2      0.000      0.000
REMARK  6 active torsions:
REMARK  status: ('A' for Active; 'I' for Inactive)
REMARK    1  A    between atoms: C_2  and  N_1 
REMARK    2  A    between atoms: C_3  and  O_4 
REMARK    3  A    between atoms: C_6  and  C_7 
REMARK    4  A    between atoms: C_7  and  O_8 
REMARK    5  A    between atoms: C_9  and  O_10 
REMARK    6  A    between atoms: C_11  and  O_12 
ROOT
HETATM    1  C   UNK N   1      20.957  19.922   1.623  0.00  0.00     0.161 C 
HETATM    2  C   UNK N   1      21.219  20.701   2.917  0.00  0.00     0.282 C 
HETATM    3  O   UNK N   1      21.829  19.845   3.853  0.00  0.00    -0.349 OA
HETATM    4  C   UNK N   1      20.849  18.926   4.281  0.00  0.00     0.179 C 
HETATM    5  C   UNK N   1      20.512  17.966   3.130  0.00  0.00     0.180 C 
HETATM    6  C   UNK N   1      19.991  18.785   1.948  0.00  0.00     0.176 C 
ENDROOT
BRANCH   1   7
HETATM    7  N   UNK N   1      20.372  20.793   0.617  0.00  0.00    -0.420 N 
HETATM    8  H   UNK N   1      19.538  20.582   0.069  0.00  0.00     0.150 HD
HETATM    9  H   UNK N   1      20.833  21.685   0.445  0.00  0.00     0.150 HD
ENDBRANCH   1   7
BRANCH   2  10
HETATM   10  O   UNK N   1      22.063  21.784   2.667  0.00  0.00    -0.369 OA
HETATM   11  H   UNK N   1      22.975  21.810   2.996  0.00  0.00     0.212 HD
ENDBRANCH   2  10
BRANCH   6  12
HETATM   12  O   UNK N   1      19.813  17.963   0.834  0.00  0.00    -0.391 OA
HETATM   13  H   UNK N   1      20.104  17.040   0.774  0.00  0.00     0.210 HD
ENDBRANCH   6  12
BRANCH   5  14
HETATM   14  O   UNK N   1      19.535  17.050   3.529  0.00  0.00    -0.390 OA
HETATM   15  H   UNK N   1      19.490  16.614   4.393  0.00  0.00     0.210 HD
ENDBRANCH   5  14
BRANCH   4  16
HETATM   16  C   UNK N   1      21.385  18.143   5.470  0.00  0.00     0.198 C 
BRANCH  16  17
HETATM   17  O   UNK N   1      21.095  18.814   6.658  0.00  0.00    -0.398 OA
HETATM   18  H   UNK N   1      20.248  19.257   6.823  0.00  0.00     0.209 HD
ENDBRANCH  16  17
ENDBRANCH   4  16
TORSDOF 6
ENDMDL
MODEL 2
REMARK VINA RESULT:      -5.1     14.399     15.779
REMARK  6 active torsions:
REMARK  status: ('A' for Active; 'I' for Inactive)
REMARK    1  A    between atoms: C_2  and  N_1 
REMARK    2  A    between atoms: C_3  and  O_4 
REMARK    3  A    between atoms: C_6  and  C_7 
REMARK    4  A    between atoms: C_7  and  O_8 
REMARK    5  A    between atoms: C_9  and  O_10 
REMARK    6  A    between atoms: C_11  and  O_12 
ROOT
HETATM    1  C   UNK N   1      34.439  15.364  10.932  0.00  0.00     0.161 C 
HETATM    2  C   UNK N   1      35.711  15.955  10.314  0.00  0.00     0.282 C 
HETATM    3  O   UNK N   1      35.439  17.261   9.864  0.00  0.00    -0.349 OA
HETATM    4  C   UNK N   1      34.611  17.147   8.728  0.00  0.00     0.179 C 
HETATM    5  C   UNK N   1      33.221  16.652   9.156  0.00  0.00     0.180 C 
HETATM    6  C   UNK N   1      33.377  15.292   9.837  0.00  0.00     0.176 C 
ENDROOT
BRANCH   1   7
HETATM    7  N   UNK N   1      34.701  14.032  11.452  0.00  0.00    -0.420 N 
HETATM    8  H   UNK N   1      35.027  13.822  12.396  0.00  0.00     0.150 HD
HETATM    9  H   UNK N   1      34.547  13.245  10.823  0.00  0.00     0.150 HD
ENDBRANCH   1   7
BRANCH   2  10
HETATM   10  O   UNK N   1      36.733  16.001  11.263  0.00  0.00    -0.369 OA
HETATM   11  H   UNK N   1      37.063  15.200  11.700  0.00  0.00     0.212 HD
ENDBRANCH   2  10
BRANCH   6  12
HETATM   12  O   UNK N   1      32.155  14.878  10.370  0.00  0.00    -0.391 OA
HETATM   13  H   UNK N   1      31.390  15.455  10.515  0.00  0.00     0.210 HD
ENDBRANCH   6  12
BRANCH   5  14
HETATM   14  O   UNK N   1      32.385  16.524   8.044  0.00  0.00    -0.390 OA
HETATM   15  H   UNK N   1      31.420  16.619   8.050  0.00  0.00     0.210 HD
ENDBRANCH   5  14
BRANCH   4  16
HETATM   16  C   UNK N   1      34.493  18.509   8.059  0.00  0.00     0.198 C 
BRANCH  16  17
HETATM   17  O   UNK N   1      35.420  19.395   8.608  0.00  0.00    -0.398 OA
HETATM   18  H   UNK N   1      35.636  20.252   8.208  0.00  0.00     0.209 HD
ENDBRANCH  16  17
ENDBRANCH   4  16
TORSDOF 6
ENDMDL
MODEL 3
REMARK VINA RESULT:      -5.0     16.226     17.716
REMARK  6 active torsions:
REMARK  status: ('A' for Active; 'I' for Inactive)
REMARK    1  A    between atoms: C_2  and  N_1 
REMARK    2  A    between atoms: C_3  and  O_4 
REMARK    3  A    between atoms: C_6  and  C_7 
REMARK    4  A    between atoms: C_7  and  O_8 
REMARK    5  A    between atoms: C_9  and  O_10 
REMARK    6  A    between atoms: C_11  and  O_12 
ROOT
HETATM    1  C   UNK N   1      36.571  13.768  11.660  0.00  0.00     0.161 C 
HETATM    2  C   UNK N   1      37.044  14.332  10.316  0.00  0.00     0.282 C 
HETATM    3  O   UNK N   1      36.556  15.645  10.172  0.00  0.00    -0.349 OA
HETATM    4  C   UNK N   1      35.166  15.553   9.955  0.00  0.00     0.179 C 
HETATM    5  C   UNK N   1      34.477  15.088  11.248  0.00  0.00     0.180 C 
HETATM    6  C   UNK N   1      35.044  13.723  11.638  0.00  0.00     0.176 C 
ENDROOT
BRANCH   1   7
HETATM    7  N   UNK N   1      37.100  12.430  11.862  0.00  0.00    -0.420 N 
HETATM    8  H   UNK N   1      37.253  11.987  12.768  0.00  0.00     0.150 HD
HETATM    9  H   UNK N   1      37.338  11.890  11.031  0.00  0.00     0.150 HD
ENDBRANCH   1   7
BRANCH   2  10
HETATM   10  O   UNK N   1      38.438  14.353  10.264  0.00  0.00    -0.369 OA
HETATM   11  H   UNK N   1      38.943  15.177  10.349  0.00  0.00     0.212 HD
ENDBRANCH   2  10
BRANCH   6  12
HETATM   12  O   UNK N   1      34.550  13.335  12.885  0.00  0.00    -0.391 OA
HETATM   13  H   UNK N   1      35.090  13.215  13.681  0.00  0.00     0.210 HD
ENDBRANCH   6  12
BRANCH   5  14
HETATM   14  O   UNK N   1      33.098  14.982  11.054  0.00  0.00    -0.390 OA
HETATM   15  H   UNK N   1      32.559  15.568  10.502  0.00  0.00     0.210 HD
ENDBRANCH   5  14
BRANCH   4  16
HETATM   16  C   UNK N   1      34.634  16.919   9.547  0.00  0.00     0.198 C 
BRANCH  16  17
HETATM   17  O   UNK N   1      35.535  17.917   9.920  0.00  0.00    -0.398 OA
HETATM   18  H   UNK N   1      35.535  18.329  10.798  0.00  0.00     0.209 HD
ENDBRANCH  16  17
ENDBRANCH   4  16
TORSDOF 6
ENDMDL
MODEL 4
REMARK VINA RESULT:      -4.8     22.480     23.421
REMARK  6 active torsions:
REMARK  status: ('A' for Active; 'I' for Inactive)
REMARK    1  A    between atoms: C_2  and  N_1 
REMARK    2  A    between atoms: C_3  and  O_4 
REMARK    3  A    between atoms: C_6  and  C_7 
REMARK    4  A    between atoms: C_7  and  O_8 
REMARK    5  A    between atoms: C_9  and  O_10 
REMARK    6  A    between atoms: C_11  and  O_12 
ROOT
HETATM    1  C   UNK N   1      42.451  22.648   2.667  0.00  0.00     0.161 C 
HETATM    2  C   UNK N   1      42.760  21.544   1.650  0.00  0.00     0.282 C 
HETATM    3  O   UNK N   1      43.313  20.439   2.325  0.00  0.00    -0.349 OA
HETATM    4  C   UNK N   1      44.611  20.806   2.733  0.00  0.00     0.179 C 
HETATM    5  C   UNK N   1      44.518  21.858   3.849  0.00  0.00     0.180 C 
HETATM    6  C   UNK N   1      43.769  23.076   3.308  0.00  0.00     0.176 C 
ENDROOT
BRANCH   1   7
HETATM    7  N   UNK N   1      41.832  23.786   2.007  0.00  0.00    -0.420 N 
HETATM    8  H   UNK N   1      42.002  24.765   2.237  0.00  0.00     0.150 HD
HETATM    9  H   UNK N   1      41.174  23.589   1.254  0.00  0.00     0.150 HD
ENDBRANCH   1   7
BRANCH   2  10
HETATM   10  O   UNK N   1      41.592  21.146   0.998  0.00  0.00    -0.369 OA
HETATM   11  H   UNK N   1      41.592  20.448   0.325  0.00  0.00     0.212 HD
ENDBRANCH   2  10
BRANCH   6  12
HETATM   12  O   UNK N   1      43.536  23.993   4.335  0.00  0.00    -0.391 OA
HETATM   13  H   UNK N   1      43.310  24.926   4.204  0.00  0.00     0.210 HD
ENDBRANCH   6  12
BRANCH   5  14
HETATM   14  O   UNK N   1      45.796  22.243   4.264  0.00  0.00    -0.390 OA
HETATM   15  H   UNK N   1      46.627  22.005   3.826  0.00  0.00     0.210 HD
ENDBRANCH   5  14
BRANCH   4  16
HETATM   16  C   UNK N   1      45.340  19.571   3.244  0.00  0.00     0.198 C 
BRANCH  16  17
HETATM   17  O   UNK N   1      46.706  19.834   3.359  0.00  0.00    -0.398 OA
HETATM   18  H   UNK N   1      47.385  19.318   2.897  0.00  0.00     0.209 HD
ENDBRANCH  16  17
ENDBRANCH   4  16
TORSDOF 6
ENDMDL
MODEL 5
REMARK VINA RESULT:      -4.8     21.660     22.520
REMARK  6 active torsions:
REMARK  status: ('A' for Active; 'I' for Inactive)
REMARK    1  A    between atoms: C_2  and  N_1 
REMARK    2  A    between atoms: C_3  and  O_4 
REMARK    3  A    between atoms: C_6  and  C_7 
REMARK    4  A    between atoms: C_7  and  O_8 
REMARK    5  A    between atoms: C_9  and  O_10 
REMARK    6  A    between atoms: C_11  and  O_12 
ROOT
HETATM    1  C   UNK N   1      44.219  23.177   2.682  0.00  0.00     0.161 C 
HETATM    2  C   UNK N   1      44.386  22.206   3.857  0.00  0.00     0.282 C 
HETATM    3  O   UNK N   1      43.834  20.960   3.504  0.00  0.00    -0.349 OA
HETATM    4  C   UNK N   1      42.433  21.117   3.477  0.00  0.00     0.179 C 
HETATM    5  C   UNK N   1      42.041  21.999   2.281  0.00  0.00     0.180 C 
HETATM    6  C   UNK N   1      42.723  23.358   2.434  0.00  0.00     0.176 C 
ENDROOT
BRANCH   1   7
HETATM    7  N   UNK N   1      44.825  24.460   2.996  0.00  0.00    -0.420 N 
HETATM    8  H   UNK N   1      45.799  24.710   2.823  0.00  0.00     0.150 HD
HETATM    9  H   UNK N   1      44.229  25.167   3.425  0.00  0.00     0.150 HD
ENDBRANCH   1   7
BRANCH   2  10
HETATM   10  O   UNK N   1      45.739  22.040   4.157  0.00  0.00    -0.369 OA
HETATM   11  H   UNK N   1      46.083  22.160   5.056  0.00  0.00     0.212 HD
ENDBRANCH   2  10
BRANCH   6  12
HETATM   12  O   UNK N   1      42.509  24.135   1.294  0.00  0.00    -0.391 OA
HETATM   13  H   UNK N   1      42.776  23.885   0.396  0.00  0.00     0.210 HD
ENDBRANCH   6  12
BRANCH   5  14
HETATM   14  O   UNK N   1      40.655  22.175   2.239  0.00  0.00    -0.390 OA
HETATM   15  H   UNK N   1      40.048  22.050   2.984  0.00  0.00     0.210 HD
ENDBRANCH   5  14
BRANCH   4  16
HETATM   16  C   UNK N   1      41.780  19.748   3.348  0.00  0.00     0.198 C 
BRANCH  16  17
HETATM   17  O   UNK N   1      40.580  19.720   4.058  0.00  0.00    -0.398 OA
HETATM   18  H   UNK N   1      39.984  20.482   4.122  0.00  0.00     0.209 HD
ENDBRANCH  16  17
ENDBRANCH   4  16
TORSDOF 6
ENDMDL
MODEL 6
REMARK VINA RESULT:      -4.8      2.215      3.588
REMARK  6 active torsions:
REMARK  status: ('A' for Active; 'I' for Inactive)
REMARK    1  A    between atoms: C_2  and  N_1 
REMARK    2  A    between atoms: C_3  and  O_4 
REMARK    3  A    between atoms: C_6  and  C_7 
REMARK    4  A    between atoms: C_7  and  O_8 
REMARK    5  A    between atoms: C_9  and  O_10 
REMARK    6  A    between atoms: C_11  and  O_12 
ROOT
HETATM    1  C   UNK N   1      19.856  17.674   3.859  0.00  0.00     0.161 C 
HETATM    2  C   UNK N   1      21.370  17.524   4.048  0.00  0.00     0.282 C 
HETATM    3  O   UNK N   1      21.954  18.803   4.109  0.00  0.00    -0.349 OA
HETATM    4  C   UNK N   1      21.894  19.353   2.813  0.00  0.00     0.179 C 
HETATM    5  C   UNK N   1      20.433  19.677   2.462  0.00  0.00     0.180 C 
HETATM    6  C   UNK N   1      19.618  18.385   2.528  0.00  0.00     0.176 C 
ENDROOT
BRANCH   1   7
HETATM    7  N   UNK N   1      19.215  16.370   3.842  0.00  0.00    -0.420 N 
HETATM    8  H   UNK N   1      18.662  15.975   4.602  0.00  0.00     0.150 HD
HETATM    9  H   UNK N   1      19.329  15.804   3.002  0.00  0.00     0.150 HD
ENDBRANCH   1   7
BRANCH   2  10
HETATM   10  O   UNK N   1      21.643  16.837   5.231  0.00  0.00    -0.369 OA
HETATM   11  H   UNK N   1      21.840  15.887   5.239  0.00  0.00     0.212 HD
ENDBRANCH   2  10
BRANCH   6  12
HETATM   12  O   UNK N   1      18.261  18.664   2.360  0.00  0.00    -0.391 OA
HETATM   13  H   UNK N   1      17.591  18.016   2.093  0.00  0.00     0.210 HD
ENDBRANCH   6  12
BRANCH   5  14
HETATM   14  O   UNK N   1      20.349  20.216   1.176  0.00  0.00    -0.390 OA
HETATM   15  H   UNK N   1      20.727  19.825   0.374  0.00  0.00     0.210 HD
ENDBRANCH   5  14
BRANCH   4  16
HETATM   16  C   UNK N   1      22.731  20.623   2.770  0.00  0.00     0.198 C 
BRANCH  16  17
HETATM   17  O   UNK N   1      21.904  21.745   2.818  0.00  0.00    -0.398 OA
HETATM   18  H   UNK N   1      22.104  22.572   2.352  0.00  0.00     0.209 HD
ENDBRANCH  16  17
ENDBRANCH   4  16
TORSDOF 6
ENDMDL
MODEL 7
REMARK VINA RESULT:      -4.8      2.268      4.344
REMARK  6 active torsions:
REMARK  status: ('A' for Active; 'I' for Inactive)
REMARK    1  A    between atoms: C_2  and  N_1 
REMARK    2  A    between atoms: C_3  and  O_4 
REMARK    3  A    between atoms: C_6  and  C_7 
REMARK    4  A    between atoms: C_7  and  O_8 
REMARK    5  A    between atoms: C_9  and  O_10 
REMARK    6  A    between atoms: C_11  and  O_12 
ROOT
HETATM    1  C   UNK N   1      20.440  16.779   2.504  0.00  0.00     0.161 C 
HETATM    2  C   UNK N   1      19.913  17.361   1.187  0.00  0.00     0.282 C 
HETATM    3  O   UNK N   1      20.677  18.493   0.848  0.00  0.00    -0.349 OA
HETATM    4  C   UNK N   1      20.333  19.517   1.755  0.00  0.00     0.179 C 
HETATM    5  C   UNK N   1      20.872  19.164   3.150  0.00  0.00     0.180 C 
HETATM    6  C   UNK N   1      20.255  17.837   3.590  0.00  0.00     0.176 C 
ENDROOT
BRANCH   1   7
HETATM    7  N   UNK N   1      19.703  15.577   2.857  0.00  0.00    -0.420 N 
HETATM    8  H   UNK N   1      19.664  14.724   2.298  0.00  0.00     0.150 HD
HETATM    9  H   UNK N   1      19.182  15.587   3.733  0.00  0.00     0.150 HD
ENDBRANCH   1   7
BRANCH   2  10
HETATM   10  O   UNK N   1      20.016  16.415   0.166  0.00  0.00    -0.369 OA
HETATM   11  H   UNK N   1      20.584  16.556  -0.608  0.00  0.00     0.212 HD
ENDBRANCH   2  10
BRANCH   6  12
HETATM   12  O   UNK N   1      20.832  17.411   4.788  0.00  0.00    -0.391 OA
HETATM   13  H   UNK N   1      20.810  16.500   5.120  0.00  0.00     0.210 HD
ENDBRANCH   6  12
BRANCH   5  14
HETATM   14  O   UNK N   1      20.536  20.162   4.069  0.00  0.00    -0.390 OA
HETATM   15  H   UNK N   1      20.243  20.013   4.981  0.00  0.00     0.210 HD
ENDBRANCH   5  14
BRANCH   4  16
HETATM   16  C   UNK N   1      20.941  20.828   1.280  0.00  0.00     0.198 C 
BRANCH  16  17
HETATM   17  O   UNK N   1      20.784  20.959  -0.100  0.00  0.00    -0.398 OA
HETATM   18  H   UNK N   1      20.116  21.534  -0.505  0.00  0.00     0.209 HD
ENDBRANCH  16  17
ENDBRANCH   4  16
TORSDOF 6
ENDMDL
MODEL 8
REMARK VINA RESULT:      -4.8      2.365      3.847
REMARK  6 active torsions:
REMARK  status: ('A' for Active; 'I' for Inactive)
REMARK    1  A    between atoms: C_2  and  N_1 
REMARK    2  A    between atoms: C_3  and  O_4 
REMARK    3  A    between atoms: C_6  and  C_7 
REMARK    4  A    between atoms: C_7  and  O_8 
REMARK    5  A    between atoms: C_9  and  O_10 
REMARK    6  A    between atoms: C_11  and  O_12 
ROOT
HETATM    1  C   UNK N   1      21.037  17.598   4.700  0.00  0.00     0.161 C 
HETATM    2  C   UNK N   1      22.227  18.282   4.018  0.00  0.00     0.282 C 
HETATM    3  O   UNK N   1      21.791  19.487   3.435  0.00  0.00    -0.349 OA
HETATM    4  C   UNK N   1      20.995  19.150   2.321  0.00  0.00     0.179 C 
HETATM    5  C   UNK N   1      19.677  18.526   2.805  0.00  0.00     0.180 C 
HETATM    6  C   UNK N   1      20.002  17.275   3.623  0.00  0.00     0.176 C 
ENDROOT
BRANCH   1   7
HETATM    7  N   UNK N   1      21.464  16.373   5.354  0.00  0.00    -0.420 N 
HETATM    8  H   UNK N   1      21.976  15.612   4.906  0.00  0.00     0.150 HD
HETATM    9  H   UNK N   1      21.233  16.264   6.341  0.00  0.00     0.150 HD
ENDBRANCH   1   7
BRANCH   2  10
HETATM   10  O   UNK N   1      23.226  18.558   4.952  0.00  0.00    -0.369 OA
HETATM   11  H   UNK N   1      23.031  18.656   5.897  0.00  0.00     0.212 HD
ENDBRANCH   2  10
BRANCH   6  12
HETATM   12  O   UNK N   1      18.839  16.764   4.202  0.00  0.00    -0.391 OA
HETATM   13  H   UNK N   1      18.651  15.821   4.327  0.00  0.00     0.210 HD
ENDBRANCH   6  12
BRANCH   5  14
HETATM   14  O   UNK N   1      18.875  18.175   1.717  0.00  0.00    -0.390 OA
HETATM   15  H   UNK N   1      19.186  17.764   0.896  0.00  0.00     0.210 HD
ENDBRANCH   5  14
BRANCH   4  16
HETATM   16  C   UNK N   1      20.707  20.408   1.515  0.00  0.00     0.198 C 
BRANCH  16  17
HETATM   17  O   UNK N   1      20.660  20.105   0.154  0.00  0.00    -0.398 OA
HETATM   18  H   UNK N   1      19.836  19.900  -0.315  0.00  0.00     0.209 HD
ENDBRANCH  16  17
ENDBRANCH   4  16
TORSDOF 6
ENDMDL
MODEL 9
REMARK VINA RESULT:      -4.7     13.971     15.518
REMARK  6 active torsions:
REMARK  status: ('A' for Active; 'I' for Inactive)
REMARK    1  A    between atoms: C_2  and  N_1 
REMARK    2  A    between atoms: C_3  and  O_4 
REMARK    3  A    between atoms: C_6  and  C_7 
REMARK    4  A    between atoms: C_7  and  O_8 
REMARK    5  A    between atoms: C_9  and  O_10 
REMARK    6  A    between atoms: C_11  and  O_12 
ROOT
HETATM    1  C   UNK N   1      34.325  14.876  10.014  0.00  0.00     0.161 C 
HETATM    2  C   UNK N   1      32.906  15.038   9.457  0.00  0.00     0.282 C 
HETATM    3  O   UNK N   1      32.977  15.661   8.196  0.00  0.00    -0.349 OA
HETATM    4  C   UNK N   1      33.341  17.005   8.413  0.00  0.00     0.179 C 
HETATM    5  C   UNK N   1      34.799  17.069   8.892  0.00  0.00     0.180 C 
HETATM    6  C   UNK N   1      34.921  16.271  10.190  0.00  0.00     0.176 C 
ENDROOT
BRANCH   1   7
HETATM    7  N   UNK N   1      34.290  14.190  11.295  0.00  0.00    -0.420 N 
HETATM    8  H   UNK N   1      34.050  14.621  12.188  0.00  0.00     0.150 HD
HETATM    9  H   UNK N   1      34.525  13.198  11.302  0.00  0.00     0.150 HD
ENDBRANCH   1   7
BRANCH   2  10
HETATM   10  O   UNK N   1      32.295  13.791   9.319  0.00  0.00    -0.369 OA
HETATM   11  H   UNK N   1      31.717  13.425  10.007  0.00  0.00     0.212 HD
ENDBRANCH   2  10
BRANCH   6  12
HETATM   12  O   UNK N   1      36.260  16.183  10.577  0.00  0.00    -0.391 OA
HETATM   13  H   UNK N   1      36.565  15.940  11.465  0.00  0.00     0.210 HD
ENDBRANCH   6  12
BRANCH   5  14
HETATM   14  O   UNK N   1      35.179  18.394   9.122  0.00  0.00    -0.390 OA
HETATM   15  H   UNK N   1      34.846  18.961   9.834  0.00  0.00     0.210 HD
ENDBRANCH   5  14
BRANCH   4  16
HETATM   16  C   UNK N   1      33.188  17.780   7.112  0.00  0.00     0.198 C 
BRANCH  16  17
HETATM   17  O   UNK N   1      34.413  17.849   6.449  0.00  0.00    -0.398 OA
HETATM   18  H   UNK N   1      34.494  17.842   5.482  0.00  0.00     0.209 HD
ENDBRANCH  16  17
ENDBRANCH   4  16
TORSDOF 6
ENDMDL
