MODEL 1
REMARK VINA RESULT:      -5.6      0.000      0.000
REMARK  6 active torsions:
REMARK  status: ('A' for Active; 'I' for Inactive)
REMARK    1  A    between atoms: C_3  and  C_4 
REMARK    2  A    between atoms: C_4  and  C_5 
REMARK    3  A    between atoms: C_5  and  C_6 
REMARK    4  A    between atoms: C_5  and  C_8 
REMARK    5  A    between atoms: C_6  and  O_7 
REMARK    6  A    between atoms: C_8  and  O_9 
ROOT
HETATM    1  C   UNK N   1      34.263  11.809  14.614  0.00  0.00     0.056 C 
HETATM    2  C   UNK N   1      35.225  12.906  14.939  0.00  0.00     0.029 A 
HETATM    3  C   UNK N   1      35.893  13.636  13.931  0.00  0.00     0.025 A 
HETATM    4  N   UNK N   1      36.779  14.603  14.289  0.00  0.00    -0.312 N 
HETATM    5  C   UNK N   1      37.032  14.889  15.605  0.00  0.00     0.327 A 
HETATM    6  O   UNK N   1      37.838  15.753  15.896  0.00  0.00    -0.247 OA
HETATM    7  N   UNK N   1      36.389  14.197  16.591  0.00  0.00    -0.275 N 
HETATM    8  C   UNK N   1      35.492  13.213  16.282  0.00  0.00     0.257 A 
HETATM    9  O   UNK N   1      34.936  12.602  17.179  0.00  0.00    -0.267 OA
HETATM   10  H   UNK N   1      37.248  15.110  13.587  0.00  0.00     0.170 HD
HETATM   11  H   UNK N   1      36.574  14.408  17.535  0.00  0.00     0.173 HD
ENDROOT
BRANCH   3  12
HETATM   12  C   UNK N   1      35.715  13.351  12.461  0.00  0.00     0.066 C 
BRANCH  12  13
HETATM   13  C   UNK N   1      35.463  14.577  11.590  0.00  0.00     0.038 C 
BRANCH  13  14
HETATM   14  C   UNK N   1      36.699  14.804  10.725  0.00  0.00     0.171 C 
BRANCH  14  15
HETATM   15  O   UNK N   1      37.130  16.130  10.803  0.00  0.00    -0.400 OA
HETATM   16  H   UNK N   1      36.716  16.975  10.569  0.00  0.00     0.209 HD
ENDBRANCH  14  15
ENDBRANCH  13  14
BRANCH  13  17
HETATM   17  C   UNK N   1      34.262  14.295  10.695  0.00  0.00     0.171 C 
BRANCH  17  18
HETATM   18  O   UNK N   1      33.147  15.010  11.133  0.00  0.00    -0.400 OA
HETATM   19  H   UNK N   1      32.808  15.374  11.966  0.00  0.00     0.209 HD
ENDBRANCH  17  18
ENDBRANCH  13  17
ENDBRANCH  12  13
ENDBRANCH   3  12
TORSDOF 6
ENDMDL
MODEL 2
REMARK VINA RESULT:      -5.5      6.632      9.059
REMARK  6 active torsions:
REMARK  status: ('A' for Active; 'I' for Inactive)
REMARK    1  A    between atoms: C_3  and  C_4 
REMARK    2  A    between atoms: C_4  and  C_5 
REMARK    3  A    between atoms: C_5  and  C_6 
REMARK    4  A    between atoms: C_5  and  C_8 
REMARK    5  A    between atoms: C_6  and  O_7 
REMARK    6  A    between atoms: C_8  and  O_9 
ROOT
HETATM    1  C   UNK N   1      31.496  17.262   5.358  0.00  0.00     0.056 C 
HETATM    2  C   UNK N   1      32.334  17.267   6.595  0.00  0.00     0.029 A 
HETATM    3  C   UNK N   1      31.769  17.105   7.880  0.00  0.00     0.025 A 
HETATM    4  N   UNK N   1      32.579  17.148   8.972  0.00  0.00    -0.312 N 
HETATM    5  C   UNK N   1      33.930  17.339   8.852  0.00  0.00     0.327 A 
HETATM    6  O   UNK N   1      34.630  17.384   9.847  0.00  0.00    -0.247 OA
HETATM    7  N   UNK N   1      34.493  17.491   7.616  0.00  0.00    -0.275 N 
HETATM    8  C   UNK N   1      33.720  17.458   6.489  0.00  0.00     0.257 A 
HETATM    9  O   UNK N   1      34.243  17.603   5.397  0.00  0.00    -0.267 OA
HETATM   10  H   UNK N   1      32.185  17.039   9.867  0.00  0.00     0.170 HD
HETATM   11  H   UNK N   1      35.465  17.626   7.536  0.00  0.00     0.173 HD
ENDROOT
BRANCH   3  12
HETATM   12  C   UNK N   1      30.287  16.946   8.107  0.00  0.00     0.066 C 
BRANCH  12  13
HETATM   13  C   UNK N   1      29.518  18.248   8.300  0.00  0.00     0.038 C 
BRANCH  13  14
HETATM   14  C   UNK N   1      28.508  18.374   7.164  0.00  0.00     0.171 C 
BRANCH  14  15
HETATM   15  O   UNK N   1      28.024  17.122   6.780  0.00  0.00    -0.400 OA
HETATM   16  H   UNK N   1      27.141  16.798   6.543  0.00  0.00     0.209 HD
ENDBRANCH  14  15
ENDBRANCH  13  14
BRANCH  13  17
HETATM   17  C   UNK N   1      28.778  18.179   9.631  0.00  0.00     0.171 C 
BRANCH  17  18
HETATM   18  O   UNK N   1      27.398  18.174   9.425  0.00  0.00    -0.400 OA
HETATM   19  H   UNK N   1      26.604  18.508   9.870  0.00  0.00     0.209 HD
ENDBRANCH  17  18
ENDBRANCH  13  17
ENDBRANCH  12  13
ENDBRANCH   3  12
TORSDOF 6
ENDMDL
MODEL 3
REMARK VINA RESULT:      -5.5      8.394     10.420
REMARK  6 active torsions:
REMARK  status: ('A' for Active; 'I' for Inactive)
REMARK    1  A    between atoms: C_3  and  C_4 
REMARK    2  A    between atoms: C_4  and  C_5 
REMARK    3  A    between atoms: C_5  and  C_6 
REMARK    4  A    between atoms: C_5  and  C_8 
REMARK    5  A    between atoms: C_6  and  O_7 
REMARK    6  A    between atoms: C_8  and  O_9 
ROOT
HETATM    1  C   UNK N   1      32.658  17.609   8.491  0.00  0.00     0.056 C 
HETATM    2  C   UNK N   1      32.370  17.468   7.031  0.00  0.00     0.029 A 
HETATM    3  C   UNK N   1      31.062  17.239   6.547  0.00  0.00     0.025 A 
HETATM    4  N   UNK N   1      30.866  17.091   5.210  0.00  0.00    -0.312 N 
HETATM    5  C   UNK N   1      31.907  17.165   4.322  0.00  0.00     0.327 A 
HETATM    6  O   UNK N   1      31.703  17.018   3.132  0.00  0.00    -0.247 OA
HETATM    7  N   UNK N   1      33.176  17.393   4.774  0.00  0.00    -0.275 N 
HETATM    8  C   UNK N   1      33.424  17.546   6.109  0.00  0.00     0.257 A 
HETATM    9  O   UNK N   1      34.566  17.741   6.490  0.00  0.00    -0.267 OA
HETATM   10  H   UNK N   1      29.956  16.927   4.873  0.00  0.00     0.170 HD
HETATM   11  H   UNK N   1      33.920  17.448   4.131  0.00  0.00     0.173 HD
ENDROOT
BRANCH   3  12
HETATM   12  C   UNK N   1      29.869  17.088   7.457  0.00  0.00     0.066 C 
BRANCH  12  13
HETATM   13  C   UNK N   1      29.189  18.395   7.854  0.00  0.00     0.038 C 
BRANCH  13  14
HETATM   14  C   UNK N   1      27.948  18.565   6.983  0.00  0.00     0.171 C 
BRANCH  14  15
HETATM   15  O   UNK N   1      27.286  19.759   7.280  0.00  0.00    -0.400 OA
HETATM   16  H   UNK N   1      27.371  20.401   8.003  0.00  0.00     0.209 HD
ENDBRANCH  14  15
ENDBRANCH  13  14
BRANCH  13  17
HETATM   17  C   UNK N   1      28.774  18.298   9.316  0.00  0.00     0.171 C 
BRANCH  17  18
HETATM   18  O   UNK N   1      27.424  17.961   9.421  0.00  0.00    -0.400 OA
HETATM   19  H   UNK N   1      26.705  17.684   8.832  0.00  0.00     0.209 HD
ENDBRANCH  17  18
ENDBRANCH  13  17
ENDBRANCH  12  13
ENDBRANCH   3  12
TORSDOF 6
ENDMDL
MODEL 4
REMARK VINA RESULT:      -5.4      3.760      6.741
REMARK  6 active torsions:
REMARK  status: ('A' for Active; 'I' for Inactive)
REMARK    1  A    between atoms: C_3  and  C_4 
REMARK    2  A    between atoms: C_4  and  C_5 
REMARK    3  A    between atoms: C_5  and  C_6 
REMARK    4  A    between atoms: C_5  and  C_8 
REMARK    5  A    between atoms: C_6  and  O_7 
REMARK    6  A    between atoms: C_8  and  O_9 
ROOT
HETATM    1  C   UNK N   1      32.786  14.345   8.675  0.00  0.00     0.056 C 
HETATM    2  C   UNK N   1      33.459  15.677   8.605  0.00  0.00     0.029 A 
HETATM    3  C   UNK N   1      34.277  16.157   9.653  0.00  0.00     0.025 A 
HETATM    4  N   UNK N   1      34.839  17.390   9.544  0.00  0.00    -0.312 N 
HETATM    5  C   UNK N   1      34.636  18.174   8.439  0.00  0.00     0.327 A 
HETATM    6  O   UNK N   1      35.144  19.278   8.374  0.00  0.00    -0.247 OA
HETATM    7  N   UNK N   1      33.853  17.722   7.415  0.00  0.00    -0.275 N 
HETATM    8  C   UNK N   1      33.264  16.490   7.478  0.00  0.00     0.257 A 
HETATM    9  O   UNK N   1      32.563  16.111   6.555  0.00  0.00    -0.267 OA
HETATM   10  H   UNK N   1      35.406  17.726  10.276  0.00  0.00     0.170 HD
HETATM   11  H   UNK N   1      33.712  18.289   6.622  0.00  0.00     0.173 HD
ENDROOT
BRANCH   3  12
HETATM   12  C   UNK N   1      34.509  15.383  10.926  0.00  0.00     0.066 C 
BRANCH  12  13
HETATM   13  C   UNK N   1      35.963  15.307  11.380  0.00  0.00     0.038 C 
BRANCH  13  14
HETATM   14  C   UNK N   1      36.004  14.572  12.715  0.00  0.00     0.171 C 
BRANCH  14  15
HETATM   15  O   UNK N   1      37.109  13.721  12.788  0.00  0.00    -0.400 OA
HETATM   16  H   UNK N   1      37.492  13.080  12.168  0.00  0.00     0.209 HD
ENDBRANCH  14  15
ENDBRANCH  13  14
BRANCH  13  17
HETATM   17  C   UNK N   1      36.752  14.517  10.342  0.00  0.00     0.171 C 
BRANCH  17  18
HETATM   18  O   UNK N   1      38.048  15.021  10.224  0.00  0.00    -0.400 OA
HETATM   19  H   UNK N   1      38.499  15.739   9.754  0.00  0.00     0.209 HD
ENDBRANCH  17  18
ENDBRANCH  13  17
ENDBRANCH  12  13
ENDBRANCH   3  12
TORSDOF 6
ENDMDL
MODEL 5
REMARK VINA RESULT:      -5.3     15.182     17.814
REMARK  6 active torsions:
REMARK  status: ('A' for Active; 'I' for Inactive)
REMARK    1  A    between atoms: C_3  and  C_4 
REMARK    2  A    between atoms: C_4  and  C_5 
REMARK    3  A    between atoms: C_5  and  C_6 
REMARK    4  A    between atoms: C_5  and  C_8 
REMARK    5  A    between atoms: C_6  and  O_7 
REMARK    6  A    between atoms: C_8  and  O_9 
ROOT
HETATM    1  C   UNK N   1      22.878  17.208   4.763  0.00  0.00     0.056 C 
HETATM    2  C   UNK N   1      23.687  18.286   4.117  0.00  0.00     0.029 A 
HETATM    3  C   UNK N   1      23.087  19.439   3.561  0.00  0.00     0.025 A 
HETATM    4  N   UNK N   1      23.874  20.372   2.961  0.00  0.00    -0.312 N 
HETATM    5  C   UNK N   1      25.233  20.222   2.890  0.00  0.00     0.327 A 
HETATM    6  O   UNK N   1      25.911  21.068   2.338  0.00  0.00    -0.247 OA
HETATM    7  N   UNK N   1      25.829  19.117   3.429  0.00  0.00    -0.275 N 
HETATM    8  C   UNK N   1      25.081  18.149   4.040  0.00  0.00     0.257 A 
HETATM    9  O   UNK N   1      25.633  17.168   4.507  0.00  0.00    -0.267 OA
HETATM   10  H   UNK N   1      23.456  21.173   2.570  0.00  0.00     0.170 HD
HETATM   11  H   UNK N   1      26.807  19.015   3.376  0.00  0.00     0.173 HD
ENDROOT
BRANCH   3  12
HETATM   12  C   UNK N   1      21.596  19.657   3.547  0.00  0.00     0.066 C 
BRANCH  12  13
HETATM   13  C   UNK N   1      20.889  19.215   2.270  0.00  0.00     0.038 C 
BRANCH  13  14
HETATM   14  C   UNK N   1      19.504  18.702   2.650  0.00  0.00     0.171 C 
BRANCH  14  15
HETATM   15  O   UNK N   1      18.927  17.986   1.598  0.00  0.00    -0.400 OA
HETATM   16  H   UNK N   1      18.560  17.091   1.529  0.00  0.00     0.209 HD
ENDBRANCH  14  15
ENDBRANCH  13  14
BRANCH  13  17
HETATM   17  C   UNK N   1      20.748  20.424   1.353  0.00  0.00     0.171 C 
BRANCH  17  18
HETATM   18  O   UNK N   1      20.589  20.018   0.028  0.00  0.00    -0.400 OA
HETATM   19  H   UNK N   1      20.034  20.249  -0.733  0.00  0.00     0.209 HD
ENDBRANCH  17  18
ENDBRANCH  13  17
ENDBRANCH  12  13
ENDBRANCH   3  12
TORSDOF 6
ENDMDL
MODEL 6
REMARK VINA RESULT:      -5.3      2.424      3.535
REMARK  6 active torsions:
REMARK  status: ('A' for Active; 'I' for Inactive)
REMARK    1  A    between atoms: C_3  and  C_4 
REMARK    2  A    between atoms: C_4  and  C_5 
REMARK    3  A    between atoms: C_5  and  C_6 
REMARK    4  A    between atoms: C_5  and  C_8 
REMARK    5  A    between atoms: C_6  and  O_7 
REMARK    6  A    between atoms: C_8  and  O_9 
ROOT
HETATM    1  C   UNK N   1      35.249   9.932  17.523  0.00  0.00     0.056 C 
HETATM    2  C   UNK N   1      35.207  11.389  17.850  0.00  0.00     0.029 A 
HETATM    3  C   UNK N   1      34.992  12.372  16.857  0.00  0.00     0.025 A 
HETATM    4  N   UNK N   1      34.993  13.684  17.212  0.00  0.00    -0.312 N 
HETATM    5  C   UNK N   1      35.191  14.075  18.510  0.00  0.00     0.327 A 
HETATM    6  O   UNK N   1      35.197  15.257  18.796  0.00  0.00    -0.247 OA
HETATM    7  N   UNK N   1      35.394  13.137  19.482  0.00  0.00    -0.275 N 
HETATM    8  C   UNK N   1      35.405  11.805  19.176  0.00  0.00     0.257 A 
HETATM    9  O   UNK N   1      35.596  10.986  20.059  0.00  0.00    -0.267 OA
HETATM   10  H   UNK N   1      34.846  14.369  16.520  0.00  0.00     0.170 HD
HETATM   11  H   UNK N   1      35.535  13.423  20.414  0.00  0.00     0.173 HD
ENDROOT
BRANCH   3  12
HETATM   12  C   UNK N   1      34.819  12.034  15.398  0.00  0.00     0.066 C 
BRANCH  12  13
HETATM   13  C   UNK N   1      35.510  12.986  14.428  0.00  0.00     0.038 C 
BRANCH  13  14
HETATM   14  C   UNK N   1      37.017  12.838  14.613  0.00  0.00     0.171 C 
BRANCH  14  15
HETATM   15  O   UNK N   1      37.555  13.951  15.263  0.00  0.00    -0.400 OA
HETATM   16  H   UNK N   1      38.175  14.049  16.003  0.00  0.00     0.209 HD
ENDBRANCH  14  15
ENDBRANCH  13  14
BRANCH  13  17
HETATM   17  C   UNK N   1      35.132  12.584  13.007  0.00  0.00     0.171 C 
BRANCH  17  18
HETATM   18  O   UNK N   1      34.357  13.577  12.408  0.00  0.00    -0.400 OA
HETATM   19  H   UNK N   1      33.670  14.209  12.671  0.00  0.00     0.209 HD
ENDBRANCH  17  18
ENDBRANCH  13  17
ENDBRANCH  12  13
ENDBRANCH   3  12
TORSDOF 6
ENDMDL
MODEL 7
REMARK VINA RESULT:      -5.2      1.738      2.471
REMARK  6 active torsions:
REMARK  status: ('A' for Active; 'I' for Inactive)
REMARK    1  A    between atoms: C_3  and  C_4 
REMARK    2  A    between atoms: C_4  and  C_5 
REMARK    3  A    between atoms: C_5  and  C_6 
REMARK    4  A    between atoms: C_5  and  C_8 
REMARK    5  A    between atoms: C_6  and  O_7 
REMARK    6  A    between atoms: C_8  and  O_9 
ROOT
HETATM    1  C   UNK N   1      34.970  12.119  17.051  0.00  0.00     0.056 C 
HETATM    2  C   UNK N   1      35.750  13.347  16.706  0.00  0.00     0.029 A 
HETATM    3  C   UNK N   1      36.337  13.525  15.433  0.00  0.00     0.025 A 
HETATM    4  N   UNK N   1      37.060  14.650  15.188  0.00  0.00    -0.312 N 
HETATM    5  C   UNK N   1      37.226  15.617  16.145  0.00  0.00     0.327 A 
HETATM    6  O   UNK N   1      37.886  16.609  15.900  0.00  0.00    -0.247 OA
HETATM    7  N   UNK N   1      36.659  15.462  17.378  0.00  0.00    -0.275 N 
HETATM    8  C   UNK N   1      35.925  14.347  17.674  0.00  0.00     0.257 A 
HETATM    9  O   UNK N   1      35.435  14.227  18.784  0.00  0.00    -0.267 OA
HETATM   10  H   UNK N   1      37.472  14.774  14.302  0.00  0.00     0.170 HD
HETATM   11  H   UNK N   1      36.780  16.161  18.062  0.00  0.00     0.173 HD
ENDROOT
BRANCH   3  12
HETATM   12  C   UNK N   1      36.251  12.489  14.341  0.00  0.00     0.066 C 
BRANCH  12  13
HETATM   13  C   UNK N   1      34.981  12.542  13.498  0.00  0.00     0.038 C 
BRANCH  13  14
HETATM   14  C   UNK N   1      35.278  13.364  12.248  0.00  0.00     0.171 C 
BRANCH  14  15
HETATM   15  O   UNK N   1      34.158  14.097  11.850  0.00  0.00    -0.400 OA
HETATM   16  H   UNK N   1      33.583  14.730  12.309  0.00  0.00     0.209 HD
ENDBRANCH  14  15
ENDBRANCH  13  14
BRANCH  13  17
HETATM   17  C   UNK N   1      34.611  11.121  13.094  0.00  0.00     0.171 C 
BRANCH  17  18
HETATM   18  O   UNK N   1      33.969  11.115  11.855  0.00  0.00    -0.400 OA
HETATM   19  H   UNK N   1      33.115  11.390  11.486  0.00  0.00     0.209 HD
ENDBRANCH  17  18
ENDBRANCH  13  17
ENDBRANCH  12  13
ENDBRANCH   3  12
TORSDOF 6
ENDMDL
MODEL 8
REMARK VINA RESULT:      -5.2      7.613      9.107
REMARK  6 active torsions:
REMARK  status: ('A' for Active; 'I' for Inactive)
REMARK    1  A    between atoms: C_3  and  C_4 
REMARK    2  A    between atoms: C_4  and  C_5 
REMARK    3  A    between atoms: C_5  and  C_6 
REMARK    4  A    between atoms: C_5  and  C_8 
REMARK    5  A    between atoms: C_6  and  O_7 
REMARK    6  A    between atoms: C_8  and  O_9 
ROOT
HETATM    1  C   UNK N   1      30.157  16.649   5.652  0.00  0.00     0.056 C 
HETATM    2  C   UNK N   1      30.022  17.291   6.995  0.00  0.00     0.029 A 
HETATM    3  C   UNK N   1      31.095  17.336   7.913  0.00  0.00     0.025 A 
HETATM    4  N   UNK N   1      30.903  17.908   9.131  0.00  0.00    -0.312 N 
HETATM    5  C   UNK N   1      29.695  18.447   9.486  0.00  0.00     0.327 A 
HETATM    6  O   UNK N   1      29.549  18.944  10.587  0.00  0.00    -0.247 OA
HETATM    7  N   UNK N   1      28.649  18.418   8.607  0.00  0.00    -0.275 N 
HETATM    8  C   UNK N   1      28.791  17.852   7.371  0.00  0.00     0.257 A 
HETATM    9  O   UNK N   1      27.842  17.830   6.607  0.00  0.00    -0.267 OA
HETATM   10  H   UNK N   1      31.650  17.936   9.772  0.00  0.00     0.170 HD
HETATM   11  H   UNK N   1      27.783  18.809   8.866  0.00  0.00     0.173 HD
ENDROOT
BRANCH   3  12
HETATM   12  C   UNK N   1      32.441  16.719   7.626  0.00  0.00     0.066 C 
BRANCH  12  13
HETATM   13  C   UNK N   1      33.493  17.683   7.090  0.00  0.00     0.038 C 
BRANCH  13  14
HETATM   14  C   UNK N   1      34.600  17.803   8.132  0.00  0.00     0.171 C 
BRANCH  14  15
HETATM   15  O   UNK N   1      34.975  19.136   8.316  0.00  0.00    -0.400 OA
HETATM   16  H   UNK N   1      34.501  19.977   8.215  0.00  0.00     0.209 HD
ENDBRANCH  14  15
ENDBRANCH  13  14
BRANCH  13  17
HETATM   17  C   UNK N   1      34.069  17.102   5.804  0.00  0.00     0.171 C 
BRANCH  17  18
HETATM   18  O   UNK N   1      35.053  16.156   6.091  0.00  0.00    -0.400 OA
HETATM   19  H   UNK N   1      35.253  15.518   6.794  0.00  0.00     0.209 HD
ENDBRANCH  17  18
ENDBRANCH  13  17
ENDBRANCH  12  13
ENDBRANCH   3  12
TORSDOF 6
ENDMDL
MODEL 9
REMARK VINA RESULT:      -5.2      8.625     10.590
REMARK  6 active torsions:
REMARK  status: ('A' for Active; 'I' for Inactive)
REMARK    1  A    between atoms: C_3  and  C_4 
REMARK    2  A    between atoms: C_4  and  C_5 
REMARK    3  A    between atoms: C_5  and  C_6 
REMARK    4  A    between atoms: C_5  and  C_8 
REMARK    5  A    between atoms: C_6  and  O_7 
REMARK    6  A    between atoms: C_8  and  O_9 
ROOT
HETATM    1  C   UNK N   1      29.376  16.514   4.279  0.00  0.00     0.056 C 
HETATM    2  C   UNK N   1      30.719  16.861   4.835  0.00  0.00     0.029 A 
HETATM    3  C   UNK N   1      30.930  17.037   6.221  0.00  0.00     0.025 A 
HETATM    4  N   UNK N   1      32.168  17.380   6.666  0.00  0.00    -0.312 N 
HETATM    5  C   UNK N   1      33.216  17.552   5.800  0.00  0.00     0.327 A 
HETATM    6  O   UNK N   1      34.311  17.870   6.225  0.00  0.00    -0.247 OA
HETATM    7  N   UNK N   1      33.030  17.379   4.458  0.00  0.00    -0.275 N 
HETATM    8  C   UNK N   1      31.804  17.036   3.962  0.00  0.00     0.257 A 
HETATM    9  O   UNK N   1      31.659  16.894   2.760  0.00  0.00    -0.267 OA
HETATM   10  H   UNK N   1      32.315  17.507   7.631  0.00  0.00     0.170 HD
HETATM   11  H   UNK N   1      33.788  17.502   3.841  0.00  0.00     0.173 HD
ENDROOT
BRANCH   3  12
HETATM   12  C   UNK N   1      29.822  16.921   7.237  0.00  0.00     0.066 C 
BRANCH  12  13
HETATM   13  C   UNK N   1      29.629  18.145   8.127  0.00  0.00     0.038 C 
BRANCH  13  14
HETATM   14  C   UNK N   1      28.303  18.798   7.752  0.00  0.00     0.171 C 
BRANCH  14  15
HETATM   15  O   UNK N   1      27.393  18.730   8.809  0.00  0.00    -0.400 OA
HETATM   16  H   UNK N   1      26.785  18.038   9.115  0.00  0.00     0.209 HD
ENDBRANCH  14  15
ENDBRANCH  13  14
BRANCH  13  17
HETATM   17  C   UNK N   1      29.575  17.683   9.578  0.00  0.00     0.171 C 
BRANCH  17  18
HETATM   18  O   UNK N   1      29.783  18.758  10.443  0.00  0.00    -0.400 OA
HETATM   19  H   UNK N   1      30.360  19.535  10.496  0.00  0.00     0.209 HD
ENDBRANCH  17  18
ENDBRANCH  13  17
ENDBRANCH  12  13
ENDBRANCH   3  12
TORSDOF 6
ENDMDL
