MODEL 1
REMARK VINA RESULT:      -5.3      0.000      0.000
REMARK  9 active torsions:
REMARK  status: ('A' for Active; 'I' for Inactive)
REMARK    1  A    between atoms: C_2  and  C_3 
REMARK    2  A    between atoms: C_3  and  N_4 
REMARK       I    between atoms: N_4  and  C_5 
REMARK       I    between atoms: C_5  and  N_7 
REMARK    3  A    between atoms: N_7  and  C_8 
REMARK    4  A    between atoms: C_8  and  C_9 
REMARK    5  A    between atoms: C_9  and  C_10 
REMARK    6  A    between atoms: C_10  and  C_11 
REMARK    7  A    between atoms: C_11  and  N_12 
REMARK    8  A    between atoms: C_11  and  C_13 
REMARK    9  A    between atoms: C_13  and  O_14 
ROOT
HETATM    1  N   UNK N   1      35.270  13.313  14.542  0.00  0.00    -0.227 N 
HETATM    2  C   UNK N   1      35.734  14.061  13.428  0.00  0.00     0.667 C 
HETATM    3  N   UNK N   1      36.773  14.807  13.540  0.00  0.00    -0.235 N 
HETATM    4  N   UNK N   1      35.083  13.913  12.172  0.00  0.00    -0.227 N 
HETATM    5  H   UNK N   1      34.474  12.742  14.441  0.00  0.00     0.177 HD
HETATM    6  H   UNK N   1      37.359  14.782  14.331  0.00  0.00     0.174 HD
HETATM    7  H   UNK N   1      36.991  15.428  12.808  0.00  0.00     0.174 HD
HETATM    8  H   UNK N   1      34.218  13.445  12.141  0.00  0.00     0.177 HD
ENDROOT
BRANCH   4   9
HETATM    9  C   UNK N   1      35.638  14.425  10.939  0.00  0.00     0.138 C 
BRANCH   9  10
HETATM   10  C   UNK N   1      34.578  15.114  10.097  0.00  0.00     0.023 C 
BRANCH  10  11
HETATM   11  C   UNK N   1      34.942  16.577   9.904  0.00  0.00     0.037 C 
BRANCH  11  12
HETATM   12  C   UNK N   1      33.913  17.272   9.024  0.00  0.00     0.173 C 
BRANCH  12  13
HETATM   13  N   UNK N   1      33.130  16.284   8.296  0.00  0.00    -0.418 N 
HETATM   14  H   UNK N   1      33.446  15.318   8.206  0.00  0.00     0.150 HD
HETATM   15  H   UNK N   1      32.248  16.564   7.866  0.00  0.00     0.150 HD
ENDBRANCH  12  13
BRANCH  12  16
HETATM   16  C   UNK N   1      34.587  18.221   8.076  0.00  0.00     0.163 C 
HETATM   17  O   UNK N   1      34.535  18.017   6.873  0.00  0.00    -0.648 OA
BRANCH  16  18
HETATM   18  O   UNK N   1      35.274  19.285   8.540  0.00  0.00    -0.775 OA
HETATM   19  H   UNK N   1      36.044  19.239   9.070  0.00  0.00     0.167 HD
ENDBRANCH  16  18
ENDBRANCH  12  16
ENDBRANCH  11  12
ENDBRANCH  10  11
ENDBRANCH   9  10
ENDBRANCH   4   9
BRANCH   1  20
HETATM   20  C   UNK N   1      35.939  13.374  15.816  0.00  0.00     0.137 C 
BRANCH  20  21
HETATM   21  C   UNK N   1      34.993  12.940  16.914  0.00  0.00     0.016 C 
HETATM   22  C   UNK N   1      35.210  13.814  18.131  0.00  0.00     0.006 C 
ENDBRANCH  20  21
ENDBRANCH   1  20
TORSDOF 9
ENDMDL
MODEL 2
REMARK VINA RESULT:      -5.3      5.323      9.473
REMARK  9 active torsions:
REMARK  status: ('A' for Active; 'I' for Inactive)
REMARK    1  A    between atoms: C_2  and  C_3 
REMARK    2  A    between atoms: C_3  and  N_4 
REMARK       I    between atoms: N_4  and  C_5 
REMARK       I    between atoms: C_5  and  N_7 
REMARK    3  A    between atoms: N_7  and  C_8 
REMARK    4  A    between atoms: C_8  and  C_9 
REMARK    5  A    between atoms: C_9  and  C_10 
REMARK    6  A    between atoms: C_10  and  C_11 
REMARK    7  A    between atoms: C_11  and  N_12 
REMARK    8  A    between atoms: C_11  and  C_13 
REMARK    9  A    between atoms: C_13  and  O_14 
ROOT
HETATM    1  N   UNK N   1      28.041  19.865   6.987  0.00  0.00    -0.227 N 
HETATM    2  C   UNK N   1      28.221  18.641   7.680  0.00  0.00     0.667 C 
HETATM    3  N   UNK N   1      27.469  17.634   7.418  0.00  0.00    -0.235 N 
HETATM    4  N   UNK N   1      29.290  18.520   8.611  0.00  0.00    -0.227 N 
HETATM    5  H   UNK N   1      28.628  20.628   7.195  0.00  0.00     0.177 HD
HETATM    6  H   UNK N   1      26.854  17.620   6.649  0.00  0.00     0.174 HD
HETATM    7  H   UNK N   1      27.508  16.846   8.008  0.00  0.00     0.174 HD
HETATM    8  H   UNK N   1      29.766  19.334   8.892  0.00  0.00     0.177 HD
ENDROOT
BRANCH   4   9
HETATM    9  C   UNK N   1      29.706  17.250   9.163  0.00  0.00     0.138 C 
BRANCH   9  10
HETATM   10  C   UNK N   1      31.010  16.776   8.544  0.00  0.00     0.023 C 
BRANCH  10  11
HETATM   11  C   UNK N   1      32.066  17.862   8.670  0.00  0.00     0.037 C 
BRANCH  11  12
HETATM   12  C   UNK N   1      33.462  17.265   8.563  0.00  0.00     0.173 C 
BRANCH  12  13
HETATM   13  N   UNK N   1      34.009  17.034   9.893  0.00  0.00    -0.418 N 
HETATM   14  H   UNK N   1      33.510  16.470  10.582  0.00  0.00     0.150 HD
HETATM   15  H   UNK N   1      34.909  17.443  10.140  0.00  0.00     0.150 HD
ENDBRANCH  12  13
BRANCH  12  16
HETATM   16  C   UNK N   1      34.360  18.167   7.768  0.00  0.00     0.163 C 
HETATM   17  O   UNK N   1      34.389  18.077   6.551  0.00  0.00    -0.648 OA
BRANCH  16  18
HETATM   18  O   UNK N   1      35.159  19.061   8.388  0.00  0.00    -0.775 OA
HETATM   19  H   UNK N   1      36.073  19.173   8.219  0.00  0.00     0.167 HD
ENDBRANCH  16  18
ENDBRANCH  12  16
ENDBRANCH  11  12
ENDBRANCH  10  11
ENDBRANCH   9  10
ENDBRANCH   4   9
BRANCH   1  20
HETATM   20  C   UNK N   1      27.018  20.015   5.983  0.00  0.00     0.137 C 
BRANCH  20  21
HETATM   21  C   UNK N   1      27.650  20.082   4.611  0.00  0.00     0.016 C 
HETATM   22  C   UNK N   1      26.558  20.112   3.562  0.00  0.00     0.006 C 
ENDBRANCH  20  21
ENDBRANCH   1  20
TORSDOF 9
ENDMDL
MODEL 3
REMARK VINA RESULT:      -5.2      2.010      2.089
REMARK  9 active torsions:
REMARK  status: ('A' for Active; 'I' for Inactive)
REMARK    1  A    between atoms: C_2  and  C_3 
REMARK    2  A    between atoms: C_3  and  N_4 
REMARK       I    between atoms: N_4  and  C_5 
REMARK       I    between atoms: C_5  and  N_7 
REMARK    3  A    between atoms: N_7  and  C_8 
REMARK    4  A    between atoms: C_8  and  C_9 
REMARK    5  A    between atoms: C_9  and  C_10 
REMARK    6  A    between atoms: C_10  and  C_11 
REMARK    7  A    between atoms: C_11  and  N_12 
REMARK    8  A    between atoms: C_11  and  C_13 
REMARK    9  A    between atoms: C_13  and  O_14 
ROOT
HETATM    1  N   UNK N   1      35.033  12.558  12.826  0.00  0.00    -0.227 N 
HETATM    2  C   UNK N   1      35.612  13.789  12.425  0.00  0.00     0.667 C 
HETATM    3  N   UNK N   1      36.865  14.002  12.607  0.00  0.00    -0.235 N 
HETATM    4  N   UNK N   1      34.807  14.750  11.753  0.00  0.00    -0.227 N 
HETATM    5  H   UNK N   1      34.071  12.407  12.677  0.00  0.00     0.177 HD
HETATM    6  H   UNK N   1      37.487  13.291  12.886  0.00  0.00     0.174 HD
HETATM    7  H   UNK N   1      37.218  14.910  12.461  0.00  0.00     0.174 HD
HETATM    8  H   UNK N   1      33.831  14.625  11.743  0.00  0.00     0.177 HD
ENDROOT
BRANCH   4   9
HETATM    9  C   UNK N   1      35.363  15.905  11.084  0.00  0.00     0.138 C 
BRANCH   9  10
HETATM   10  C   UNK N   1      35.499  15.670   9.590  0.00  0.00     0.023 C 
BRANCH  10  11
HETATM   11  C   UNK N   1      34.162  15.903   8.906  0.00  0.00     0.037 C 
BRANCH  11  12
HETATM   12  C   UNK N   1      33.751  17.364   9.019  0.00  0.00     0.173 C 
BRANCH  12  13
HETATM   13  N   UNK N   1      32.325  17.503   8.757  0.00  0.00    -0.418 N 
HETATM   14  H   UNK N   1      31.830  18.370   8.963  0.00  0.00     0.150 HD
HETATM   15  H   UNK N   1      31.812  16.716   8.358  0.00  0.00     0.150 HD
ENDBRANCH  12  13
BRANCH  12  16
HETATM   16  C   UNK N   1      34.551  18.210   8.072  0.00  0.00     0.163 C 
HETATM   17  O   UNK N   1      34.522  17.975   6.874  0.00  0.00    -0.648 OA
BRANCH  16  18
HETATM   18  O   UNK N   1      35.324  19.215   8.533  0.00  0.00    -0.775 OA
HETATM   19  H   UNK N   1      36.119  19.104   9.016  0.00  0.00     0.167 HD
ENDBRANCH  16  18
ENDBRANCH  12  16
ENDBRANCH  11  12
ENDBRANCH  10  11
ENDBRANCH   9  10
ENDBRANCH   4   9
BRANCH   1  20
HETATM   20  C   UNK N   1      35.822  11.525  13.446  0.00  0.00     0.137 C 
BRANCH  20  21
HETATM   21  C   UNK N   1      34.939  10.353  13.812  0.00  0.00     0.016 C 
HETATM   22  C   UNK N   1      33.655  10.870  14.426  0.00  0.00     0.006 C 
ENDBRANCH  20  21
ENDBRANCH   1  20
TORSDOF 9
ENDMDL
MODEL 4
REMARK VINA RESULT:      -5.1      2.808      3.294
REMARK  9 active torsions:
REMARK  status: ('A' for Active; 'I' for Inactive)
REMARK    1  A    between atoms: C_2  and  C_3 
REMARK    2  A    between atoms: C_3  and  N_4 
REMARK       I    between atoms: N_4  and  C_5 
REMARK       I    between atoms: C_5  and  N_7 
REMARK    3  A    between atoms: N_7  and  C_8 
REMARK    4  A    between atoms: C_8  and  C_9 
REMARK    5  A    between atoms: C_9  and  C_10 
REMARK    6  A    between atoms: C_10  and  C_11 
REMARK    7  A    between atoms: C_11  and  N_12 
REMARK    8  A    between atoms: C_11  and  C_13 
REMARK    9  A    between atoms: C_13  and  O_14 
ROOT
HETATM    1  N   UNK N   1      36.914  12.920  14.077  0.00  0.00    -0.227 N 
HETATM    2  C   UNK N   1      37.066  12.460  12.743  0.00  0.00     0.667 C 
HETATM    3  N   UNK N   1      36.506  11.367  12.370  0.00  0.00    -0.235 N 
HETATM    4  N   UNK N   1      37.778  13.262  11.809  0.00  0.00    -0.227 N 
HETATM    5  H   UNK N   1      37.345  13.762  14.349  0.00  0.00     0.177 HD
HETATM    6  H   UNK N   1      35.849  10.892  12.929  0.00  0.00     0.174 HD
HETATM    7  H   UNK N   1      36.742  10.990  11.492  0.00  0.00     0.174 HD
HETATM    8  H   UNK N   1      38.306  14.022  12.145  0.00  0.00     0.177 HD
ENDROOT
BRANCH   4   9
HETATM    9  C   UNK N   1      37.761  13.007  10.386  0.00  0.00     0.138 C 
BRANCH   9  10
HETATM   10  C   UNK N   1      36.970  14.068   9.641  0.00  0.00     0.023 C 
BRANCH  10  11
HETATM   11  C   UNK N   1      36.614  15.205  10.585  0.00  0.00     0.037 C 
BRANCH  11  12
HETATM   12  C   UNK N   1      35.183  15.667  10.351  0.00  0.00     0.173 C 
BRANCH  12  13
HETATM   13  N   UNK N   1      35.065  17.090  10.634  0.00  0.00    -0.418 N 
HETATM   14  H   UNK N   1      34.656  17.425  11.506  0.00  0.00     0.150 HD
HETATM   15  H   UNK N   1      35.398  17.765   9.946  0.00  0.00     0.150 HD
ENDBRANCH  12  13
BRANCH  12  16
HETATM   16  C   UNK N   1      34.230  14.875  11.199  0.00  0.00     0.163 C 
HETATM   17  O   UNK N   1      34.659  14.169  12.097  0.00  0.00    -0.648 OA
BRANCH  16  18
HETATM   18  O   UNK N   1      32.903  14.915  10.960  0.00  0.00    -0.775 OA
HETATM   19  H   UNK N   1      32.510  14.998  10.114  0.00  0.00     0.167 HD
ENDBRANCH  16  18
ENDBRANCH  12  16
ENDBRANCH  11  12
ENDBRANCH  10  11
ENDBRANCH   9  10
ENDBRANCH   4   9
BRANCH   1  20
HETATM   20  C   UNK N   1      36.142  12.179  15.042  0.00  0.00     0.137 C 
BRANCH  20  21
HETATM   21  C   UNK N   1      35.052  13.059  15.613  0.00  0.00     0.016 C 
HETATM   22  C   UNK N   1      35.266  13.210  17.104  0.00  0.00     0.006 C 
ENDBRANCH  20  21
ENDBRANCH   1  20
TORSDOF 9
ENDMDL
MODEL 5
REMARK VINA RESULT:      -5.0     12.285     15.160
REMARK  9 active torsions:
REMARK  status: ('A' for Active; 'I' for Inactive)
REMARK    1  A    between atoms: C_2  and  C_3 
REMARK    2  A    between atoms: C_3  and  N_4 
REMARK       I    between atoms: N_4  and  C_5 
REMARK       I    between atoms: C_5  and  N_7 
REMARK    3  A    between atoms: N_7  and  C_8 
REMARK    4  A    between atoms: C_8  and  C_9 
REMARK    5  A    between atoms: C_9  and  C_10 
REMARK    6  A    between atoms: C_10  and  C_11 
REMARK    7  A    between atoms: C_11  and  N_12 
REMARK    8  A    between atoms: C_11  and  C_13 
REMARK    9  A    between atoms: C_13  and  O_14 
ROOT
HETATM    1  N   UNK N   1      26.201  18.746   5.771  0.00  0.00    -0.227 N 
HETATM    2  C   UNK N   1      25.161  18.626   4.812  0.00  0.00     0.667 C 
HETATM    3  N   UNK N   1      25.315  19.101   3.630  0.00  0.00    -0.235 N 
HETATM    4  N   UNK N   1      23.981  17.909   5.154  0.00  0.00    -0.227 N 
HETATM    5  H   UNK N   1      26.070  18.374   6.673  0.00  0.00     0.177 HD
HETATM    6  H   UNK N   1      26.184  19.426   3.300  0.00  0.00     0.174 HD
HETATM    7  H   UNK N   1      24.536  19.142   3.030  0.00  0.00     0.174 HD
HETATM    8  H   UNK N   1      23.829  17.671   6.097  0.00  0.00     0.177 HD
ENDROOT
BRANCH   4   9
HETATM    9  C   UNK N   1      22.994  17.515   4.173  0.00  0.00     0.138 C 
BRANCH   9  10
HETATM   10  C   UNK N   1      21.864  18.526   4.086  0.00  0.00     0.023 C 
BRANCH  10  11
HETATM   11  C   UNK N   1      21.050  18.284   2.826  0.00  0.00     0.037 C 
BRANCH  11  12
HETATM   12  C   UNK N   1      20.125  19.461   2.552  0.00  0.00     0.173 C 
BRANCH  12  13
HETATM   13  N   UNK N   1      18.759  18.991   2.371  0.00  0.00    -0.418 N 
HETATM   14  H   UNK N   1      18.068  19.068   3.118  0.00  0.00     0.150 HD
HETATM   15  H   UNK N   1      18.488  18.577   1.479  0.00  0.00     0.150 HD
ENDBRANCH  12  13
BRANCH  12  16
HETATM   16  C   UNK N   1      20.589  20.226   1.346  0.00  0.00     0.163 C 
HETATM   17  O   UNK N   1      20.870  21.409   1.448  0.00  0.00    -0.648 OA
BRANCH  16  18
HETATM   18  O   UNK N   1      20.673  19.624   0.142  0.00  0.00    -0.775 OA
HETATM   19  H   UNK N   1      21.466  19.326  -0.257  0.00  0.00     0.167 HD
ENDBRANCH  16  18
ENDBRANCH  12  16
ENDBRANCH  11  12
ENDBRANCH  10  11
ENDBRANCH   9  10
ENDBRANCH   4   9
BRANCH   1  20
HETATM   20  C   UNK N   1      27.443  19.402   5.450  0.00  0.00     0.137 C 
BRANCH  20  21
HETATM   21  C   UNK N   1      27.776  20.420   6.517  0.00  0.00     0.016 C 
HETATM   22  C   UNK N   1      26.967  21.677   6.275  0.00  0.00     0.006 C 
ENDBRANCH  20  21
ENDBRANCH   1  20
TORSDOF 9
ENDMDL
MODEL 6
REMARK VINA RESULT:      -4.8      2.970      3.222
REMARK  9 active torsions:
REMARK  status: ('A' for Active; 'I' for Inactive)
REMARK    1  A    between atoms: C_2  and  C_3 
REMARK    2  A    between atoms: C_3  and  N_4 
REMARK       I    between atoms: N_4  and  C_5 
REMARK       I    between atoms: C_5  and  N_7 
REMARK    3  A    between atoms: N_7  and  C_8 
REMARK    4  A    between atoms: C_8  and  C_9 
REMARK    5  A    between atoms: C_9  and  C_10 
REMARK    6  A    between atoms: C_10  and  C_11 
REMARK    7  A    between atoms: C_11  and  N_12 
REMARK    8  A    between atoms: C_11  and  C_13 
REMARK    9  A    between atoms: C_13  and  O_14 
ROOT
HETATM    1  N   UNK N   1      34.733  12.656  12.473  0.00  0.00    -0.227 N 
HETATM    2  C   UNK N   1      35.541  13.802  12.259  0.00  0.00     0.667 C 
HETATM    3  N   UNK N   1      36.793  13.772  12.545  0.00  0.00    -0.235 N 
HETATM    4  N   UNK N   1      34.967  14.955  11.654  0.00  0.00    -0.227 N 
HETATM    5  H   UNK N   1      33.775  12.692  12.246  0.00  0.00     0.177 HD
HETATM    6  H   UNK N   1      37.261  12.938  12.778  0.00  0.00     0.174 HD
HETATM    7  H   UNK N   1      37.303  14.614  12.531  0.00  0.00     0.174 HD
HETATM    8  H   UNK N   1      33.988  15.004  11.566  0.00  0.00     0.177 HD
ENDROOT
BRANCH   4   9
HETATM    9  C   UNK N   1      35.762  16.058  11.164  0.00  0.00     0.138 C 
BRANCH   9  10
HETATM   10  C   UNK N   1      35.069  16.777  10.019  0.00  0.00     0.023 C 
BRANCH  10  11
HETATM   11  C   UNK N   1      34.883  15.825   8.849  0.00  0.00     0.037 C 
BRANCH  11  12
HETATM   12  C   UNK N   1      33.419  15.761   8.439  0.00  0.00     0.173 C 
BRANCH  12  13
HETATM   13  N   UNK N   1      32.643  16.724   9.207  0.00  0.00    -0.418 N 
HETATM   14  H   UNK N   1      32.406  17.640   8.825  0.00  0.00     0.150 HD
HETATM   15  H   UNK N   1      32.330  16.478  10.146  0.00  0.00     0.150 HD
ENDBRANCH  12  13
BRANCH  12  16
HETATM   16  C   UNK N   1      32.880  14.372   8.629  0.00  0.00     0.163 C 
HETATM   17  O   UNK N   1      32.181  13.869   7.764  0.00  0.00    -0.648 OA
BRANCH  16  18
HETATM   18  O   UNK N   1      33.139  13.683   9.759  0.00  0.00    -0.775 OA
HETATM   19  H   UNK N   1      32.500  13.233  10.274  0.00  0.00     0.167 HD
ENDBRANCH  16  18
ENDBRANCH  12  16
ENDBRANCH  11  12
ENDBRANCH  10  11
ENDBRANCH   9  10
ENDBRANCH   4   9
BRANCH   1  20
HETATM   20  C   UNK N   1      35.284  11.441  13.017  0.00  0.00     0.137 C 
BRANCH  20  21
HETATM   21  C   UNK N   1      34.170  10.466  13.327  0.00  0.00     0.016 C 
HETATM   22  C   UNK N   1      33.594  10.785  14.691  0.00  0.00     0.006 C 
ENDBRANCH  20  21
ENDBRANCH   1  20
TORSDOF 9
ENDMDL
MODEL 7
REMARK VINA RESULT:      -4.7     11.804     14.523
REMARK  9 active torsions:
REMARK  status: ('A' for Active; 'I' for Inactive)
REMARK    1  A    between atoms: C_2  and  C_3 
REMARK    2  A    between atoms: C_3  and  N_4 
REMARK       I    between atoms: N_4  and  C_5 
REMARK       I    between atoms: C_5  and  N_7 
REMARK    3  A    between atoms: N_7  and  C_8 
REMARK    4  A    between atoms: C_8  and  C_9 
REMARK    5  A    between atoms: C_9  and  C_10 
REMARK    6  A    between atoms: C_10  and  C_11 
REMARK    7  A    between atoms: C_11  and  N_12 
REMARK    8  A    between atoms: C_11  and  C_13 
REMARK    9  A    between atoms: C_13  and  O_14 
ROOT
HETATM    1  N   UNK N   1      26.300  17.649   6.050  0.00  0.00    -0.227 N 
HETATM    2  C   UNK N   1      25.615  18.131   4.905  0.00  0.00     0.667 C 
HETATM    3  N   UNK N   1      26.174  18.084   3.750  0.00  0.00    -0.235 N 
HETATM    4  N   UNK N   1      24.276  18.594   5.040  0.00  0.00    -0.227 N 
HETATM    5  H   UNK N   1      25.858  17.688   6.929  0.00  0.00     0.177 HD
HETATM    6  H   UNK N   1      27.013  17.594   3.589  0.00  0.00     0.174 HD
HETATM    7  H   UNK N   1      25.748  18.554   2.998  0.00  0.00     0.174 HD
HETATM    8  H   UNK N   1      23.918  18.745   5.945  0.00  0.00     0.177 HD
ENDROOT
BRANCH   4   9
HETATM    9  C   UNK N   1      23.421  18.854   3.905  0.00  0.00     0.138 C 
BRANCH   9  10
HETATM   10  C   UNK N   1      21.954  18.699   4.267  0.00  0.00     0.023 C 
BRANCH  10  11
HETATM   11  C   UNK N   1      21.164  18.253   3.047  0.00  0.00     0.037 C 
BRANCH  11  12
HETATM   12  C   UNK N   1      20.164  19.324   2.637  0.00  0.00     0.173 C 
BRANCH  12  13
HETATM   13  N   UNK N   1      18.910  18.706   2.230  0.00  0.00    -0.418 N 
HETATM   14  H   UNK N   1      18.011  19.138   2.444  0.00  0.00     0.150 HD
HETATM   15  H   UNK N   1      18.931  17.823   1.720  0.00  0.00     0.150 HD
ENDBRANCH  12  13
BRANCH  12  16
HETATM   16  C   UNK N   1      20.724  20.171   1.530  0.00  0.00     0.163 C 
HETATM   17  O   UNK N   1      21.295  21.216   1.795  0.00  0.00    -0.648 OA
BRANCH  16  18
HETATM   18  O   UNK N   1      20.578  19.801   0.241  0.00  0.00    -0.775 OA
HETATM   19  H   UNK N   1      20.399  20.384  -0.470  0.00  0.00     0.167 HD
ENDBRANCH  16  18
ENDBRANCH  12  16
ENDBRANCH  11  12
ENDBRANCH  10  11
ENDBRANCH   9  10
ENDBRANCH   4   9
BRANCH   1  20
HETATM   20  C   UNK N   1      27.631  17.104   5.952  0.00  0.00     0.137 C 
BRANCH  20  21
HETATM   21  C   UNK N   1      28.636  18.110   6.467  0.00  0.00     0.016 C 
HETATM   22  C   UNK N   1      29.361  17.522   7.660  0.00  0.00     0.006 C 
ENDBRANCH  20  21
ENDBRANCH   1  20
TORSDOF 9
ENDMDL
MODEL 8
REMARK VINA RESULT:      -4.7      8.198     10.918
REMARK  9 active torsions:
REMARK  status: ('A' for Active; 'I' for Inactive)
REMARK    1  A    between atoms: C_2  and  C_3 
REMARK    2  A    between atoms: C_3  and  N_4 
REMARK       I    between atoms: N_4  and  C_5 
REMARK       I    between atoms: C_5  and  N_7 
REMARK    3  A    between atoms: N_7  and  C_8 
REMARK    4  A    between atoms: C_8  and  C_9 
REMARK    5  A    between atoms: C_9  and  C_10 
REMARK    6  A    between atoms: C_10  and  C_11 
REMARK    7  A    between atoms: C_11  and  N_12 
REMARK    8  A    between atoms: C_11  and  C_13 
REMARK    9  A    between atoms: C_13  and  O_14 
ROOT
HETATM    1  N   UNK N   1      29.379  17.921   7.283  0.00  0.00    -0.227 N 
HETATM    2  C   UNK N   1      28.284  18.769   7.591  0.00  0.00     0.667 C 
HETATM    3  N   UNK N   1      27.802  18.795   8.781  0.00  0.00    -0.235 N 
HETATM    4  N   UNK N   1      27.779  19.643   6.588  0.00  0.00    -0.227 N 
HETATM    5  H   UNK N   1      29.741  17.914   6.368  0.00  0.00     0.177 HD
HETATM    6  H   UNK N   1      28.247  18.355   9.541  0.00  0.00     0.174 HD
HETATM    7  H   UNK N   1      26.956  19.273   8.939  0.00  0.00     0.174 HD
HETATM    8  H   UNK N   1      28.072  19.513   5.657  0.00  0.00     0.177 HD
ENDROOT
BRANCH   4   9
HETATM    9  C   UNK N   1      26.852  20.714   6.880  0.00  0.00     0.138 C 
BRANCH   9  10
HETATM   10  C   UNK N   1      26.240  21.279   5.610  0.00  0.00     0.023 C 
BRANCH  10  11
HETATM   11  C   UNK N   1      26.303  20.242   4.500  0.00  0.00     0.037 C 
BRANCH  11  12
HETATM   12  C   UNK N   1      24.903  19.802   4.099  0.00  0.00     0.173 C 
BRANCH  12  13
HETATM   13  N   UNK N   1      24.900  18.383   3.774  0.00  0.00    -0.418 N 
HETATM   14  H   UNK N   1      24.956  17.671   4.503  0.00  0.00     0.150 HD
HETATM   15  H   UNK N   1      24.841  18.094   2.798  0.00  0.00     0.150 HD
ENDBRANCH  12  13
BRANCH  12  16
HETATM   16  C   UNK N   1      24.410  20.614   2.936  0.00  0.00     0.163 C 
HETATM   17  O   UNK N   1      23.312  21.147   2.990  0.00  0.00    -0.648 OA
BRANCH  16  18
HETATM   18  O   UNK N   1      25.156  20.740   1.819  0.00  0.00    -0.775 OA
HETATM   19  H   UNK N   1      25.982  21.177   1.770  0.00  0.00     0.167 HD
ENDBRANCH  16  18
ENDBRANCH  12  16
ENDBRANCH  11  12
ENDBRANCH  10  11
ENDBRANCH   9  10
ENDBRANCH   4   9
BRANCH   1  20
HETATM   20  C   UNK N   1      29.971  17.070   8.284  0.00  0.00     0.137 C 
BRANCH  20  21
HETATM   21  C   UNK N   1      31.477  17.214   8.254  0.00  0.00     0.016 C 
HETATM   22  C   UNK N   1      32.107  15.959   8.820  0.00  0.00     0.006 C 
ENDBRANCH  20  21
ENDBRANCH   1  20
TORSDOF 9
ENDMDL
MODEL 9
REMARK VINA RESULT:      -4.6      3.878      7.204
REMARK  9 active torsions:
REMARK  status: ('A' for Active; 'I' for Inactive)
REMARK    1  A    between atoms: C_2  and  C_3 
REMARK    2  A    between atoms: C_3  and  N_4 
REMARK       I    between atoms: N_4  and  C_5 
REMARK       I    between atoms: C_5  and  N_7 
REMARK    3  A    between atoms: N_7  and  C_8 
REMARK    4  A    between atoms: C_8  and  C_9 
REMARK    5  A    between atoms: C_9  and  C_10 
REMARK    6  A    between atoms: C_10  and  C_11 
REMARK    7  A    between atoms: C_11  and  N_12 
REMARK    8  A    between atoms: C_11  and  C_13 
REMARK    9  A    between atoms: C_13  and  O_14 
ROOT
HETATM    1  N   UNK N   1      33.007  17.446   8.969  0.00  0.00    -0.227 N 
HETATM    2  C   UNK N   1      34.073  16.585   9.335  0.00  0.00     0.667 C 
HETATM    3  N   UNK N   1      34.460  15.660   8.533  0.00  0.00    -0.235 N 
HETATM    4  N   UNK N   1      34.757  16.807  10.563  0.00  0.00    -0.227 N 
HETATM    5  H   UNK N   1      32.723  18.154   9.592  0.00  0.00     0.177 HD
HETATM    6  H   UNK N   1      34.145  15.603   7.602  0.00  0.00     0.174 HD
HETATM    7  H   UNK N   1      35.095  14.983   8.861  0.00  0.00     0.174 HD
HETATM    8  H   UNK N   1      34.363  17.430  11.216  0.00  0.00     0.177 HD
ENDROOT
BRANCH   4   9
HETATM    9  C   UNK N   1      36.004  16.156  10.892  0.00  0.00     0.138 C 
BRANCH   9  10
HETATM   10  C   UNK N   1      35.858  15.261  12.111  0.00  0.00     0.023 C 
BRANCH  10  11
HETATM   11  C   UNK N   1      36.548  13.930  11.860  0.00  0.00     0.037 C 
BRANCH  11  12
HETATM   12  C   UNK N   1      35.831  12.809  12.599  0.00  0.00     0.173 C 
BRANCH  12  13
HETATM   13  N   UNK N   1      34.476  12.660  12.087  0.00  0.00    -0.418 N 
HETATM   14  H   UNK N   1      34.296  12.532  11.091  0.00  0.00     0.150 HD
HETATM   15  H   UNK N   1      33.691  12.684  12.738  0.00  0.00     0.150 HD
ENDBRANCH  12  13
BRANCH  12  16
HETATM   16  C   UNK N   1      35.814  13.080  14.076  0.00  0.00     0.163 C 
HETATM   17  O   UNK N   1      36.866  13.168  14.689  0.00  0.00    -0.648 OA
BRANCH  16  18
HETATM   18  O   UNK N   1      34.646  13.199  14.739  0.00  0.00    -0.775 OA
HETATM   19  H   UNK N   1      34.433  13.890  15.335  0.00  0.00     0.167 HD
ENDBRANCH  16  18
ENDBRANCH  12  16
ENDBRANCH  11  12
ENDBRANCH  10  11
ENDBRANCH   9  10
ENDBRANCH   4   9
BRANCH   1  20
HETATM   20  C   UNK N   1      32.331  17.306   7.705  0.00  0.00     0.137 C 
BRANCH  20  21
HETATM   21  C   UNK N   1      30.833  17.345   7.916  0.00  0.00     0.016 C 
HETATM   22  C   UNK N   1      30.505  18.395   8.956  0.00  0.00     0.006 C 
ENDBRANCH  20  21
ENDBRANCH   1  20
TORSDOF 9
ENDMDL
