REMARK  11 active torsions:
REMARK  status: ('A' for Active; 'I' for Inactive)
REMARK    1  A    between atoms: C_4  and  N_5 
REMARK    2  A    between atoms: C_6  and  C_7 
REMARK    3  A    between atoms: C_7  and  N_8 
REMARK    4  A    between atoms: C_11  and  C_12 
REMARK    5  A    between atoms: C_12  and  C_13 
REMARK    6  A    between atoms: C_13  and  O_14 
REMARK    7  A    between atoms: P_15  and  O_14 
REMARK    8  A    between atoms: P_15  and  O_16 
REMARK    9  A    between atoms: P_15  and  O_18 
REMARK   10  A    between atoms: O_18  and  P_19 
REMARK   11  A    between atoms: P_19  and  O_20 
ROOT
HETATM    1  N   UNK N   1      -3.103   3.863  -0.366  0.00  0.00    -0.349 N 
HETATM    2  C   UNK N   1      -3.462   4.721  -1.351  0.00  0.00     0.141 A 
HETATM    3  S   UNK N   1      -2.808   6.207  -0.985  0.00  0.00    -0.087 SA
HETATM    4  C   UNK N   1      -2.053   5.789   0.424  0.00  0.00     0.008 A 
HETATM    5  C   UNK N   1      -2.324   4.431   0.626  0.00  0.00     0.021 A 
HETATM    6  C   UNK N   1      -1.810   3.666   1.796  0.00  0.00     0.069 C 
ENDROOT
BRANCH   4   7
HETATM    7  C   UNK N   1      -1.226   6.671   1.302  0.00  0.00     0.075 C 
BRANCH   7   8
HETATM    8  C   UNK N   1       0.240   6.651   0.882  0.00  0.00     0.185 C 
BRANCH   8   9
HETATM    9  O   UNK N   1       0.793   5.366   0.993  0.00  0.00    -0.296 OA
BRANCH   9  10
HETATM   10  P   UNK N   1       1.137   4.818  -0.636  0.00  0.00     0.402 P 
HETATM   11  O   UNK N   1       0.889   5.958  -1.663  0.00  0.00    -0.631 OA
BRANCH  10  12
HETATM   12  O   UNK N   1       0.035   3.548  -1.075  0.00  0.00    -0.307 OA
HETATM   13  H   UNK N   1      -0.886   3.726  -1.320  0.00  0.00     0.222 HD
ENDBRANCH  10  12
BRANCH  10  14
HETATM   14  O   UNK N   1       2.761   4.248  -0.919  0.00  0.00    -0.188 OA
BRANCH  14  15
HETATM   15  P   UNK N   1       3.950   5.217  -0.068  0.00  0.00     0.414 P 
HETATM   16  O   UNK N   1       4.713   4.111   1.001  0.00  0.00    -0.624 OA
HETATM   17  O   UNK N   1       3.370   6.321   0.863  0.00  0.00    -0.624 OA
BRANCH  15  18
HETATM   18  O   UNK N   1       5.229   5.862  -1.058  0.00  0.00    -0.300 OA
HETATM   19  H   UNK N   1       5.896   5.425  -1.610  0.00  0.00     0.223 HD
ENDBRANCH  15  18
ENDBRANCH  14  15
ENDBRANCH  10  14
ENDBRANCH   9  10
ENDBRANCH   8   9
ENDBRANCH   7   8
ENDBRANCH   4   7
BRANCH   1  20
HETATM   20  C   UNK N   1      -3.476   2.446  -0.337  0.00  0.00     0.171 C 
BRANCH  20  21
HETATM   21  C   UNK N   1      -4.959   2.231  -0.285  0.00  0.00     0.002 A 
HETATM   22  C   UNK N   1      -5.801   2.924   0.607  0.00  0.00     0.036 A 
HETATM   23  C   UNK N   1      -7.165   2.635   0.633  0.00  0.00     0.054 A 
HETATM   24  C   UNK N   1      -7.677   1.656  -0.218  0.00  0.00     0.007 A 
HETATM   25  C   UNK N   1      -9.125   1.329  -0.184  0.00  0.00     0.068 C 
HETATM   26  N   UNK N   1      -6.851   0.995  -1.073  0.00  0.00    -0.369 N 
HETATM   27  C   UNK N   1      -5.518   1.262  -1.123  0.00  0.00     0.099 A 
ATOM     28  HN  UNK N   1      -7.240   0.283  -1.691  1.00  0.00     0.165 HD
BRANCH  22  29
HETATM   29  N   UNK N   1      -5.290   3.907   1.482  0.00  0.00    -0.399 N 
HETATM   30  H   UNK N   1      -4.518   3.941   2.092  0.00  0.00     0.156 HD
HETATM   31  H   UNK N   1      -5.820   4.737   1.482  0.00  0.00     0.156 HD
ENDBRANCH  22  29
ENDBRANCH  20  21
ENDBRANCH   1  20
TORSDOF 11
