MODEL 1
REMARK VINA RESULT:      -4.8      0.000      0.000
REMARK  1 active torsions:
REMARK  status: ('A' for Active; 'I' for Inactive)
REMARK    1  A    between atoms: C_4  and  C_2 
ROOT
HETATM    1  C   UNK N   1      34.742  12.546  16.854  0.00  0.00     0.016 C 
HETATM    2  C   UNK N   1      35.144  11.078  16.879  0.00  0.00     0.012 C 
HETATM    3  C   UNK N   1      34.470  10.341  15.730  0.00  0.00     0.041 C 
HETATM    4  C   UNK N   1      34.624  11.046  14.381  0.00  0.00     0.084 A 
HETATM    5  C   UNK N   1      34.009  10.417  13.152  0.00  0.00     0.049 C 
HETATM    6  O   UNK N   1      35.941  11.453  14.116  0.00  0.00    -0.370 OA
HETATM    7  C   UNK N   1      34.991  12.493  14.289  0.00  0.00     0.157 A 
HETATM    8  C   UNK N   1      35.337  13.200  15.603  0.00  0.00     0.044 C 
ENDROOT
BRANCH   1   9
HETATM    9  C   UNK N   1      35.191  13.226  18.124  0.00  0.00    -0.089 C 
HETATM   10  C   UNK N   1      35.341  12.476  19.409  0.00  0.00     0.043 C 
HETATM   11  C   UNK N   1      35.485  14.525  18.107  0.00  0.00     0.014 C 
ENDBRANCH   1   9
TORSDOF 1
ENDMDL
MODEL 2
REMARK VINA RESULT:      -4.8      1.543      2.203
REMARK  1 active torsions:
REMARK  status: ('A' for Active; 'I' for Inactive)
REMARK    1  A    between atoms: C_4  and  C_2 
ROOT
HETATM    1  C   UNK N   1      35.636  12.328  16.193  0.00  0.00     0.016 C 
HETATM    2  C   UNK N   1      36.332  13.557  15.625  0.00  0.00     0.012 C 
HETATM    3  C   UNK N   1      36.858  13.249  14.230  0.00  0.00     0.041 C 
HETATM    4  C   UNK N   1      35.818  12.596  13.317  0.00  0.00     0.084 A 
HETATM    5  C   UNK N   1      36.207  12.245  11.899  0.00  0.00     0.049 C 
HETATM    6  O   UNK N   1      34.577  13.249  13.336  0.00  0.00    -0.370 OA
HETATM    7  C   UNK N   1      34.597  11.933  13.868  0.00  0.00     0.157 A 
HETATM    8  C   UNK N   1      34.367  12.057  15.377  0.00  0.00     0.044 C 
ENDROOT
BRANCH   1   9
HETATM    9  C   UNK N   1      35.339  12.535  17.659  0.00  0.00    -0.089 C 
HETATM   10  C   UNK N   1      35.293  11.392  18.622  0.00  0.00     0.043 C 
HETATM   11  C   UNK N   1      35.133  13.767  18.121  0.00  0.00     0.014 C 
ENDBRANCH   1   9
TORSDOF 1
ENDMDL
MODEL 3
REMARK VINA RESULT:      -4.7      1.403      1.849
REMARK  1 active torsions:
REMARK  status: ('A' for Active; 'I' for Inactive)
REMARK    1  A    between atoms: C_4  and  C_2 
ROOT
HETATM    1  C   UNK N   1      35.056  13.047  16.065  0.00  0.00     0.016 C 
HETATM    2  C   UNK N   1      34.891  11.704  15.367  0.00  0.00     0.012 C 
HETATM    3  C   UNK N   1      34.499  11.925  13.914  0.00  0.00     0.041 C 
HETATM    4  C   UNK N   1      35.386  12.942  13.191  0.00  0.00     0.084 A 
HETATM    5  C   UNK N   1      35.111  13.249  11.737  0.00  0.00     0.049 C 
HETATM    6  O   UNK N   1      36.757  12.724  13.394  0.00  0.00    -0.370 OA
HETATM    7  C   UNK N   1      36.228  13.922  13.943  0.00  0.00     0.157 A 
HETATM    8  C   UNK N   1      36.267  13.770  15.467  0.00  0.00     0.044 C 
ENDROOT
BRANCH   1   9
HETATM    9  C   UNK N   1      35.190  12.842  17.554  0.00  0.00    -0.089 C 
HETATM   10  C   UNK N   1      35.315  11.478  18.154  0.00  0.00     0.043 C 
HETATM   11  C   UNK N   1      35.219  13.900  18.364  0.00  0.00     0.014 C 
ENDBRANCH   1   9
TORSDOF 1
ENDMDL
MODEL 4
REMARK VINA RESULT:      -4.7     13.805     15.401
REMARK  1 active torsions:
REMARK  status: ('A' for Active; 'I' for Inactive)
REMARK    1  A    between atoms: C_4  and  C_2 
ROOT
HETATM    1  C   UNK N   1      22.339  13.510   9.729  0.00  0.00     0.016 C 
HETATM    2  C   UNK N   1      20.858  13.530  10.079  0.00  0.00     0.012 C 
HETATM    3  C   UNK N   1      20.175  14.681   9.354  0.00  0.00     0.041 C 
HETATM    4  C   UNK N   1      20.503  14.740   7.861  0.00  0.00     0.084 A 
HETATM    5  C   UNK N   1      19.882  15.832   7.018  0.00  0.00     0.049 C 
HETATM    6  O   UNK N   1      20.384  13.499   7.218  0.00  0.00    -0.370 OA
HETATM    7  C   UNK N   1      21.694  14.040   7.291  0.00  0.00     0.157 A 
HETATM    8  C   UNK N   1      22.493  13.150   8.248  0.00  0.00     0.044 C 
ENDROOT
BRANCH   1   9
HETATM    9  C   UNK N   1      23.070  12.545  10.631  0.00  0.00    -0.089 C 
HETATM   10  C   UNK N   1      24.492  12.156  10.382  0.00  0.00     0.043 C 
HETATM   11  C   UNK N   1      22.447  12.036  11.692  0.00  0.00     0.014 C 
ENDBRANCH   1   9
TORSDOF 1
ENDMDL
MODEL 5
REMARK VINA RESULT:      -4.7      1.450      2.889
REMARK  1 active torsions:
REMARK  status: ('A' for Active; 'I' for Inactive)
REMARK    1  A    between atoms: C_4  and  C_2 
ROOT
HETATM    1  C   UNK N   1      35.513  11.378  17.292  0.00  0.00     0.016 C 
HETATM    2  C   UNK N   1      35.136  12.837  17.506  0.00  0.00     0.012 C 
HETATM    3  C   UNK N   1      35.813  13.702  16.452  0.00  0.00     0.041 C 
HETATM    4  C   UNK N   1      35.637  13.175  15.026  0.00  0.00     0.084 A 
HETATM    5  C   UNK N   1      36.254  13.944  13.880  0.00  0.00     0.049 C 
HETATM    6  O   UNK N   1      34.312  12.826  14.725  0.00  0.00    -0.370 OA
HETATM    7  C   UNK N   1      35.245  11.757  14.757  0.00  0.00     0.157 A 
HETATM    8  C   UNK N   1      34.897  10.896  15.975  0.00  0.00     0.044 C 
ENDROOT
BRANCH   1   9
HETATM    9  C   UNK N   1      35.061  10.551  18.471  0.00  0.00    -0.089 C 
HETATM   10  C   UNK N   1      35.236  11.024  19.879  0.00  0.00     0.043 C 
HETATM   11  C   UNK N   1      34.472   9.374  18.263  0.00  0.00     0.014 C 
ENDBRANCH   1   9
TORSDOF 1
ENDMDL
MODEL 6
REMARK VINA RESULT:      -4.5     26.027     27.401
REMARK  1 active torsions:
REMARK  status: ('A' for Active; 'I' for Inactive)
REMARK    1  A    between atoms: C_4  and  C_2 
ROOT
HETATM    1  C   UNK N   1      26.714  26.916  -5.478  0.00  0.00     0.016 C 
HETATM    2  C   UNK N   1      25.712  26.777  -6.616  0.00  0.00     0.012 C 
HETATM    3  C   UNK N   1      25.892  25.427  -7.296  0.00  0.00     0.041 C 
HETATM    4  C   UNK N   1      25.949  24.254  -6.315  0.00  0.00     0.084 A 
HETATM    5  C   UNK N   1      26.117  22.853  -6.859  0.00  0.00     0.049 C 
HETATM    6  O   UNK N   1      24.927  24.285  -5.354  0.00  0.00    -0.370 OA
HETATM    7  C   UNK N   1      26.248  24.457  -4.864  0.00  0.00     0.157 A 
HETATM    8  C   UNK N   1      26.361  25.906  -4.381  0.00  0.00     0.044 C 
ENDROOT
BRANCH   1   9
HETATM    9  C   UNK N   1      26.719  28.337  -4.967  0.00  0.00    -0.089 C 
HETATM   10  C   UNK N   1      27.585  29.391  -5.579  0.00  0.00     0.043 C 
HETATM   11  C   UNK N   1      25.920  28.676  -3.956  0.00  0.00     0.014 C 
ENDBRANCH   1   9
TORSDOF 1
ENDMDL
MODEL 7
REMARK VINA RESULT:      -4.4     25.986     27.290
REMARK  1 active torsions:
REMARK  status: ('A' for Active; 'I' for Inactive)
REMARK    1  A    between atoms: C_4  and  C_2 
ROOT
HETATM    1  C   UNK N   1      26.332  26.104  -5.638  0.00  0.00     0.016 C 
HETATM    2  C   UNK N   1      27.074  25.742  -4.359  0.00  0.00     0.012 C 
HETATM    3  C   UNK N   1      27.672  26.997  -3.740  0.00  0.00     0.041 C 
HETATM    4  C   UNK N   1      26.676  28.153  -3.624  0.00  0.00     0.084 A 
HETATM    5  C   UNK N   1      27.139  29.459  -3.018  0.00  0.00     0.049 C 
HETATM    6  O   UNK N   1      25.443  27.769  -3.075  0.00  0.00    -0.370 OA
HETATM    7  C   UNK N   1      25.418  28.189  -4.431  0.00  0.00     0.157 A 
HETATM    8  C   UNK N   1      25.108  26.951  -5.277  0.00  0.00     0.044 C 
ENDROOT
BRANCH   1   9
HETATM    9  C   UNK N   1      25.958  24.849  -6.389  0.00  0.00    -0.089 C 
HETATM   10  C   UNK N   1      25.720  24.856  -7.866  0.00  0.00     0.043 C 
HETATM   11  C   UNK N   1      25.854  23.694  -5.733  0.00  0.00     0.014 C 
ENDBRANCH   1   9
TORSDOF 1
ENDMDL
MODEL 8
REMARK VINA RESULT:      -4.3      7.788      9.369
REMARK  1 active torsions:
REMARK  status: ('A' for Active; 'I' for Inactive)
REMARK    1  A    between atoms: C_4  and  C_2 
ROOT
HETATM    1  C   UNK N   1      34.078  15.823   8.871  0.00  0.00     0.016 C 
HETATM    2  C   UNK N   1      35.004  15.423   7.731  0.00  0.00     0.012 C 
HETATM    3  C   UNK N   1      34.307  15.655   6.399  0.00  0.00     0.041 C 
HETATM    4  C   UNK N   1      33.669  17.041   6.278  0.00  0.00     0.084 A 
HETATM    5  C   UNK N   1      32.949  17.406   4.999  0.00  0.00     0.049 C 
HETATM    6  O   UNK N   1      34.524  18.080   6.673  0.00  0.00    -0.370 OA
HETATM    7  C   UNK N   1      33.376  17.877   7.483  0.00  0.00     0.157 A 
HETATM    8  C   UNK N   1      33.868  17.340   8.830  0.00  0.00     0.044 C 
ENDROOT
BRANCH   1   9
HETATM    9  C   UNK N   1      34.652  15.361  10.189  0.00  0.00    -0.089 C 
HETATM   10  C   UNK N   1      35.353  16.301  11.116  0.00  0.00     0.043 C 
HETATM   11  C   UNK N   1      34.519  14.087  10.555  0.00  0.00     0.014 C 
ENDBRANCH   1   9
TORSDOF 1
ENDMDL
MODEL 9
REMARK VINA RESULT:      -4.2     25.410     27.083
REMARK  1 active torsions:
REMARK  status: ('A' for Active; 'I' for Inactive)
REMARK    1  A    between atoms: C_4  and  C_2 
ROOT
HETATM    1  C   UNK N   1      26.892  26.380  -4.027  0.00  0.00     0.016 C 
HETATM    2  C   UNK N   1      25.615  27.132  -4.375  0.00  0.00     0.012 C 
HETATM    3  C   UNK N   1      25.809  28.619  -4.119  0.00  0.00     0.041 C 
HETATM    4  C   UNK N   1      27.094  29.180  -4.730  0.00  0.00     0.084 A 
HETATM    5  C   UNK N   1      27.406  30.650  -4.558  0.00  0.00     0.049 C 
HETATM    6  O   UNK N   1      27.288  28.792  -6.065  0.00  0.00    -0.370 OA
HETATM    7  C   UNK N   1      28.228  28.289  -5.127  0.00  0.00     0.157 A 
HETATM    8  C   UNK N   1      27.988  26.781  -5.019  0.00  0.00     0.044 C 
ENDROOT
BRANCH   1   9
HETATM    9  C   UNK N   1      26.633  24.893  -4.030  0.00  0.00    -0.089 C 
HETATM   10  C   UNK N   1      25.761  24.247  -5.059  0.00  0.00     0.043 C 
HETATM   11  C   UNK N   1      27.207  24.122  -3.107  0.00  0.00     0.014 C 
ENDBRANCH   1   9
TORSDOF 1
ENDMDL
