MODEL 1
REMARK VINA RESULT:      -7.7      0.000      0.000
REMARK  17 active torsions:
REMARK  status: ('A' for Active; 'I' for Inactive)
REMARK    1  A    between atoms: C_5  and  C_3 
REMARK    2  A    between atoms: O_20  and  C_3 
REMARK    3  A    between atoms: C_6  and  C_4 
REMARK    4  A    between atoms: O_31  and  C_4 
REMARK    5  A    between atoms: O_21  and  C_7 
REMARK    6  A    between atoms: C_9  and  O_22 
REMARK    7  A    between atoms: C_10  and  O_23 
REMARK    8  A    between atoms: C_11  and  O_24 
REMARK    9  A    between atoms: C_12  and  O_25 
REMARK   10  A    between atoms: C_13  and  N_19 
REMARK   11  A    between atoms: C_14  and  O_34 
REMARK   12  A    between atoms: P_36  and  O_27 
REMARK   13  A    between atoms: P_37  and  O_29 
REMARK   14  A    between atoms: P_36  and  O_31 
REMARK   15  A    between atoms: P_37  and  O_34 
REMARK   16  A    between atoms: P_36  and  O_35 
REMARK   17  A    between atoms: P_37  and  O_35 
ROOT
HETATM    1  O   UNK N   1      25.814  16.060   4.146  0.00  0.00    -0.631 OA
HETATM    2  P   UNK N   1      26.440  17.477   4.027  0.00  0.00     0.401 P 
ENDROOT
BRANCH   2   3
HETATM    3  O   UNK N   1      26.182  18.216   5.576  0.00  0.00    -0.307 OA
HETATM    4  H   UNK N   1      26.431  18.033   6.496  0.00  0.00     0.222 HD
ENDBRANCH   2   3
BRANCH   2   5
HETATM    5  O   UNK N   1      28.137  17.258   3.718  0.00  0.00    -0.294 OA
BRANCH   5   6
HETATM    6  C   UNK N   1      28.766  17.798   4.837  0.00  0.00     0.215 C 
BRANCH   6   7
HETATM    7  C   UNK N   1      30.074  17.096   5.122  0.00  0.00     0.180 C 
HETATM    8  C   UNK N   1      29.968  15.574   5.019  0.00  0.00     0.182 C 
HETATM    9  C   UNK N   1      31.198  15.238   5.810  0.00  0.00     0.198 C 
HETATM   10  C   UNK N   1      31.013  16.206   6.988  0.00  0.00     0.263 C 
HETATM   11  O   UNK N   1      30.502  17.405   6.433  0.00  0.00    -0.353 OA
BRANCH   8  12
HETATM   12  O   UNK N   1      28.821  15.110   5.681  0.00  0.00    -0.390 OA
HETATM   13  H   UNK N   1      27.938  14.727   5.796  0.00  0.00     0.210 HD
ENDBRANCH   8  12
BRANCH   9  14
HETATM   14  O   UNK N   1      31.248  13.897   6.201  0.00  0.00    -0.388 OA
HETATM   15  H   UNK N   1      31.920  13.419   6.713  0.00  0.00     0.210 HD
ENDBRANCH   9  14
BRANCH  10  16
HETATM   16  N   UNK N   1      32.184  16.510   7.843  0.00  0.00    -0.280 N 
HETATM   17  C   UNK N   1      32.850  17.663   7.536  0.00  0.00     0.103 A 
HETATM   18  C   UNK N   1      33.974  18.065   8.249  0.00  0.00     0.073 A 
HETATM   19  C   UNK N   1      34.421  17.269   9.291  0.00  0.00     0.144 A 
HETATM   20  N   UNK N   1      33.761  16.129   9.602  0.00  0.00    -0.289 N 
HETATM   21  C   UNK N   1      32.649  15.734   8.901  0.00  0.00     0.330 A 
ATOM     22  HN  UNK N   1      34.096  15.551  10.373  1.00  0.00     0.172 HD
HETATM   23  O   UNK N   1      32.093  14.704   9.225  0.00  0.00    -0.246 OA
BRANCH  19  24
HETATM   24  O   UNK N   1      35.507  17.630   9.994  0.00  0.00    -0.346 OA
HETATM   25  H   UNK N   1      36.363  17.482   9.644  0.00  0.00     0.219 HD
ENDBRANCH  19  24
ENDBRANCH  10  16
ENDBRANCH   6   7
ENDBRANCH   5   6
ENDBRANCH   2   5
BRANCH   2  26
HETATM   26  O   UNK N   1      25.572  18.304   2.753  0.00  0.00    -0.195 OA
BRANCH  26  27
HETATM   27  P   UNK N   1      25.073  19.872   3.345  0.00  0.00     0.404 P 
HETATM   28  O   UNK N   1      24.769  20.728   2.085  0.00  0.00    -0.631 OA
BRANCH  27  29
HETATM   29  O   UNK N   1      26.363  20.728   4.128  0.00  0.00    -0.307 OA
HETATM   30  H   UNK N   1      26.271  21.402   4.820  0.00  0.00     0.222 HD
ENDBRANCH  27  29
BRANCH  27  31
HETATM   31  O   UNK N   1      23.612  19.871   4.322  0.00  0.00    -0.262 OA
BRANCH  31  32
HETATM   32  C   UNK N   1      22.534  19.407   3.542  0.00  0.00     0.308 C 
HETATM   33  C   UNK N   1      21.982  18.088   4.137  0.00  0.00     0.256 C 
HETATM   34  C   UNK N   1      20.545  17.813   3.622  0.00  0.00     0.188 C 
HETATM   35  F   UNK N   1      22.847  17.068   3.770  0.00  0.00    -0.241 F 
HETATM   36  C   UNK N   1      20.360  18.476   2.256  0.00  0.00     0.180 C 
HETATM   37  C   UNK N   1      20.512  20.013   2.495  0.00  0.00     0.179 C 
HETATM   38  O   UNK N   1      21.503  20.371   3.462  0.00  0.00    -0.348 OA
BRANCH  34  39
HETATM   39  O   UNK N   1      20.288  16.441   3.579  0.00  0.00    -0.390 OA
HETATM   40  H   UNK N   1      20.788  15.635   3.369  0.00  0.00     0.210 HD
ENDBRANCH  34  39
BRANCH  36  41
HETATM   41  O   UNK N   1      19.100  18.198   1.720  0.00  0.00    -0.390 OA
HETATM   42  H   UNK N   1      18.314  18.688   2.007  0.00  0.00     0.210 HD
ENDBRANCH  36  41
BRANCH  37  43
HETATM   43  C   UNK N   1      20.702  20.791   1.192  0.00  0.00     0.198 C 
BRANCH  43  44
HETATM   44  O   UNK N   1      20.674  19.938   0.087  0.00  0.00    -0.398 OA
HETATM   45  H   UNK N   1      21.315  19.638  -0.576  0.00  0.00     0.209 HD
ENDBRANCH  43  44
ENDBRANCH  37  43
ENDBRANCH  31  32
ENDBRANCH  27  31
ENDBRANCH  26  27
ENDBRANCH   2  26
TORSDOF 17
ENDMDL
MODEL 2
REMARK VINA RESULT:      -7.6      1.741      2.656
REMARK  17 active torsions:
REMARK  status: ('A' for Active; 'I' for Inactive)
REMARK    1  A    between atoms: C_5  and  C_3 
REMARK    2  A    between atoms: O_20  and  C_3 
REMARK    3  A    between atoms: C_6  and  C_4 
REMARK    4  A    between atoms: O_31  and  C_4 
REMARK    5  A    between atoms: O_21  and  C_7 
REMARK    6  A    between atoms: C_9  and  O_22 
REMARK    7  A    between atoms: C_10  and  O_23 
REMARK    8  A    between atoms: C_11  and  O_24 
REMARK    9  A    between atoms: C_12  and  O_25 
REMARK   10  A    between atoms: C_13  and  N_19 
REMARK   11  A    between atoms: C_14  and  O_34 
REMARK   12  A    between atoms: P_36  and  O_27 
REMARK   13  A    between atoms: P_37  and  O_29 
REMARK   14  A    between atoms: P_36  and  O_31 
REMARK   15  A    between atoms: P_37  and  O_34 
REMARK   16  A    between atoms: P_36  and  O_35 
REMARK   17  A    between atoms: P_37  and  O_35 
ROOT
HETATM    1  O   UNK N   1      27.947  21.053   5.975  0.00  0.00    -0.631 OA
HETATM    2  P   UNK N   1      27.145  20.049   5.101  0.00  0.00     0.401 P 
ENDROOT
BRANCH   2   3
HETATM    3  O   UNK N   1      28.045  19.919   3.623  0.00  0.00    -0.307 OA
HETATM    4  H   UNK N   1      27.845  19.906   2.673  0.00  0.00     0.222 HD
ENDBRANCH   2   3
BRANCH   2   5
HETATM    5  O   UNK N   1      27.127  18.534   5.953  0.00  0.00    -0.294 OA
BRANCH   5   6
HETATM    6  C   UNK N   1      28.369  17.968   5.681  0.00  0.00     0.215 C 
BRANCH   6   7
HETATM    7  C   UNK N   1      28.941  17.288   6.904  0.00  0.00     0.180 C 
HETATM    8  C   UNK N   1      28.467  17.921   8.213  0.00  0.00     0.182 C 
HETATM    9  C   UNK N   1      29.551  17.378   9.097  0.00  0.00     0.198 C 
HETATM   10  C   UNK N   1      30.768  17.654   8.202  0.00  0.00     0.263 C 
HETATM   11  O   UNK N   1      30.352  17.374   6.877  0.00  0.00    -0.353 OA
BRANCH   8  12
HETATM   12  O   UNK N   1      28.546  19.320   8.146  0.00  0.00    -0.390 OA
HETATM   13  H   UNK N   1      28.354  20.246   8.358  0.00  0.00     0.210 HD
ENDBRANCH   8  12
BRANCH   9  14
HETATM   14  O   UNK N   1      29.620  18.021  10.335  0.00  0.00    -0.388 OA
HETATM   15  H   UNK N   1      29.761  18.958  10.547  0.00  0.00     0.210 HD
ENDBRANCH   9  14
BRANCH  10  16
HETATM   16  N   UNK N   1      32.033  16.938   8.490  0.00  0.00    -0.280 N 
HETATM   17  C   UNK N   1      31.895  15.640   8.891  0.00  0.00     0.103 A 
HETATM   18  C   UNK N   1      32.998  14.854   9.205  0.00  0.00     0.073 A 
HETATM   19  C   UNK N   1      34.262  15.413   9.107  0.00  0.00     0.144 A 
HETATM   20  N   UNK N   1      34.404  16.698   8.704  0.00  0.00    -0.289 N 
HETATM   21  C   UNK N   1      33.315  17.472   8.391  0.00  0.00     0.330 A 
ATOM     22  HN  UNK N   1      35.340  17.098   8.632  1.00  0.00     0.172 HD
HETATM   23  O   UNK N   1      33.501  18.617   8.031  0.00  0.00    -0.246 OA
BRANCH  19  24
HETATM   24  O   UNK N   1      35.345  14.678   9.409  0.00  0.00    -0.346 OA
HETATM   25  H   UNK N   1      35.775  14.792  10.233  0.00  0.00     0.219 HD
ENDBRANCH  19  24
ENDBRANCH  10  16
ENDBRANCH   6   7
ENDBRANCH   5   6
ENDBRANCH   2   5
BRANCH   2  26
HETATM   26  O   UNK N   1      25.565  20.757   4.847  0.00  0.00    -0.195 OA
BRANCH  26  27
HETATM   27  P   UNK N   1      24.639  19.696   3.809  0.00  0.00     0.404 P 
HETATM   28  O   UNK N   1      25.664  18.722   3.168  0.00  0.00    -0.631 OA
BRANCH  27  29
HETATM   29  O   UNK N   1      23.951  20.528   2.451  0.00  0.00    -0.307 OA
HETATM   30  H   UNK N   1      23.922  21.489   2.318  0.00  0.00     0.222 HD
ENDBRANCH  27  29
BRANCH  27  31
HETATM   31  O   UNK N   1      23.443  18.705   4.633  0.00  0.00    -0.262 OA
BRANCH  31  32
HETATM   32  C   UNK N   1      22.291  18.606   3.829  0.00  0.00     0.308 C 
HETATM   33  C   UNK N   1      21.474  17.353   4.231  0.00  0.00     0.256 C 
HETATM   34  C   UNK N   1      20.011  17.469   3.729  0.00  0.00     0.188 C 
HETATM   35  F   UNK N   1      22.104  16.248   3.680  0.00  0.00    -0.241 F 
HETATM   36  C   UNK N   1      19.968  18.364   2.490  0.00  0.00     0.180 C 
HETATM   37  C   UNK N   1      20.441  19.778   2.959  0.00  0.00     0.179 C 
HETATM   38  O   UNK N   1      21.486  19.764   3.935  0.00  0.00    -0.348 OA
BRANCH  34  39
HETATM   39  O   UNK N   1      19.469  16.205   3.483  0.00  0.00    -0.390 OA
HETATM   40  H   UNK N   1      19.770  15.284   3.548  0.00  0.00     0.210 HD
ENDBRANCH  34  39
BRANCH  36  41
HETATM   41  O   UNK N   1      18.677  18.444   1.961  0.00  0.00    -0.390 OA
HETATM   42  H   UNK N   1      18.144  17.647   1.818  0.00  0.00     0.210 HD
ENDBRANCH  36  41
BRANCH  37  43
HETATM   43  C   UNK N   1      20.789  20.696   1.787  0.00  0.00     0.198 C 
BRANCH  43  44
HETATM   44  O   UNK N   1      20.702  20.017   0.570  0.00  0.00    -0.398 OA
HETATM   45  H   UNK N   1      20.287  20.182  -0.290  0.00  0.00     0.209 HD
ENDBRANCH  43  44
ENDBRANCH  37  43
ENDBRANCH  31  32
ENDBRANCH  27  31
ENDBRANCH  26  27
ENDBRANCH   2  26
TORSDOF 17
ENDMDL
MODEL 3
REMARK VINA RESULT:      -7.6      6.524     10.494
REMARK  17 active torsions:
REMARK  status: ('A' for Active; 'I' for Inactive)
REMARK    1  A    between atoms: C_5  and  C_3 
REMARK    2  A    between atoms: O_20  and  C_3 
REMARK    3  A    between atoms: C_6  and  C_4 
REMARK    4  A    between atoms: O_31  and  C_4 
REMARK    5  A    between atoms: O_21  and  C_7 
REMARK    6  A    between atoms: C_9  and  O_22 
REMARK    7  A    between atoms: C_10  and  O_23 
REMARK    8  A    between atoms: C_11  and  O_24 
REMARK    9  A    between atoms: C_12  and  O_25 
REMARK   10  A    between atoms: C_13  and  N_19 
REMARK   11  A    between atoms: C_14  and  O_34 
REMARK   12  A    between atoms: P_36  and  O_27 
REMARK   13  A    between atoms: P_37  and  O_29 
REMARK   14  A    between atoms: P_36  and  O_31 
REMARK   15  A    between atoms: P_37  and  O_34 
REMARK   16  A    between atoms: P_36  and  O_35 
REMARK   17  A    between atoms: P_37  and  O_35 
ROOT
HETATM    1  O   UNK N   1      34.811  14.107   9.225  0.00  0.00    -0.631 OA
HETATM    2  P   UNK N   1      34.280  15.273  10.105  0.00  0.00     0.401 P 
ENDROOT
BRANCH   2   3
HETATM    3  O   UNK N   1      32.592  15.395   9.723  0.00  0.00    -0.307 OA
HETATM    4  H   UNK N   1      31.908  14.813   9.357  0.00  0.00     0.222 HD
ENDBRANCH   2   3
BRANCH   2   5
HETATM    5  O   UNK N   1      34.510  14.803  11.763  0.00  0.00    -0.294 OA
BRANCH   5   6
HETATM    6  C   UNK N   1      35.843  15.105  12.029  0.00  0.00     0.215 C 
BRANCH   6   7
HETATM    7  C   UNK N   1      36.415  14.181  13.079  0.00  0.00     0.180 C 
HETATM    8  C   UNK N   1      36.656  12.763  12.558  0.00  0.00     0.182 C 
HETATM    9  C   UNK N   1      36.716  12.072  13.888  0.00  0.00     0.198 C 
HETATM   10  C   UNK N   1      35.504  12.728  14.567  0.00  0.00     0.263 C 
HETATM   11  O   UNK N   1      35.518  14.087  14.167  0.00  0.00    -0.353 OA
BRANCH   8  12
HETATM   12  O   UNK N   1      35.551  12.310  11.822  0.00  0.00    -0.390 OA
HETATM   13  H   UNK N   1      35.055  11.838  11.135  0.00  0.00     0.210 HD
ENDBRANCH   8  12
BRANCH   9  14
HETATM   14  O   UNK N   1      36.606  10.683  13.789  0.00  0.00    -0.388 OA
HETATM   15  H   UNK N   1      35.829  10.126  13.620  0.00  0.00     0.210 HD
ENDBRANCH   9  14
BRANCH  10  16
HETATM   16  N   UNK N   1      35.388  12.643  16.042  0.00  0.00    -0.280 N 
HETATM   17  C   UNK N   1      35.483  13.832  16.707  0.00  0.00     0.103 A 
HETATM   18  C   UNK N   1      35.403  13.898  18.093  0.00  0.00     0.073 A 
HETATM   19  C   UNK N   1      35.227  12.723  18.806  0.00  0.00     0.144 A 
HETATM   20  N   UNK N   1      35.128  11.542  18.151  0.00  0.00    -0.289 N 
HETATM   21  C   UNK N   1      35.202  11.478  16.782  0.00  0.00     0.330 A 
ATOM     22  HN  UNK N   1      34.995  10.683  18.685  1.00  0.00     0.172 HD
HETATM   23  O   UNK N   1      35.103  10.393  16.245  0.00  0.00    -0.246 OA
BRANCH  19  24
HETATM   24  O   UNK N   1      35.152  12.756  20.147  0.00  0.00    -0.346 OA
HETATM   25  H   UNK N   1      35.050  13.574  20.592  0.00  0.00     0.219 HD
ENDBRANCH  19  24
ENDBRANCH  10  16
ENDBRANCH   6   7
ENDBRANCH   5   6
ENDBRANCH   2   5
BRANCH   2  26
HETATM   26  O   UNK N   1      35.166  16.704   9.628  0.00  0.00    -0.195 OA
BRANCH  26  27
HETATM   27  P   UNK N   1      34.221  17.575   8.441  0.00  0.00     0.404 P 
HETATM   28  O   UNK N   1      35.079  18.802   8.029  0.00  0.00    -0.631 OA
BRANCH  27  29
HETATM   29  O   UNK N   1      32.787  18.278   9.119  0.00  0.00    -0.307 OA
HETATM   30  H   UNK N   1      32.716  18.732   9.973  0.00  0.00     0.222 HD
ENDBRANCH  27  29
BRANCH  27  31
HETATM   31  O   UNK N   1      33.870  16.683   6.968  0.00  0.00    -0.262 OA
BRANCH  31  32
HETATM   32  C   UNK N   1      32.565  16.995   6.539  0.00  0.00     0.308 C 
HETATM   33  C   UNK N   1      32.459  16.823   5.003  0.00  0.00     0.256 C 
HETATM   34  C   UNK N   1      30.977  16.684   4.568  0.00  0.00     0.188 C 
HETATM   35  F   UNK N   1      33.049  17.933   4.417  0.00  0.00    -0.241 F 
HETATM   36  C   UNK N   1      30.081  17.396   5.581  0.00  0.00     0.180 C 
HETATM   37  C   UNK N   1      30.269  16.639   6.936  0.00  0.00     0.179 C 
HETATM   38  O   UNK N   1      31.602  16.184   7.184  0.00  0.00    -0.348 OA
BRANCH  34  39
HETATM   39  O   UNK N   1      30.794  17.171   3.271  0.00  0.00    -0.390 OA
HETATM   40  H   UNK N   1      30.041  17.407   2.706  0.00  0.00     0.210 HD
ENDBRANCH  34  39
BRANCH  36  41
HETATM   41  O   UNK N   1      28.739  17.355   5.194  0.00  0.00    -0.390 OA
HETATM   42  H   UNK N   1      28.485  17.392   4.259  0.00  0.00     0.210 HD
ENDBRANCH  36  41
BRANCH  37  43
HETATM   43  C   UNK N   1      29.721  17.425   8.126  0.00  0.00     0.198 C 
BRANCH  43  44
HETATM   44  O   UNK N   1      30.293  16.992   9.324  0.00  0.00    -0.398 OA
HETATM   45  H   UNK N   1      30.475  16.134   9.738  0.00  0.00     0.209 HD
ENDBRANCH  43  44
ENDBRANCH  37  43
ENDBRANCH  31  32
ENDBRANCH  27  31
ENDBRANCH  26  27
ENDBRANCH   2  26
TORSDOF 17
ENDMDL
MODEL 4
REMARK VINA RESULT:      -7.4      7.659     11.002
REMARK  17 active torsions:
REMARK  status: ('A' for Active; 'I' for Inactive)
REMARK    1  A    between atoms: C_5  and  C_3 
REMARK    2  A    between atoms: O_20  and  C_3 
REMARK    3  A    between atoms: C_6  and  C_4 
REMARK    4  A    between atoms: O_31  and  C_4 
REMARK    5  A    between atoms: O_21  and  C_7 
REMARK    6  A    between atoms: C_9  and  O_22 
REMARK    7  A    between atoms: C_10  and  O_23 
REMARK    8  A    between atoms: C_11  and  O_24 
REMARK    9  A    between atoms: C_12  and  O_25 
REMARK   10  A    between atoms: C_13  and  N_19 
REMARK   11  A    between atoms: C_14  and  O_34 
REMARK   12  A    between atoms: P_36  and  O_27 
REMARK   13  A    between atoms: P_37  and  O_29 
REMARK   14  A    between atoms: P_36  and  O_31 
REMARK   15  A    between atoms: P_37  and  O_34 
REMARK   16  A    between atoms: P_36  and  O_35 
REMARK   17  A    between atoms: P_37  and  O_35 
ROOT
HETATM    1  O   UNK N   1      33.104  15.332   9.991  0.00  0.00    -0.631 OA
HETATM    2  P   UNK N   1      34.610  15.708   9.907  0.00  0.00     0.401 P 
ENDROOT
BRANCH   2   3
HETATM    3  O   UNK N   1      34.777  17.128  10.890  0.00  0.00    -0.307 OA
HETATM    4  H   UNK N   1      34.182  17.757  11.328  0.00  0.00     0.222 HD
ENDBRANCH   2   3
BRANCH   2   5
HETATM    5  O   UNK N   1      35.503  14.377  10.580  0.00  0.00    -0.294 OA
BRANCH   5   6
HETATM    6  C   UNK N   1      34.782  14.014  11.715  0.00  0.00     0.215 C 
BRANCH   6   7
HETATM    7  C   UNK N   1      35.683  13.903  12.924  0.00  0.00     0.180 C 
HETATM    8  C   UNK N   1      36.898  13.005  12.682  0.00  0.00     0.182 C 
HETATM    9  C   UNK N   1      37.234  12.738  14.120  0.00  0.00     0.198 C 
HETATM   10  C   UNK N   1      35.825  12.444  14.657  0.00  0.00     0.263 C 
HETATM   11  O   UNK N   1      34.958  13.356  14.006  0.00  0.00    -0.353 OA
BRANCH   8  12
HETATM   12  O   UNK N   1      36.516  11.816  12.041  0.00  0.00    -0.390 OA
HETATM   13  H   UNK N   1      36.315  11.207  11.315  0.00  0.00     0.210 HD
ENDBRANCH   8  12
BRANCH   9  14
HETATM   14  O   UNK N   1      38.121  11.672  14.286  0.00  0.00    -0.388 OA
HETATM   15  H   UNK N   1      38.712  11.244  13.646  0.00  0.00     0.210 HD
ENDBRANCH   9  14
BRANCH  10  16
HETATM   16  N   UNK N   1      35.602  12.500  16.121  0.00  0.00    -0.280 N 
HETATM   17  C   UNK N   1      35.480  13.754  16.648  0.00  0.00     0.103 A 
HETATM   18  C   UNK N   1      35.279  13.955  18.008  0.00  0.00     0.073 A 
HETATM   19  C   UNK N   1      35.204  12.850  18.840  0.00  0.00     0.144 A 
HETATM   20  N   UNK N   1      35.318  11.604  18.322  0.00  0.00    -0.289 N 
HETATM   21  C   UNK N   1      35.513  11.406  16.978  0.00  0.00     0.330 A 
ATOM     22  HN  UNK N   1      35.259  10.797  18.942  1.00  0.00     0.172 HD
HETATM   23  O   UNK N   1      35.605  10.267  16.566  0.00  0.00    -0.246 OA
BRANCH  19  24
HETATM   24  O   UNK N   1      35.015  13.014  20.160  0.00  0.00    -0.346 OA
HETATM   25  H   UNK N   1      34.969  13.875  20.525  0.00  0.00     0.219 HD
ENDBRANCH  19  24
ENDBRANCH  10  16
ENDBRANCH   6   7
ENDBRANCH   5   6
ENDBRANCH   2   5
BRANCH   2  26
HETATM   26  O   UNK N   1      34.952  16.032   8.222  0.00  0.00    -0.195 OA
BRANCH  26  27
HETATM   27  P   UNK N   1      34.226  17.564   7.790  0.00  0.00     0.404 P 
HETATM   28  O   UNK N   1      35.119  18.657   8.437  0.00  0.00    -0.631 OA
BRANCH  27  29
HETATM   29  O   UNK N   1      32.677  17.799   8.534  0.00  0.00    -0.307 OA
HETATM   30  H   UNK N   1      32.473  17.718   9.479  0.00  0.00     0.222 HD
ENDBRANCH  27  29
BRANCH  27  31
HETATM   31  O   UNK N   1      34.173  17.905   6.067  0.00  0.00    -0.262 OA
BRANCH  31  32
HETATM   32  C   UNK N   1      33.382  16.931   5.426  0.00  0.00     0.308 C 
HETATM   33  C   UNK N   1      32.718  17.536   4.165  0.00  0.00     0.256 C 
HETATM   34  C   UNK N   1      32.254  16.416   3.198  0.00  0.00     0.188 C 
HETATM   35  F   UNK N   1      31.645  18.307   4.587  0.00  0.00    -0.241 F 
HETATM   36  C   UNK N   1      31.965  15.144   3.997  0.00  0.00     0.180 C 
HETATM   37  C   UNK N   1      33.325  14.712   4.634  0.00  0.00     0.179 C 
HETATM   38  O   UNK N   1      34.149  15.796   5.073  0.00  0.00    -0.348 OA
BRANCH  34  39
HETATM   39  O   UNK N   1      31.149  16.831   2.452  0.00  0.00    -0.390 OA
HETATM   40  H   UNK N   1      30.322  17.310   2.624  0.00  0.00     0.210 HD
ENDBRANCH  34  39
BRANCH  36  41
HETATM   41  O   UNK N   1      31.478  14.124   3.174  0.00  0.00    -0.390 OA
HETATM   42  H   UNK N   1      31.290  14.283   2.236  0.00  0.00     0.210 HD
ENDBRANCH  36  41
BRANCH  37  43
HETATM   43  C   UNK N   1      33.148  13.669   5.737  0.00  0.00     0.198 C 
BRANCH  43  44
HETATM   44  O   UNK N   1      31.845  13.681   6.240  0.00  0.00    -0.398 OA
HETATM   45  H   UNK N   1      31.274  13.051   6.707  0.00  0.00     0.209 HD
ENDBRANCH  43  44
ENDBRANCH  37  43
ENDBRANCH  31  32
ENDBRANCH  27  31
ENDBRANCH  26  27
ENDBRANCH   2  26
TORSDOF 17
ENDMDL
MODEL 5
REMARK VINA RESULT:      -7.4      4.121     11.777
REMARK  17 active torsions:
REMARK  status: ('A' for Active; 'I' for Inactive)
REMARK    1  A    between atoms: C_5  and  C_3 
REMARK    2  A    between atoms: O_20  and  C_3 
REMARK    3  A    between atoms: C_6  and  C_4 
REMARK    4  A    between atoms: O_31  and  C_4 
REMARK    5  A    between atoms: O_21  and  C_7 
REMARK    6  A    between atoms: C_9  and  O_22 
REMARK    7  A    between atoms: C_10  and  O_23 
REMARK    8  A    between atoms: C_11  and  O_24 
REMARK    9  A    between atoms: C_12  and  O_25 
REMARK   10  A    between atoms: C_13  and  N_19 
REMARK   11  A    between atoms: C_14  and  O_34 
REMARK   12  A    between atoms: P_36  and  O_27 
REMARK   13  A    between atoms: P_37  and  O_29 
REMARK   14  A    between atoms: P_36  and  O_31 
REMARK   15  A    between atoms: P_37  and  O_34 
REMARK   16  A    between atoms: P_36  and  O_35 
REMARK   17  A    between atoms: P_37  and  O_35 
ROOT
HETATM    1  O   UNK N   1      28.009  19.340   6.949  0.00  0.00    -0.631 OA
HETATM    2  P   UNK N   1      28.265  17.824   6.721  0.00  0.00     0.401 P 
ENDROOT
BRANCH   2   3
HETATM    3  O   UNK N   1      27.452  17.026   8.031  0.00  0.00    -0.307 OA
HETATM    4  H   UNK N   1      27.708  16.512   8.812  0.00  0.00     0.222 HD
ENDBRANCH   2   3
BRANCH   2   5
HETATM    5  O   UNK N   1      27.541  17.409   5.196  0.00  0.00    -0.294 OA
BRANCH   5   6
HETATM    6  C   UNK N   1      26.171  17.440   5.442  0.00  0.00     0.215 C 
BRANCH   6   7
HETATM    7  C   UNK N   1      25.406  17.899   4.221  0.00  0.00     0.180 C 
HETATM    8  C   UNK N   1      25.997  19.158   3.585  0.00  0.00     0.182 C 
HETATM    9  C   UNK N   1      24.785  19.571   2.804  0.00  0.00     0.198 C 
HETATM   10  C   UNK N   1      23.710  19.370   3.883  0.00  0.00     0.263 C 
HETATM   11  O   UNK N   1      24.071  18.191   4.581  0.00  0.00    -0.353 OA
BRANCH   8  12
HETATM   12  O   UNK N   1      26.297  20.116   4.566  0.00  0.00    -0.390 OA
HETATM   13  H   UNK N   1      26.155  20.719   5.311  0.00  0.00     0.210 HD
ENDBRANCH   8  12
BRANCH   9  14
HETATM   14  O   UNK N   1      24.857  20.886   2.337  0.00  0.00    -0.388 OA
HETATM   15  H   UNK N   1      24.744  21.239   1.440  0.00  0.00     0.210 HD
ENDBRANCH   9  14
BRANCH  10  16
HETATM   16  N   UNK N   1      22.292  19.285   3.460  0.00  0.00    -0.280 N 
HETATM   17  C   UNK N   1      21.696  18.070   3.646  0.00  0.00     0.103 A 
HETATM   18  C   UNK N   1      20.373  17.846   3.284  0.00  0.00     0.073 A 
HETATM   19  C   UNK N   1      19.653  18.886   2.719  0.00  0.00     0.144 A 
HETATM   20  N   UNK N   1      20.237  20.094   2.538  0.00  0.00    -0.289 N 
HETATM   21  C   UNK N   1      21.543  20.315   2.899  0.00  0.00     0.330 A 
ATOM     22  HN  UNK N   1      19.698  20.854   2.125  1.00  0.00     0.172 HD
HETATM   23  O   UNK N   1      22.016  21.419   2.718  0.00  0.00    -0.246 OA
BRANCH  19  24
HETATM   24  O   UNK N   1      18.374  18.697   2.355  0.00  0.00    -0.346 OA
HETATM   25  H   UNK N   1      17.717  19.314   2.609  0.00  0.00     0.219 HD
ENDBRANCH  19  24
ENDBRANCH  10  16
ENDBRANCH   6   7
ENDBRANCH   5   6
ENDBRANCH   2   5
BRANCH   2  26
HETATM   26  O   UNK N   1      29.998  17.593   6.788  0.00  0.00    -0.195 OA
BRANCH  26  27
HETATM   27  P   UNK N   1      30.530  17.838   8.437  0.00  0.00     0.404 P 
HETATM   28  O   UNK N   1      30.412  16.455   9.134  0.00  0.00    -0.631 OA
BRANCH  27  29
HETATM   29  O   UNK N   1      29.451  18.852   9.340  0.00  0.00    -0.307 OA
HETATM   30  H   UNK N   1      28.554  18.625   9.631  0.00  0.00     0.222 HD
ENDBRANCH  27  29
BRANCH  27  31
HETATM   31  O   UNK N   1      32.201  18.354   8.612  0.00  0.00    -0.262 OA
BRANCH  31  32
HETATM   32  C   UNK N   1      33.045  17.230   8.517  0.00  0.00     0.308 C 
HETATM   33  C   UNK N   1      33.722  17.195   7.125  0.00  0.00     0.256 C 
HETATM   34  C   UNK N   1      34.981  16.289   7.150  0.00  0.00     0.188 C 
HETATM   35  F   UNK N   1      32.787  16.723   6.216  0.00  0.00    -0.241 F 
HETATM   36  C   UNK N   1      34.820  15.225   8.236  0.00  0.00     0.180 C 
HETATM   37  C   UNK N   1      34.741  15.997   9.593  0.00  0.00     0.179 C 
HETATM   38  O   UNK N   1      34.028  17.235   9.534  0.00  0.00    -0.348 OA
BRANCH  34  39
HETATM   39  O   UNK N   1      35.212  15.727   5.892  0.00  0.00    -0.390 OA
HETATM   40  H   UNK N   1      35.388  16.052   4.995  0.00  0.00     0.210 HD
ENDBRANCH  34  39
BRANCH  36  41
HETATM   41  O   UNK N   1      35.903  14.342   8.251  0.00  0.00    -0.390 OA
HETATM   42  H   UNK N   1      36.441  14.195   7.457  0.00  0.00     0.210 HD
ENDBRANCH  36  41
BRANCH  37  43
HETATM   43  C   UNK N   1      34.234  15.119  10.736  0.00  0.00     0.198 C 
BRANCH  43  44
HETATM   44  O   UNK N   1      33.526  14.017  10.251  0.00  0.00    -0.398 OA
HETATM   45  H   UNK N   1      32.891  13.860   9.535  0.00  0.00     0.209 HD
ENDBRANCH  43  44
ENDBRANCH  37  43
ENDBRANCH  31  32
ENDBRANCH  27  31
ENDBRANCH  26  27
ENDBRANCH   2  26
TORSDOF 17
ENDMDL
MODEL 6
REMARK VINA RESULT:      -7.3      5.627      7.800
REMARK  17 active torsions:
REMARK  status: ('A' for Active; 'I' for Inactive)
REMARK    1  A    between atoms: C_5  and  C_3 
REMARK    2  A    between atoms: O_20  and  C_3 
REMARK    3  A    between atoms: C_6  and  C_4 
REMARK    4  A    between atoms: O_31  and  C_4 
REMARK    5  A    between atoms: O_21  and  C_7 
REMARK    6  A    between atoms: C_9  and  O_22 
REMARK    7  A    between atoms: C_10  and  O_23 
REMARK    8  A    between atoms: C_11  and  O_24 
REMARK    9  A    between atoms: C_12  and  O_25 
REMARK   10  A    between atoms: C_13  and  N_19 
REMARK   11  A    between atoms: C_14  and  O_34 
REMARK   12  A    between atoms: P_36  and  O_27 
REMARK   13  A    between atoms: P_37  and  O_29 
REMARK   14  A    between atoms: P_36  and  O_31 
REMARK   15  A    between atoms: P_37  and  O_34 
REMARK   16  A    between atoms: P_36  and  O_35 
REMARK   17  A    between atoms: P_37  and  O_35 
ROOT
HETATM    1  O   UNK N   1      33.654  16.897   5.136  0.00  0.00    -0.631 OA
HETATM    2  P   UNK N   1      33.309  15.611   4.333  0.00  0.00     0.401 P 
ENDROOT
BRANCH   2   3
HETATM    3  O   UNK N   1      33.476  16.062   2.666  0.00  0.00    -0.307 OA
HETATM    4  H   UNK N   1      33.021  15.863   1.832  0.00  0.00     0.222 HD
ENDBRANCH   2   3
BRANCH   2   5
HETATM    5  O   UNK N   1      34.484  14.407   4.772  0.00  0.00    -0.294 OA
BRANCH   5   6
HETATM    6  C   UNK N   1      35.120  14.935   5.893  0.00  0.00     0.215 C 
BRANCH   6   7
HETATM    7  C   UNK N   1      35.027  13.991   7.070  0.00  0.00     0.180 C 
HETATM    8  C   UNK N   1      33.619  13.430   7.275  0.00  0.00     0.182 C 
HETATM    9  C   UNK N   1      33.785  13.002   8.704  0.00  0.00     0.198 C 
HETATM   10  C   UNK N   1      34.488  14.249   9.260  0.00  0.00     0.263 C 
HETATM   11  O   UNK N   1      35.390  14.673   8.254  0.00  0.00    -0.353 OA
BRANCH   8  12
HETATM   12  O   UNK N   1      32.660  14.450   7.179  0.00  0.00    -0.390 OA
HETATM   13  H   UNK N   1      31.977  15.012   6.783  0.00  0.00     0.210 HD
ENDBRANCH   8  12
BRANCH   9  14
HETATM   14  O   UNK N   1      32.570  12.726   9.336  0.00  0.00    -0.388 OA
HETATM   15  H   UNK N   1      31.659  12.868   9.033  0.00  0.00     0.210 HD
ENDBRANCH   9  14
BRANCH  10  16
HETATM   16  N   UNK N   1      35.200  14.140  10.556  0.00  0.00    -0.280 N 
HETATM   17  C   UNK N   1      35.582  12.877  10.909  0.00  0.00     0.103 A 
HETATM   18  C   UNK N   1      36.249  12.627  12.103  0.00  0.00     0.073 A 
HETATM   19  C   UNK N   1      36.524  13.691  12.947  0.00  0.00     0.144 A 
HETATM   20  N   UNK N   1      36.152  14.945  12.598  0.00  0.00    -0.289 N 
HETATM   21  C   UNK N   1      35.497  15.192  11.418  0.00  0.00     0.330 A 
ATOM     22  HN  UNK N   1      36.362  15.722  13.225  1.00  0.00     0.172 HD
HETATM   23  O   UNK N   1      35.190  16.337  11.152  0.00  0.00    -0.246 OA
BRANCH  19  24
HETATM   24  O   UNK N   1      37.162  13.478  14.110  0.00  0.00    -0.346 OA
HETATM   25  H   UNK N   1      36.769  12.944  14.771  0.00  0.00     0.219 HD
ENDBRANCH  19  24
ENDBRANCH  10  16
ENDBRANCH   6   7
ENDBRANCH   5   6
ENDBRANCH   2   5
BRANCH   2  26
HETATM   26  O   UNK N   1      31.659  15.195   4.738  0.00  0.00    -0.195 OA
BRANCH  26  27
HETATM   27  P   UNK N   1      30.613  16.500   4.224  0.00  0.00     0.404 P 
HETATM   28  O   UNK N   1      30.222  16.181   2.755  0.00  0.00    -0.631 OA
BRANCH  27  29
HETATM   29  O   UNK N   1      31.447  18.017   4.113  0.00  0.00    -0.307 OA
HETATM   30  H   UNK N   1      31.310  18.703   3.441  0.00  0.00     0.222 HD
ENDBRANCH  27  29
BRANCH  27  31
HETATM   31  O   UNK N   1      29.112  16.653   5.126  0.00  0.00    -0.262 OA
BRANCH  31  32
HETATM   32  C   UNK N   1      29.376  17.280   6.360  0.00  0.00     0.308 C 
HETATM   33  C   UNK N   1      28.063  17.431   7.166  0.00  0.00     0.256 C 
HETATM   34  C   UNK N   1      28.365  17.658   8.670  0.00  0.00     0.188 C 
HETATM   35  F   UNK N   1      27.364  18.503   6.631  0.00  0.00    -0.241 F 
HETATM   36  C   UNK N   1      29.738  18.316   8.818  0.00  0.00     0.180 C 
HETATM   37  C   UNK N   1      30.774  17.289   8.257  0.00  0.00     0.179 C 
HETATM   38  O   UNK N   1      30.327  16.554   7.115  0.00  0.00    -0.348 OA
BRANCH  34  39
HETATM   39  O   UNK N   1      27.354  18.412   9.271  0.00  0.00    -0.390 OA
HETATM   40  H   UNK N   1      27.078  18.627  10.177  0.00  0.00     0.210 HD
ENDBRANCH  34  39
BRANCH  36  41
HETATM   41  O   UNK N   1      30.027  18.602  10.155  0.00  0.00    -0.390 OA
HETATM   42  H   UNK N   1      29.898  17.937  10.850  0.00  0.00     0.210 HD
ENDBRANCH  36  41
BRANCH  37  43
HETATM   43  C   UNK N   1      32.145  17.918   8.008  0.00  0.00     0.198 C 
BRANCH  43  44
HETATM   44  O   UNK N   1      33.158  16.959   8.063  0.00  0.00    -0.398 OA
HETATM   45  H   UNK N   1      34.013  16.825   7.624  0.00  0.00     0.209 HD
ENDBRANCH  43  44
ENDBRANCH  37  43
ENDBRANCH  31  32
ENDBRANCH  27  31
ENDBRANCH  26  27
ENDBRANCH   2  26
TORSDOF 17
ENDMDL
MODEL 7
REMARK VINA RESULT:      -7.2      6.210     10.014
REMARK  17 active torsions:
REMARK  status: ('A' for Active; 'I' for Inactive)
REMARK    1  A    between atoms: C_5  and  C_3 
REMARK    2  A    between atoms: O_20  and  C_3 
REMARK    3  A    between atoms: C_6  and  C_4 
REMARK    4  A    between atoms: O_31  and  C_4 
REMARK    5  A    between atoms: O_21  and  C_7 
REMARK    6  A    between atoms: C_9  and  O_22 
REMARK    7  A    between atoms: C_10  and  O_23 
REMARK    8  A    between atoms: C_11  and  O_24 
REMARK    9  A    between atoms: C_12  and  O_25 
REMARK   10  A    between atoms: C_13  and  N_19 
REMARK   11  A    between atoms: C_14  and  O_34 
REMARK   12  A    between atoms: P_36  and  O_27 
REMARK   13  A    between atoms: P_37  and  O_29 
REMARK   14  A    between atoms: P_36  and  O_31 
REMARK   15  A    between atoms: P_37  and  O_34 
REMARK   16  A    between atoms: P_36  and  O_35 
REMARK   17  A    between atoms: P_37  and  O_35 
ROOT
HETATM    1  O   UNK N   1      34.463  13.157   9.174  0.00  0.00    -0.631 OA
HETATM    2  P   UNK N   1      34.462  14.635   9.655  0.00  0.00     0.401 P 
ENDROOT
BRANCH   2   3
HETATM    3  O   UNK N   1      32.920  14.861  10.418  0.00  0.00    -0.307 OA
HETATM    4  H   UNK N   1      32.534  15.477  11.060  0.00  0.00     0.222 HD
ENDBRANCH   2   3
BRANCH   2   5
HETATM    5  O   UNK N   1      35.754  14.795  10.807  0.00  0.00    -0.294 OA
BRANCH   5   6
HETATM    6  C   UNK N   1      35.115  14.824  12.044  0.00  0.00     0.215 C 
BRANCH   6   7
HETATM    7  C   UNK N   1      35.944  14.138  13.105  0.00  0.00     0.180 C 
HETATM    8  C   UNK N   1      36.555  12.820  12.625  0.00  0.00     0.182 C 
HETATM    9  C   UNK N   1      36.833  12.229  13.975  0.00  0.00     0.198 C 
HETATM   10  C   UNK N   1      35.503  12.554  14.671  0.00  0.00     0.263 C 
HETATM   11  O   UNK N   1      35.133  13.847  14.225  0.00  0.00    -0.353 OA
BRANCH   8  12
HETATM   12  O   UNK N   1      35.601  12.051  11.942  0.00  0.00    -0.390 OA
HETATM   13  H   UNK N   1      35.101  11.266  11.670  0.00  0.00     0.210 HD
ENDBRANCH   8  12
BRANCH   9  14
HETATM   14  O   UNK N   1      37.109  10.861  13.927  0.00  0.00    -0.388 OA
HETATM   15  H   UNK N   1      37.949  10.386  14.040  0.00  0.00     0.210 HD
ENDBRANCH   9  14
BRANCH  10  16
HETATM   16  N   UNK N   1      35.450  12.503  16.152  0.00  0.00    -0.280 N 
HETATM   17  C   UNK N   1      35.381  13.715  16.779  0.00  0.00     0.103 A 
HETATM   18  C   UNK N   1      35.336  13.815  18.164  0.00  0.00     0.073 A 
HETATM   19  C   UNK N   1      35.367  12.652  18.917  0.00  0.00     0.144 A 
HETATM   20  N   UNK N   1      35.431  11.448  18.300  0.00  0.00    -0.289 N 
HETATM   21  C   UNK N   1      35.470  11.350  16.932  0.00  0.00     0.330 A 
ATOM     22  HN  UNK N   1      35.450  10.598  18.863  1.00  0.00     0.172 HD
HETATM   23  O   UNK N   1      35.523  10.245  16.430  0.00  0.00    -0.246 OA
BRANCH  19  24
HETATM   24  O   UNK N   1      35.331  12.719  20.258  0.00  0.00    -0.346 OA
HETATM   25  H   UNK N   1      34.522  12.886  20.698  0.00  0.00     0.219 HD
ENDBRANCH  19  24
ENDBRANCH  10  16
ENDBRANCH   6   7
ENDBRANCH   5   6
ENDBRANCH   2   5
BRANCH   2  26
HETATM   26  O   UNK N   1      34.639  15.628   8.225  0.00  0.00    -0.195 OA
BRANCH  26  27
HETATM   27  P   UNK N   1      33.047  15.989   7.596  0.00  0.00     0.404 P 
HETATM   28  O   UNK N   1      32.315  14.624   7.475  0.00  0.00    -0.631 OA
BRANCH  27  29
HETATM   29  O   UNK N   1      33.094  16.581   5.967  0.00  0.00    -0.307 OA
HETATM   30  H   UNK N   1      32.722  16.146   5.184  0.00  0.00     0.222 HD
ENDBRANCH  27  29
BRANCH  27  31
HETATM   31  O   UNK N   1      32.052  17.008   8.626  0.00  0.00    -0.262 OA
BRANCH  31  32
HETATM   32  C   UNK N   1      30.714  16.940   8.191  0.00  0.00     0.308 C 
HETATM   33  C   UNK N   1      29.817  17.811   9.105  0.00  0.00     0.256 C 
HETATM   34  C   UNK N   1      28.476  18.145   8.400  0.00  0.00     0.188 C 
HETATM   35  F   UNK N   1      29.601  17.102  10.277  0.00  0.00    -0.241 F 
HETATM   36  C   UNK N   1      28.146  17.046   7.390  0.00  0.00     0.180 C 
HETATM   37  C   UNK N   1      29.286  17.081   6.321  0.00  0.00     0.179 C 
HETATM   38  O   UNK N   1      30.587  17.360   6.846  0.00  0.00    -0.348 OA
BRANCH  34  39
HETATM   39  O   UNK N   1      27.455  18.323   9.336  0.00  0.00    -0.390 OA
HETATM   40  H   UNK N   1      26.602  17.905   9.538  0.00  0.00     0.210 HD
ENDBRANCH  34  39
BRANCH  36  41
HETATM   41  O   UNK N   1      26.910  17.270   6.776  0.00  0.00    -0.390 OA
HETATM   42  H   UNK N   1      26.239  16.572   6.732  0.00  0.00     0.210 HD
ENDBRANCH  36  41
BRANCH  37  43
HETATM   43  C   UNK N   1      29.300  15.832   5.440  0.00  0.00     0.198 C 
BRANCH  43  44
HETATM   44  O   UNK N   1      28.139  15.076   5.618  0.00  0.00    -0.398 OA
HETATM   45  H   UNK N   1      27.234  15.099   5.270  0.00  0.00     0.209 HD
ENDBRANCH  43  44
ENDBRANCH  37  43
ENDBRANCH  31  32
ENDBRANCH  27  31
ENDBRANCH  26  27
ENDBRANCH   2  26
TORSDOF 17
ENDMDL
MODEL 8
REMARK VINA RESULT:      -7.2      5.785      9.658
REMARK  17 active torsions:
REMARK  status: ('A' for Active; 'I' for Inactive)
REMARK    1  A    between atoms: C_5  and  C_3 
REMARK    2  A    between atoms: O_20  and  C_3 
REMARK    3  A    between atoms: C_6  and  C_4 
REMARK    4  A    between atoms: O_31  and  C_4 
REMARK    5  A    between atoms: O_21  and  C_7 
REMARK    6  A    between atoms: C_9  and  O_22 
REMARK    7  A    between atoms: C_10  and  O_23 
REMARK    8  A    between atoms: C_11  and  O_24 
REMARK    9  A    between atoms: C_12  and  O_25 
REMARK   10  A    between atoms: C_13  and  N_19 
REMARK   11  A    between atoms: C_14  and  O_34 
REMARK   12  A    between atoms: P_36  and  O_27 
REMARK   13  A    between atoms: P_37  and  O_29 
REMARK   14  A    between atoms: P_36  and  O_31 
REMARK   15  A    between atoms: P_37  and  O_34 
REMARK   16  A    between atoms: P_36  and  O_35 
REMARK   17  A    between atoms: P_37  and  O_35 
ROOT
HETATM    1  O   UNK N   1      33.699  15.615  10.433  0.00  0.00    -0.631 OA
HETATM    2  P   UNK N   1      34.932  15.955   9.551  0.00  0.00     0.401 P 
ENDROOT
BRANCH   2   3
HETATM    3  O   UNK N   1      35.244  17.638   9.840  0.00  0.00    -0.307 OA
HETATM    4  H   UNK N   1      34.976  18.483   9.447  0.00  0.00     0.222 HD
ENDBRANCH   2   3
BRANCH   2   5
HETATM    5  O   UNK N   1      36.250  14.972  10.117  0.00  0.00    -0.294 OA
BRANCH   5   6
HETATM    6  C   UNK N   1      36.146  15.019  11.505  0.00  0.00     0.215 C 
BRANCH   6   7
HETATM    7  C   UNK N   1      36.364  13.654  12.116  0.00  0.00     0.180 C 
HETATM    8  C   UNK N   1      35.641  12.539  11.359  0.00  0.00     0.182 C 
HETATM    9  C   UNK N   1      35.654  11.516  12.456  0.00  0.00     0.198 C 
HETATM   10  C   UNK N   1      35.228  12.405  13.634  0.00  0.00     0.263 C 
HETATM   11  O   UNK N   1      35.883  13.647  13.445  0.00  0.00    -0.353 OA
BRANCH   8  12
HETATM   12  O   UNK N   1      34.323  12.917  11.059  0.00  0.00    -0.390 OA
HETATM   13  H   UNK N   1      33.577  13.497  10.843  0.00  0.00     0.210 HD
ENDBRANCH   8  12
BRANCH   9  14
HETATM   14  O   UNK N   1      34.777  10.453  12.224  0.00  0.00    -0.388 OA
HETATM   15  H   UNK N   1      34.344   9.850  12.850  0.00  0.00     0.210 HD
ENDBRANCH   9  14
BRANCH  10  16
HETATM   16  N   UNK N   1      35.474  11.917  15.012  0.00  0.00    -0.280 N 
HETATM   17  C   UNK N   1      36.390  10.910  15.123  0.00  0.00     0.103 A 
HETATM   18  C   UNK N   1      36.709  10.350  16.355  0.00  0.00     0.073 A 
HETATM   19  C   UNK N   1      36.073  10.830  17.489  0.00  0.00     0.144 A 
HETATM   20  N   UNK N   1      35.168  11.831  17.384  0.00  0.00    -0.289 N 
HETATM   21  C   UNK N   1      34.857  12.387  16.169  0.00  0.00     0.330 A 
ATOM     22  HN  UNK N   1      34.708  12.180  18.225  1.00  0.00     0.172 HD
HETATM   23  O   UNK N   1      34.040  13.285  16.133  0.00  0.00    -0.246 OA
BRANCH  19  24
HETATM   24  O   UNK N   1      36.357  10.303  18.691  0.00  0.00    -0.346 OA
HETATM   25  H   UNK N   1      35.879  10.577  19.449  0.00  0.00     0.219 HD
ENDBRANCH  19  24
ENDBRANCH  10  16
ENDBRANCH   6   7
ENDBRANCH   5   6
ENDBRANCH   2   5
BRANCH   2  26
HETATM   26  O   UNK N   1      34.461  15.651   7.893  0.00  0.00    -0.195 OA
BRANCH  26  27
HETATM   27  P   UNK N   1      33.280  16.853   7.420  0.00  0.00     0.404 P 
HETATM   28  O   UNK N   1      34.090  18.035   6.821  0.00  0.00    -0.631 OA
BRANCH  27  29
HETATM   29  O   UNK N   1      32.464  17.554   8.780  0.00  0.00    -0.307 OA
HETATM   30  H   UNK N   1      31.609  18.013   8.766  0.00  0.00     0.222 HD
ENDBRANCH  27  29
BRANCH  27  31
HETATM   31  O   UNK N   1      32.146  16.336   6.181  0.00  0.00    -0.262 OA
BRANCH  31  32
HETATM   32  C   UNK N   1      30.954  17.076   6.308  0.00  0.00     0.308 C 
HETATM   33  C   UNK N   1      30.353  17.351   4.907  0.00  0.00     0.256 C 
HETATM   34  C   UNK N   1      28.851  17.720   5.018  0.00  0.00     0.188 C 
HETATM   35  F   UNK N   1      31.080  18.385   4.336  0.00  0.00    -0.241 F 
HETATM   36  C   UNK N   1      28.580  18.344   6.388  0.00  0.00     0.180 C 
HETATM   37  C   UNK N   1      28.894  17.232   7.441  0.00  0.00     0.179 C 
HETATM   38  O   UNK N   1      30.010  16.400   7.115  0.00  0.00    -0.348 OA
BRANCH  34  39
HETATM   39  O   UNK N   1      28.469  18.564   3.972  0.00  0.00    -0.390 OA
HETATM   40  H   UNK N   1      28.532  18.559   3.003  0.00  0.00     0.210 HD
ENDBRANCH  34  39
BRANCH  36  41
HETATM   41  O   UNK N   1      27.250  18.755   6.509  0.00  0.00    -0.390 OA
HETATM   42  H   UNK N   1      26.959  19.295   7.260  0.00  0.00     0.210 HD
ENDBRANCH  36  41
BRANCH  37  43
HETATM   43  C   UNK N   1      29.011  17.788   8.860  0.00  0.00     0.198 C 
BRANCH  43  44
HETATM   44  O   UNK N   1      27.757  18.113   9.381  0.00  0.00    -0.398 OA
HETATM   45  H   UNK N   1      27.327  18.050  10.248  0.00  0.00     0.209 HD
ENDBRANCH  43  44
ENDBRANCH  37  43
ENDBRANCH  31  32
ENDBRANCH  27  31
ENDBRANCH  26  27
ENDBRANCH   2  26
TORSDOF 17
ENDMDL
MODEL 9
REMARK VINA RESULT:      -7.1      6.956     11.656
REMARK  17 active torsions:
REMARK  status: ('A' for Active; 'I' for Inactive)
REMARK    1  A    between atoms: C_5  and  C_3 
REMARK    2  A    between atoms: O_20  and  C_3 
REMARK    3  A    between atoms: C_6  and  C_4 
REMARK    4  A    between atoms: O_31  and  C_4 
REMARK    5  A    between atoms: O_21  and  C_7 
REMARK    6  A    between atoms: C_9  and  O_22 
REMARK    7  A    between atoms: C_10  and  O_23 
REMARK    8  A    between atoms: C_11  and  O_24 
REMARK    9  A    between atoms: C_12  and  O_25 
REMARK   10  A    between atoms: C_13  and  N_19 
REMARK   11  A    between atoms: C_14  and  O_34 
REMARK   12  A    between atoms: P_36  and  O_27 
REMARK   13  A    between atoms: P_37  and  O_29 
REMARK   14  A    between atoms: P_36  and  O_31 
REMARK   15  A    between atoms: P_37  and  O_34 
REMARK   16  A    between atoms: P_36  and  O_35 
REMARK   17  A    between atoms: P_37  and  O_35 
ROOT
HETATM    1  O   UNK N   1      34.114  10.968   4.737  0.00  0.00    -0.631 OA
HETATM    2  P   UNK N   1      33.647  11.740   6.003  0.00  0.00     0.401 P 
ENDROOT
BRANCH   2   3
HETATM    3  O   UNK N   1      34.932  12.851   6.354  0.00  0.00    -0.307 OA
HETATM    4  H   UNK N   1      35.017  13.722   6.774  0.00  0.00     0.222 HD
ENDBRANCH   2   3
BRANCH   2   5
HETATM    5  O   UNK N   1      32.192  12.588   5.573  0.00  0.00    -0.294 OA
BRANCH   5   6
HETATM    6  C   UNK N   1      32.550  13.352   4.464  0.00  0.00     0.215 C 
BRANCH   6   7
HETATM    7  C   UNK N   1      32.144  14.797   4.641  0.00  0.00     0.180 C 
HETATM    8  C   UNK N   1      33.324  15.764   4.536  0.00  0.00     0.182 C 
HETATM    9  C   UNK N   1      32.683  16.932   5.226  0.00  0.00     0.198 C 
HETATM   10  C   UNK N   1      32.053  16.203   6.422  0.00  0.00     0.263 C 
HETATM   11  O   UNK N   1      31.563  14.973   5.918  0.00  0.00    -0.353 OA
BRANCH   8  12
HETATM   12  O   UNK N   1      34.418  15.297   5.281  0.00  0.00    -0.390 OA
HETATM   13  H   UNK N   1      35.232  15.328   5.806  0.00  0.00     0.210 HD
ENDBRANCH   8  12
BRANCH   9  14
HETATM   14  O   UNK N   1      33.601  17.916   5.602  0.00  0.00    -0.388 OA
HETATM   15  H   UNK N   1      33.827  18.258   6.482  0.00  0.00     0.210 HD
ENDBRANCH   9  14
BRANCH  10  16
HETATM   16  N   UNK N   1      30.985  16.890   7.186  0.00  0.00    -0.280 N 
HETATM   17  C   UNK N   1      29.708  16.600   6.799  0.00  0.00     0.103 A 
HETATM   18  C   UNK N   1      28.610  17.182   7.421  0.00  0.00     0.073 A 
HETATM   19  C   UNK N   1      28.828  18.078   8.455  0.00  0.00     0.144 A 
HETATM   20  N   UNK N   1      30.093  18.365   8.845  0.00  0.00    -0.289 N 
HETATM   21  C   UNK N   1      31.176  17.787   8.233  0.00  0.00     0.330 A 
ATOM     22  HN  UNK N   1      30.243  19.024   9.609  1.00  0.00     0.172 HD
HETATM   23  O   UNK N   1      32.289  18.077   8.626  0.00  0.00    -0.246 OA
BRANCH  19  24
HETATM   24  O   UNK N   1      27.786  18.661   9.070  0.00  0.00    -0.346 OA
HETATM   25  H   UNK N   1      27.359  19.396   8.678  0.00  0.00     0.219 HD
ENDBRANCH  19  24
ENDBRANCH  10  16
ENDBRANCH   6   7
ENDBRANCH   5   6
ENDBRANCH   2   5
BRANCH   2  26
HETATM   26  O   UNK N   1      33.445  10.549   7.269  0.00  0.00    -0.195 OA
BRANCH  26  27
HETATM   27  P   UNK N   1      33.206  11.384   8.787  0.00  0.00     0.404 P 
HETATM   28  O   UNK N   1      31.982  10.705   9.461  0.00  0.00    -0.631 OA
BRANCH  27  29
HETATM   29  O   UNK N   1      32.701  13.029   8.568  0.00  0.00    -0.307 OA
HETATM   30  H   UNK N   1      32.760  13.743   9.223  0.00  0.00     0.222 HD
ENDBRANCH  27  29
BRANCH  27  31
HETATM   31  O   UNK N   1      34.542  11.264   9.922  0.00  0.00    -0.262 OA
BRANCH  31  32
HETATM   32  C   UNK N   1      34.986  12.560  10.253  0.00  0.00     0.308 C 
HETATM   33  C   UNK N   1      35.847  12.510  11.539  0.00  0.00     0.256 C 
HETATM   34  C   UNK N   1      36.727  13.782  11.659  0.00  0.00     0.188 C 
HETATM   35  F   UNK N   1      34.983  12.398  12.617  0.00  0.00    -0.241 F 
HETATM   36  C   UNK N   1      36.049  14.940  10.926  0.00  0.00     0.180 C 
HETATM   37  C   UNK N   1      35.987  14.524   9.421  0.00  0.00     0.179 C 
HETATM   38  O   UNK N   1      35.728  13.136   9.195  0.00  0.00    -0.348 OA
BRANCH  34  39
HETATM   39  O   UNK N   1      36.980  14.085  12.999  0.00  0.00    -0.390 OA
HETATM   40  H   UNK N   1      36.777  14.812  13.609  0.00  0.00     0.210 HD
ENDBRANCH  34  39
BRANCH  36  41
HETATM   41  O   UNK N   1      36.774  16.127  11.064  0.00  0.00    -0.390 OA
HETATM   42  H   UNK N   1      36.382  16.907  11.488  0.00  0.00     0.210 HD
ENDBRANCH  36  41
BRANCH  37  43
HETATM   43  C   UNK N   1      35.036  15.404   8.610  0.00  0.00     0.198 C 
BRANCH  43  44
HETATM   44  O   UNK N   1      33.934  15.794   9.374  0.00  0.00    -0.398 OA
HETATM   45  H   UNK N   1      33.706  16.557   9.927  0.00  0.00     0.209 HD
ENDBRANCH  43  44
ENDBRANCH  37  43
ENDBRANCH  31  32
ENDBRANCH  27  31
ENDBRANCH  26  27
ENDBRANCH   2  26
TORSDOF 17
ENDMDL
