MODEL 1
REMARK VINA RESULT:      -7.7      0.000      0.000
REMARK  17 active torsions:
REMARK  status: ('A' for Active; 'I' for Inactive)
REMARK    1  A    between atoms: C_11  and  C_8 
REMARK    2  A    between atoms: C_16  and  C_8 
REMARK    3  A    between atoms: C_13  and  C_9 
REMARK    4  A    between atoms: C_17  and  C_9 
REMARK    5  A    between atoms: C_21  and  C_16 
REMARK    6  A    between atoms: C_16  and  N_27 
REMARK    7  A    between atoms: C_22  and  C_17 
REMARK    8  A    between atoms: C_17  and  N_25 
REMARK    9  A    between atoms: C_18  and  O_28 
REMARK   10  A    between atoms: C_19  and  O_29 
REMARK   11  A    between atoms: C_20  and  O_30 
REMARK   12  A    between atoms: C_21  and  O_31 
REMARK   13  A    between atoms: O_33  and  C_22 
REMARK   14  A    between atoms: C_23  and  O_37 
REMARK   15  A    between atoms: P_38  and  N_27 
REMARK   16  A    between atoms: P_38  and  O_34 
REMARK   17  A    between atoms: P_38  and  O_37 
ROOT
HETATM    1  C   UNK N   1      33.396  14.442   8.689  0.00  0.00     0.162 C 
ENDROOT
BRANCH   1   2
HETATM    2  C   UNK N   1      34.272  13.196   8.873  0.00  0.00     0.037 C 
BRANCH   2   3
HETATM    3  C   UNK N   1      33.500  11.893   8.996  0.00  0.00    -0.020 C 
HETATM    4  C   UNK N   1      34.197  11.036  10.030  0.00  0.00     0.009 C 
HETATM    5  C   UNK N   1      33.518  11.140   7.684  0.00  0.00     0.009 C 
ENDBRANCH   2   3
ENDBRANCH   1   2
BRANCH   1   6
HETATM    6  C   UNK N   1      32.893  14.905  10.041  0.00  0.00     0.135 C 
HETATM    7  N   UNK N   1      33.654  15.065  11.078  0.00  0.00    -0.358 N 
ATOM      8  HN  UNK N   1      33.195  15.378  11.933  1.00  0.00     0.162 HD
BRANCH   7   9
HETATM    9  C   UNK N   1      35.091  14.848  11.159  0.00  0.00     0.185 C 
BRANCH   9  10
HETATM   10  C   UNK N   1      35.352  14.250  12.551  0.00  0.00     0.076 C 
BRANCH  10  11
HETATM   11  C   UNK N   1      35.947  12.886  12.647  0.00  0.00    -0.028 A 
HETATM   12  C   UNK N   1      37.141  12.473  12.066  0.00  0.00     0.096 A 
HETATM   13  N   UNK N   1      37.400  11.192  12.423  0.00  0.00    -0.365 N 
HETATM   14  C   UNK N   1      36.384  10.814  13.224  0.00  0.00     0.042 A 
HETATM   15  H   UNK N   1      38.173  10.646  12.152  0.00  0.00     0.165 HD
HETATM   16  C   UNK N   1      36.227   9.584  13.849  0.00  0.00     0.030 A 
HETATM   17  C   UNK N   1      35.482  11.827  13.380  0.00  0.00    -0.002 A 
HETATM   18  C   UNK N   1      35.091   9.402  14.660  0.00  0.00     0.002 A 
HETATM   19  C   UNK N   1      34.154  10.449  14.824  0.00  0.00     0.001 A 
HETATM   20  C   UNK N   1      34.347  11.685  14.179  0.00  0.00     0.014 A 
ENDBRANCH  10  11
ENDBRANCH   9  10
BRANCH   9  21
HETATM   21  C   UNK N   1      35.825  16.138  10.859  0.00  0.00     0.163 C 
HETATM   22  O   UNK N   1      35.210  17.167  10.628  0.00  0.00    -0.648 OA
BRANCH  21  23
HETATM   23  O   UNK N   1      37.172  16.145  10.805  0.00  0.00    -0.775 OA
HETATM   24  H   UNK N   1      37.950  16.664  10.757  0.00  0.00     0.167 HD
ENDBRANCH  21  23
ENDBRANCH   9  21
ENDBRANCH   7   9
BRANCH   6  25
HETATM   25  O   UNK N   1      31.573  15.139  10.179  0.00  0.00    -0.348 OA
HETATM   26  H   UNK N   1      30.904  15.473  10.743  0.00  0.00     0.219 HD
ENDBRANCH   6  25
ENDBRANCH   1   6
BRANCH   1  27
HETATM   27  N   UNK N   1      34.121  15.546   8.056  0.00  0.00    -0.321 N 
HETATM   28  H   UNK N   1      35.126  15.538   7.886  0.00  0.00     0.165 HD
BRANCH  27  29
HETATM   29  P   UNK N   1      33.043  16.921   7.608  0.00  0.00     0.348 P 
HETATM   30  O   UNK N   1      33.549  17.463   6.249  0.00  0.00    -0.637 OA
BRANCH  29  31
HETATM   31  O   UNK N   1      33.283  18.219   8.738  0.00  0.00    -0.313 OA
HETATM   32  H   UNK N   1      33.308  18.331   9.701  0.00  0.00     0.221 HD
ENDBRANCH  29  31
BRANCH  29  33
HETATM   33  O   UNK N   1      31.366  16.416   7.400  0.00  0.00    -0.268 OA
BRANCH  33  34
HETATM   34  C   UNK N   1      30.485  17.523   7.353  0.00  0.00     0.302 C 
HETATM   35  C   UNK N   1      29.592  17.514   8.611  0.00  0.00     0.205 C 
HETATM   36  C   UNK N   1      28.585  18.673   8.623  0.00  0.00     0.183 C 
HETATM   37  C   UNK N   1      28.235  19.128   7.192  0.00  0.00     0.178 C 
HETATM   38  C   UNK N   1      28.417  17.981   6.184  0.00  0.00     0.152 C 
HETATM   39  C   UNK N   1      28.012  18.455   4.798  0.00  0.00     0.042 C 
HETATM   40  O   UNK N   1      29.777  17.561   6.106  0.00  0.00    -0.350 OA
BRANCH  35  41
HETATM   41  O   UNK N   1      30.360  17.526   9.779  0.00  0.00    -0.388 OA
HETATM   42  H   UNK N   1      30.529  16.700  10.259  0.00  0.00     0.210 HD
ENDBRANCH  35  41
BRANCH  36  43
HETATM   43  O   UNK N   1      27.444  18.242   9.309  0.00  0.00    -0.390 OA
HETATM   44  H   UNK N   1      26.944  17.588   9.824  0.00  0.00     0.210 HD
ENDBRANCH  36  43
BRANCH  37  45
HETATM   45  O   UNK N   1      26.944  19.665   7.149  0.00  0.00    -0.390 OA
HETATM   46  H   UNK N   1      26.254  19.314   6.565  0.00  0.00     0.210 HD
ENDBRANCH  37  45
ENDBRANCH  33  34
ENDBRANCH  29  33
ENDBRANCH  27  29
ENDBRANCH   1  27
TORSDOF 17
ENDMDL
MODEL 2
REMARK VINA RESULT:      -7.6      3.439      9.451
REMARK  17 active torsions:
REMARK  status: ('A' for Active; 'I' for Inactive)
REMARK    1  A    between atoms: C_11  and  C_8 
REMARK    2  A    between atoms: C_16  and  C_8 
REMARK    3  A    between atoms: C_13  and  C_9 
REMARK    4  A    between atoms: C_17  and  C_9 
REMARK    5  A    between atoms: C_21  and  C_16 
REMARK    6  A    between atoms: C_16  and  N_27 
REMARK    7  A    between atoms: C_22  and  C_17 
REMARK    8  A    between atoms: C_17  and  N_25 
REMARK    9  A    between atoms: C_18  and  O_28 
REMARK   10  A    between atoms: C_19  and  O_29 
REMARK   11  A    between atoms: C_20  and  O_30 
REMARK   12  A    between atoms: C_21  and  O_31 
REMARK   13  A    between atoms: O_33  and  C_22 
REMARK   14  A    between atoms: C_23  and  O_37 
REMARK   15  A    between atoms: P_38  and  N_27 
REMARK   16  A    between atoms: P_38  and  O_34 
REMARK   17  A    between atoms: P_38  and  O_37 
ROOT
HETATM    1  C   UNK N   1      31.577  16.900   8.182  0.00  0.00     0.162 C 
ENDROOT
BRANCH   1   2
HETATM    2  C   UNK N   1      30.091  17.222   7.978  0.00  0.00     0.037 C 
BRANCH   2   3
HETATM    3  C   UNK N   1      29.648  18.557   8.553  0.00  0.00    -0.020 C 
HETATM    4  C   UNK N   1      29.643  18.435  10.061  0.00  0.00     0.009 C 
HETATM    5  C   UNK N   1      28.239  18.884   8.110  0.00  0.00     0.009 C 
ENDBRANCH   2   3
ENDBRANCH   1   2
BRANCH   1   6
HETATM    6  C   UNK N   1      31.961  15.725   7.308  0.00  0.00     0.135 C 
HETATM    7  N   UNK N   1      31.746  15.676   6.030  0.00  0.00    -0.358 N 
ATOM      8  HN  UNK N   1      32.048  14.827   5.552  1.00  0.00     0.162 HD
BRANCH   7   9
HETATM    9  C   UNK N   1      31.123  16.697   5.201  0.00  0.00     0.185 C 
BRANCH   9  10
HETATM   10  C   UNK N   1      29.996  15.988   4.430  0.00  0.00     0.076 C 
BRANCH  10  11
HETATM   11  C   UNK N   1      28.582  16.369   4.712  0.00  0.00    -0.028 A 
HETATM   12  C   UNK N   1      27.574  15.510   5.137  0.00  0.00     0.096 A 
HETATM   13  N   UNK N   1      26.439  16.217   5.358  0.00  0.00    -0.365 N 
HETATM   14  C   UNK N   1      26.740  17.502   5.085  0.00  0.00     0.042 A 
HETATM   15  H   UNK N   1      25.571  15.864   5.659  0.00  0.00     0.165 HD
HETATM   16  C   UNK N   1      25.892  18.597   5.188  0.00  0.00     0.030 A 
HETATM   17  C   UNK N   1      28.041  17.626   4.689  0.00  0.00    -0.002 A 
HETATM   18  C   UNK N   1      26.417  19.863   4.864  0.00  0.00     0.002 A 
HETATM   19  C   UNK N   1      27.764  19.995   4.453  0.00  0.00     0.001 A 
HETATM   20  C   UNK N   1      28.596  18.863   4.364  0.00  0.00     0.014 A 
ENDBRANCH  10  11
ENDBRANCH   9  10
BRANCH   9  21
HETATM   21  C   UNK N   1      32.169  17.374   4.342  0.00  0.00     0.163 C 
HETATM   22  O   UNK N   1      33.166  17.868   4.845  0.00  0.00    -0.648 OA
BRANCH  21  23
HETATM   23  O   UNK N   1      31.981  17.473   3.011  0.00  0.00    -0.775 OA
HETATM   24  H   UNK N   1      31.428  17.778   2.319  0.00  0.00     0.167 HD
ENDBRANCH  21  23
ENDBRANCH   9  21
ENDBRANCH   7   9
BRANCH   6  25
HETATM   25  O   UNK N   1      32.536  14.658   7.897  0.00  0.00    -0.348 OA
HETATM   26  H   UNK N   1      32.966  14.342   8.667  0.00  0.00     0.219 HD
ENDBRANCH   6  25
ENDBRANCH   1   6
BRANCH   1  27
HETATM   27  N   UNK N   1      32.445  18.033   7.852  0.00  0.00    -0.321 N 
HETATM   28  H   UNK N   1      32.104  18.908   7.453  0.00  0.00     0.165 HD
BRANCH  27  29
HETATM   29  P   UNK N   1      34.179  17.716   8.229  0.00  0.00     0.348 P 
HETATM   30  O   UNK N   1      34.909  19.080   8.163  0.00  0.00    -0.637 OA
BRANCH  29  31
HETATM   31  O   UNK N   1      34.870  16.763   6.952  0.00  0.00    -0.313 OA
HETATM   32  H   UNK N   1      35.696  16.281   6.787  0.00  0.00     0.221 HD
ENDBRANCH  29  31
BRANCH  29  33
HETATM   33  O   UNK N   1      34.402  17.060   9.852  0.00  0.00    -0.268 OA
BRANCH  33  34
HETATM   34  C   UNK N   1      34.807  15.705   9.820  0.00  0.00     0.302 C 
HETATM   35  C   UNK N   1      34.181  14.961  11.018  0.00  0.00     0.205 C 
HETATM   36  C   UNK N   1      34.596  13.483  11.071  0.00  0.00     0.183 C 
HETATM   37  C   UNK N   1      35.968  13.260  10.404  0.00  0.00     0.178 C 
HETATM   38  C   UNK N   1      36.826  14.534  10.459  0.00  0.00     0.152 C 
HETATM   39  C   UNK N   1      38.186  14.258   9.840  0.00  0.00     0.042 C 
HETATM   40  O   UNK N   1      36.234  15.599   9.718  0.00  0.00    -0.350 OA
BRANCH  35  41
HETATM   41  O   UNK N   1      32.788  15.073  11.015  0.00  0.00    -0.388 OA
HETATM   42  H   UNK N   1      32.246  14.423  11.488  0.00  0.00     0.210 HD
ENDBRANCH  35  41
BRANCH  36  43
HETATM   43  O   UNK N   1      34.618  13.093  12.415  0.00  0.00    -0.390 OA
HETATM   44  H   UNK N   1      34.227  12.668  13.196  0.00  0.00     0.210 HD
ENDBRANCH  36  43
BRANCH  37  45
HETATM   45  O   UNK N   1      36.621  12.163  10.977  0.00  0.00    -0.390 OA
HETATM   46  H   UNK N   1      37.045  12.207  11.848  0.00  0.00     0.210 HD
ENDBRANCH  37  45
ENDBRANCH  33  34
ENDBRANCH  29  33
ENDBRANCH  27  29
ENDBRANCH   1  27
TORSDOF 17
ENDMDL
MODEL 3
REMARK VINA RESULT:      -7.5     10.320     14.676
REMARK  17 active torsions:
REMARK  status: ('A' for Active; 'I' for Inactive)
REMARK    1  A    between atoms: C_11  and  C_8 
REMARK    2  A    between atoms: C_16  and  C_8 
REMARK    3  A    between atoms: C_13  and  C_9 
REMARK    4  A    between atoms: C_17  and  C_9 
REMARK    5  A    between atoms: C_21  and  C_16 
REMARK    6  A    between atoms: C_16  and  N_27 
REMARK    7  A    between atoms: C_22  and  C_17 
REMARK    8  A    between atoms: C_17  and  N_25 
REMARK    9  A    between atoms: C_18  and  O_28 
REMARK   10  A    between atoms: C_19  and  O_29 
REMARK   11  A    between atoms: C_20  and  O_30 
REMARK   12  A    between atoms: C_21  and  O_31 
REMARK   13  A    between atoms: O_33  and  C_22 
REMARK   14  A    between atoms: C_23  and  O_37 
REMARK   15  A    between atoms: P_38  and  N_27 
REMARK   16  A    between atoms: P_38  and  O_34 
REMARK   17  A    between atoms: P_38  and  O_37 
ROOT
HETATM    1  C   UNK N   1      20.832  14.275   4.847  0.00  0.00     0.162 C 
ENDROOT
BRANCH   1   2
HETATM    2  C   UNK N   1      21.716  13.506   3.855  0.00  0.00     0.037 C 
BRANCH   2   3
HETATM    3  C   UNK N   1      23.114  14.077   3.680  0.00  0.00    -0.020 C 
HETATM    4  C   UNK N   1      23.289  14.437   2.221  0.00  0.00     0.009 C 
HETATM    5  C   UNK N   1      24.158  13.041   4.030  0.00  0.00     0.009 C 
ENDBRANCH   2   3
ENDBRANCH   1   2
BRANCH   1   6
HETATM    6  C   UNK N   1      19.483  14.542   4.212  0.00  0.00     0.135 C 
HETATM    7  N   UNK N   1      19.277  15.451   3.311  0.00  0.00    -0.358 N 
ATOM      8  HN  UNK N   1      18.322  15.536   2.963  1.00  0.00     0.162 HD
BRANCH   7   9
HETATM    9  C   UNK N   1      20.256  16.364   2.739  0.00  0.00     0.185 C 
BRANCH   9  10
HETATM   10  C   UNK N   1      20.188  17.644   3.588  0.00  0.00     0.076 C 
BRANCH  10  11
HETATM   11  C   UNK N   1      21.064  18.795   3.223  0.00  0.00    -0.028 A 
HETATM   12  C   UNK N   1      20.641  20.001   2.673  0.00  0.00     0.096 A 
HETATM   13  N   UNK N   1      21.701  20.834   2.539  0.00  0.00    -0.365 N 
HETATM   14  C   UNK N   1      22.769  20.160   3.008  0.00  0.00     0.042 A 
HETATM   15  H   UNK N   1      21.694  21.748   2.173  0.00  0.00     0.165 HD
HETATM   16  C   UNK N   1      24.077  20.621   3.090  0.00  0.00     0.030 A 
HETATM   17  C   UNK N   1      22.412  18.913   3.433  0.00  0.00    -0.002 A 
HETATM   18  C   UNK N   1      25.044  19.751   3.630  0.00  0.00     0.002 A 
HETATM   19  C   UNK N   1      24.677  18.458   4.071  0.00  0.00     0.001 A 
HETATM   20  C   UNK N   1      23.341  18.025   3.976  0.00  0.00     0.014 A 
ENDBRANCH  10  11
ENDBRANCH   9  10
BRANCH   9  21
HETATM   21  C   UNK N   1      19.986  16.551   1.262  0.00  0.00     0.163 C 
HETATM   22  O   UNK N   1      20.748  16.093   0.425  0.00  0.00    -0.648 OA
BRANCH  21  23
HETATM   23  O   UNK N   1      18.916  17.267   0.861  0.00  0.00    -0.775 OA
HETATM   24  H   UNK N   1      18.606  18.070   0.493  0.00  0.00     0.167 HD
ENDBRANCH  21  23
ENDBRANCH   9  21
ENDBRANCH   7   9
BRANCH   6  25
HETATM   25  O   UNK N   1      18.432  13.810   4.628  0.00  0.00    -0.348 OA
HETATM   26  H   UNK N   1      17.852  13.629   5.342  0.00  0.00     0.219 HD
ENDBRANCH   6  25
ENDBRANCH   1   6
BRANCH   1  27
HETATM   27  N   UNK N   1      20.625  13.540   6.096  0.00  0.00    -0.321 N 
HETATM   28  H   UNK N   1      20.569  12.523   6.151  0.00  0.00     0.165 HD
BRANCH  27  29
HETATM   29  P   UNK N   1      20.483  14.627   7.528  0.00  0.00     0.348 P 
HETATM   30  O   UNK N   1      19.202  15.473   7.324  0.00  0.00    -0.637 OA
BRANCH  29  31
HETATM   31  O   UNK N   1      21.794  15.766   7.506  0.00  0.00    -0.313 OA
HETATM   32  H   UNK N   1      22.610  15.926   8.006  0.00  0.00     0.221 HD
ENDBRANCH  29  31
BRANCH  29  33
HETATM   33  O   UNK N   1      20.304  13.727   9.035  0.00  0.00    -0.268 OA
BRANCH  33  34
HETATM   34  C   UNK N   1      21.437  12.923   9.306  0.00  0.00     0.302 C 
HETATM   35  C   UNK N   1      21.606  12.784  10.833  0.00  0.00     0.205 C 
HETATM   36  C   UNK N   1      22.835  11.944  11.212  0.00  0.00     0.183 C 
HETATM   37  C   UNK N   1      23.922  12.016  10.121  0.00  0.00     0.178 C 
HETATM   38  C   UNK N   1      23.823  13.325   9.322  0.00  0.00     0.152 C 
HETATM   39  C   UNK N   1      24.941  13.379   8.295  0.00  0.00     0.042 C 
HETATM   40  O   UNK N   1      22.591  13.414   8.610  0.00  0.00    -0.350 OA
BRANCH  35  41
HETATM   41  O   UNK N   1      20.456  12.255  11.426  0.00  0.00    -0.388 OA
HETATM   42  H   UNK N   1      19.690  12.825  11.595  0.00  0.00     0.210 HD
ENDBRANCH  35  41
BRANCH  36  43
HETATM   43  O   UNK N   1      23.316  12.420  12.437  0.00  0.00    -0.390 OA
HETATM   44  H   UNK N   1      24.020  12.762  13.013  0.00  0.00     0.210 HD
ENDBRANCH  36  43
BRANCH  37  45
HETATM   45  O   UNK N   1      25.192  11.837  10.680  0.00  0.00    -0.390 OA
HETATM   46  H   UNK N   1      25.605  12.501  11.254  0.00  0.00     0.210 HD
ENDBRANCH  37  45
ENDBRANCH  33  34
ENDBRANCH  29  33
ENDBRANCH  27  29
ENDBRANCH   1  27
TORSDOF 17
ENDMDL
MODEL 4
REMARK VINA RESULT:      -7.3      3.455      8.671
REMARK  17 active torsions:
REMARK  status: ('A' for Active; 'I' for Inactive)
REMARK    1  A    between atoms: C_11  and  C_8 
REMARK    2  A    between atoms: C_16  and  C_8 
REMARK    3  A    between atoms: C_13  and  C_9 
REMARK    4  A    between atoms: C_17  and  C_9 
REMARK    5  A    between atoms: C_21  and  C_16 
REMARK    6  A    between atoms: C_16  and  N_27 
REMARK    7  A    between atoms: C_22  and  C_17 
REMARK    8  A    between atoms: C_17  and  N_25 
REMARK    9  A    between atoms: C_18  and  O_28 
REMARK   10  A    between atoms: C_19  and  O_29 
REMARK   11  A    between atoms: C_20  and  O_30 
REMARK   12  A    between atoms: C_21  and  O_31 
REMARK   13  A    between atoms: O_33  and  C_22 
REMARK   14  A    between atoms: C_23  and  O_37 
REMARK   15  A    between atoms: P_38  and  N_27 
REMARK   16  A    between atoms: P_38  and  O_34 
REMARK   17  A    between atoms: P_38  and  O_37 
ROOT
HETATM    1  C   UNK N   1      34.066  13.680   7.549  0.00  0.00     0.162 C 
ENDROOT
BRANCH   1   2
HETATM    2  C   UNK N   1      32.719  13.944   6.863  0.00  0.00     0.037 C 
BRANCH   2   3
HETATM    3  C   UNK N   1      32.657  13.516   5.406  0.00  0.00    -0.020 C 
HETATM    4  C   UNK N   1      31.203  13.501   4.988  0.00  0.00     0.009 C 
HETATM    5  C   UNK N   1      33.200  12.113   5.243  0.00  0.00     0.009 C 
ENDBRANCH   2   3
ENDBRANCH   1   2
BRANCH   1   6
HETATM    6  C   UNK N   1      35.020  14.813   7.233  0.00  0.00     0.135 C 
HETATM    7  N   UNK N   1      34.983  15.972   7.814  0.00  0.00    -0.358 N 
ATOM      8  HN  UNK N   1      35.678  16.653   7.510  1.00  0.00     0.162 HD
BRANCH   7   9
HETATM    9  C   UNK N   1      34.060  16.409   8.849  0.00  0.00     0.185 C 
BRANCH   9  10
HETATM   10  C   UNK N   1      33.323  17.630   8.274  0.00  0.00     0.076 C 
BRANCH  10  11
HETATM   11  C   UNK N   1      32.153  17.407   7.377  0.00  0.00    -0.028 A 
HETATM   12  C   UNK N   1      30.819  17.367   7.769  0.00  0.00     0.096 A 
HETATM   13  N   UNK N   1      30.030  17.214   6.678  0.00  0.00    -0.365 N 
HETATM   14  C   UNK N   1      30.861  17.170   5.618  0.00  0.00     0.042 A 
HETATM   15  H   UNK N   1      29.048  17.149   6.662  0.00  0.00     0.165 HD
HETATM   16  C   UNK N   1      30.504  17.042   4.283  0.00  0.00     0.030 A 
HETATM   17  C   UNK N   1      32.163  17.285   6.014  0.00  0.00    -0.002 A 
HETATM   18  C   UNK N   1      31.538  17.030   3.327  0.00  0.00     0.002 A 
HETATM   19  C   UNK N   1      32.888  17.149   3.733  0.00  0.00     0.001 A 
HETATM   20  C   UNK N   1      33.214  17.282   5.096  0.00  0.00     0.014 A 
ENDBRANCH  10  11
ENDBRANCH   9  10
BRANCH   9  21
HETATM   21  C   UNK N   1      34.811  16.654  10.140  0.00  0.00     0.163 C 
HETATM   22  O   UNK N   1      35.599  17.583  10.237  0.00  0.00    -0.648 OA
BRANCH  21  23
HETATM   23  O   UNK N   1      34.644  15.817  11.183  0.00  0.00    -0.775 OA
HETATM   24  H   UNK N   1      34.790  14.958  11.528  0.00  0.00     0.167 HD
ENDBRANCH  21  23
ENDBRANCH   9  21
ENDBRANCH   7   9
BRANCH   6  25
HETATM   25  O   UNK N   1      35.945  14.612   6.274  0.00  0.00    -0.348 OA
HETATM   26  H   UNK N   1      36.137  14.178   5.466  0.00  0.00     0.219 HD
ENDBRANCH   6  25
ENDBRANCH   1   6
BRANCH   1  27
HETATM   27  N   UNK N   1      33.939  13.567   9.004  0.00  0.00    -0.321 N 
HETATM   28  H   UNK N   1      33.613  14.326   9.603  0.00  0.00     0.165 HD
BRANCH  27  29
HETATM   29  P   UNK N   1      34.418  11.942   9.620  0.00  0.00     0.348 P 
HETATM   30  O   UNK N   1      34.900  11.123   8.398  0.00  0.00    -0.637 OA
BRANCH  29  31
HETATM   31  O   UNK N   1      33.004  11.116  10.198  0.00  0.00    -0.313 OA
HETATM   32  H   UNK N   1      32.115  10.907   9.869  0.00  0.00     0.221 HD
ENDBRANCH  29  31
BRANCH  29  33
HETATM   33  O   UNK N   1      35.752  12.031  10.772  0.00  0.00    -0.268 OA
BRANCH  33  34
HETATM   34  C   UNK N   1      35.329  12.527  12.029  0.00  0.00     0.302 C 
HETATM   35  C   UNK N   1      36.537  13.146  12.762  0.00  0.00     0.205 C 
HETATM   36  C   UNK N   1      36.166  13.685  14.151  0.00  0.00     0.183 C 
HETATM   37  C   UNK N   1      34.959  12.929  14.743  0.00  0.00     0.178 C 
HETATM   38  C   UNK N   1      34.861  11.506  14.172  0.00  0.00     0.152 C 
HETATM   39  C   UNK N   1      33.693  10.779  14.819  0.00  0.00     0.042 C 
HETATM   40  O   UNK N   1      34.624  11.519  12.766  0.00  0.00    -0.350 OA
BRANCH  35  41
HETATM   41  O   UNK N   1      37.136  14.150  11.996  0.00  0.00    -0.388 OA
HETATM   42  H   UNK N   1      37.984  13.985  11.554  0.00  0.00     0.210 HD
ENDBRANCH  35  41
BRANCH  36  43
HETATM   43  O   UNK N   1      37.292  13.561  14.973  0.00  0.00    -0.390 OA
HETATM   44  H   UNK N   1      38.019  13.931  15.500  0.00  0.00     0.210 HD
ENDBRANCH  36  43
BRANCH  37  45
HETATM   45  O   UNK N   1      35.016  12.931  16.141  0.00  0.00    -0.390 OA
HETATM   46  H   UNK N   1      34.481  13.532  16.682  0.00  0.00     0.210 HD
ENDBRANCH  37  45
ENDBRANCH  33  34
ENDBRANCH  29  33
ENDBRANCH  27  29
ENDBRANCH   1  27
TORSDOF 17
ENDMDL
MODEL 5
REMARK VINA RESULT:      -7.3      2.039      3.318
REMARK  17 active torsions:
REMARK  status: ('A' for Active; 'I' for Inactive)
REMARK    1  A    between atoms: C_11  and  C_8 
REMARK    2  A    between atoms: C_16  and  C_8 
REMARK    3  A    between atoms: C_13  and  C_9 
REMARK    4  A    between atoms: C_17  and  C_9 
REMARK    5  A    between atoms: C_21  and  C_16 
REMARK    6  A    between atoms: C_16  and  N_27 
REMARK    7  A    between atoms: C_22  and  C_17 
REMARK    8  A    between atoms: C_17  and  N_25 
REMARK    9  A    between atoms: C_18  and  O_28 
REMARK   10  A    between atoms: C_19  and  O_29 
REMARK   11  A    between atoms: C_20  and  O_30 
REMARK   12  A    between atoms: C_21  and  O_31 
REMARK   13  A    between atoms: O_33  and  C_22 
REMARK   14  A    between atoms: C_23  and  O_37 
REMARK   15  A    between atoms: P_38  and  N_27 
REMARK   16  A    between atoms: P_38  and  O_34 
REMARK   17  A    between atoms: P_38  and  O_37 
ROOT
HETATM    1  C   UNK N   1      32.776  15.361   8.523  0.00  0.00     0.162 C 
ENDROOT
BRANCH   1   2
HETATM    2  C   UNK N   1      32.702  16.865   8.222  0.00  0.00     0.037 C 
BRANCH   2   3
HETATM    3  C   UNK N   1      33.860  17.402   7.399  0.00  0.00    -0.020 C 
HETATM    4  C   UNK N   1      34.874  16.290   7.242  0.00  0.00     0.009 C 
HETATM    5  C   UNK N   1      34.537  18.547   8.120  0.00  0.00     0.009 C 
ENDBRANCH   2   3
ENDBRANCH   1   2
BRANCH   1   6
HETATM    6  C   UNK N   1      32.702  15.146  10.020  0.00  0.00     0.135 C 
HETATM    7  N   UNK N   1      33.737  14.918  10.768  0.00  0.00    -0.358 N 
ATOM      8  HN  UNK N   1      33.556  14.786  11.763  1.00  0.00     0.162 HD
BRANCH   7   9
HETATM    9  C   UNK N   1      35.127  14.829  10.347  0.00  0.00     0.185 C 
BRANCH   9  10
HETATM   10  C   UNK N   1      35.671  13.524  10.953  0.00  0.00     0.076 C 
BRANCH  10  11
HETATM   11  C   UNK N   1      35.606  13.337  12.431  0.00  0.00    -0.028 A 
HETATM   12  C   UNK N   1      36.087  14.224  13.389  0.00  0.00     0.096 A 
HETATM   13  N   UNK N   1      35.792  13.758  14.627  0.00  0.00    -0.365 N 
HETATM   14  C   UNK N   1      35.127  12.600  14.442  0.00  0.00     0.042 A 
HETATM   15  H   UNK N   1      36.017  14.180  15.488  0.00  0.00     0.165 HD
HETATM   16  C   UNK N   1      34.606  11.771  15.427  0.00  0.00     0.030 A 
HETATM   17  C   UNK N   1      34.998  12.318  13.113  0.00  0.00    -0.002 A 
HETATM   18  C   UNK N   1      33.931  10.607  15.013  0.00  0.00     0.002 A 
HETATM   19  C   UNK N   1      33.796  10.311  13.636  0.00  0.00     0.001 A 
HETATM   20  C   UNK N   1      34.333  11.176  12.665  0.00  0.00     0.014 A 
ENDBRANCH  10  11
ENDBRANCH   9  10
BRANCH   9  21
HETATM   21  C   UNK N   1      35.868  16.087  10.744  0.00  0.00     0.163 C 
HETATM   22  O   UNK N   1      35.259  17.100  11.050  0.00  0.00    -0.648 OA
BRANCH  21  23
HETATM   23  O   UNK N   1      37.216  16.106  10.721  0.00  0.00    -0.775 OA
HETATM   24  H   UNK N   1      37.992  15.974  10.213  0.00  0.00     0.167 HD
ENDBRANCH  21  23
ENDBRANCH   9  21
ENDBRANCH   7   9
BRANCH   6  25
HETATM   25  O   UNK N   1      31.488  15.168  10.604  0.00  0.00    -0.348 OA
HETATM   26  H   UNK N   1      30.655  14.745  10.665  0.00  0.00     0.219 HD
ENDBRANCH   6  25
ENDBRANCH   1   6
BRANCH   1  27
HETATM   27  N   UNK N   1      31.691  14.610   7.888  0.00  0.00    -0.321 N 
HETATM   28  H   UNK N   1      30.896  14.225   8.398  0.00  0.00     0.165 HD
BRANCH  27  29
HETATM   29  P   UNK N   1      31.912  14.441   6.106  0.00  0.00     0.348 P 
HETATM   30  O   UNK N   1      30.929  13.341   5.635  0.00  0.00    -0.637 OA
BRANCH  29  31
HETATM   31  O   UNK N   1      33.497  13.806   5.790  0.00  0.00    -0.313 OA
HETATM   32  H   UNK N   1      33.975  12.974   5.936  0.00  0.00     0.221 HD
ENDBRANCH  29  31
BRANCH  29  33
HETATM   33  O   UNK N   1      31.518  15.927   5.240  0.00  0.00    -0.268 OA
BRANCH  33  34
HETATM   34  C   UNK N   1      30.140  16.237   5.326  0.00  0.00     0.302 C 
HETATM   35  C   UNK N   1      29.804  17.342   4.304  0.00  0.00     0.205 C 
HETATM   36  C   UNK N   1      28.325  17.756   4.354  0.00  0.00     0.183 C 
HETATM   37  C   UNK N   1      27.722  17.516   5.752  0.00  0.00     0.178 C 
HETATM   38  C   UNK N   1      28.804  17.569   6.841  0.00  0.00     0.152 C 
HETATM   39  C   UNK N   1      28.161  17.381   8.205  0.00  0.00     0.042 C 
HETATM   40  O   UNK N   1      29.764  16.528   6.680  0.00  0.00    -0.350 OA
BRANCH  35  41
HETATM   41  O   UNK N   1      30.157  16.959   3.006  0.00  0.00    -0.388 OA
HETATM   42  H   UNK N   1      29.612  16.319   2.523  0.00  0.00     0.210 HD
ENDBRANCH  35  41
BRANCH  36  43
HETATM   43  O   UNK N   1      28.247  19.107   3.994  0.00  0.00    -0.390 OA
HETATM   44  H   UNK N   1      28.128  19.821   3.347  0.00  0.00     0.210 HD
ENDBRANCH  36  43
BRANCH  37  45
HETATM   45  O   UNK N   1      26.683  18.420   6.000  0.00  0.00    -0.390 OA
HETATM   46  H   UNK N   1      26.664  19.309   5.615  0.00  0.00     0.210 HD
ENDBRANCH  37  45
ENDBRANCH  33  34
ENDBRANCH  29  33
ENDBRANCH  27  29
ENDBRANCH   1  27
TORSDOF 17
ENDMDL
MODEL 6
REMARK VINA RESULT:      -7.3     15.341     20.215
REMARK  17 active torsions:
REMARK  status: ('A' for Active; 'I' for Inactive)
REMARK    1  A    between atoms: C_11  and  C_8 
REMARK    2  A    between atoms: C_16  and  C_8 
REMARK    3  A    between atoms: C_13  and  C_9 
REMARK    4  A    between atoms: C_17  and  C_9 
REMARK    5  A    between atoms: C_21  and  C_16 
REMARK    6  A    between atoms: C_16  and  N_27 
REMARK    7  A    between atoms: C_22  and  C_17 
REMARK    8  A    between atoms: C_17  and  N_25 
REMARK    9  A    between atoms: C_18  and  O_28 
REMARK   10  A    between atoms: C_19  and  O_29 
REMARK   11  A    between atoms: C_20  and  O_30 
REMARK   12  A    between atoms: C_21  and  O_31 
REMARK   13  A    between atoms: O_33  and  C_22 
REMARK   14  A    between atoms: C_23  and  O_37 
REMARK   15  A    between atoms: P_38  and  N_27 
REMARK   16  A    between atoms: P_38  and  O_34 
REMARK   17  A    between atoms: P_38  and  O_37 
ROOT
HETATM    1  C   UNK N   1      29.008  24.437  -7.311  0.00  0.00     0.162 C 
ENDROOT
BRANCH   1   2
HETATM    2  C   UNK N   1      28.452  25.263  -8.479  0.00  0.00     0.037 C 
BRANCH   2   3
HETATM    3  C   UNK N   1      27.615  26.461  -8.064  0.00  0.00    -0.020 C 
HETATM    4  C   UNK N   1      26.406  26.519  -8.972  0.00  0.00     0.009 C 
HETATM    5  C   UNK N   1      28.395  27.743  -8.250  0.00  0.00     0.009 C 
ENDBRANCH   2   3
ENDBRANCH   1   2
BRANCH   1   6
HETATM    6  C   UNK N   1      28.644  22.981  -7.508  0.00  0.00     0.135 C 
HETATM    7  N   UNK N   1      27.425  22.542  -7.557  0.00  0.00    -0.358 N 
ATOM      8  HN  UNK N   1      27.310  21.537  -7.691  1.00  0.00     0.162 HD
BRANCH   7   9
HETATM    9  C   UNK N   1      26.202  23.322  -7.444  0.00  0.00     0.185 C 
BRANCH   9  10
HETATM   10  C   UNK N   1      25.723  23.151  -5.992  0.00  0.00     0.076 C 
BRANCH  10  11
HETATM   11  C   UNK N   1      26.172  24.136  -4.967  0.00  0.00    -0.028 A 
HETATM   12  C   UNK N   1      27.090  23.895  -3.949  0.00  0.00     0.096 A 
HETATM   13  N   UNK N   1      27.306  25.038  -3.254  0.00  0.00    -0.365 N 
HETATM   14  C   UNK N   1      26.540  25.981  -3.837  0.00  0.00     0.042 A 
HETATM   15  H   UNK N   1      27.902  25.156  -2.479  0.00  0.00     0.165 HD
HETATM   16  C   UNK N   1      26.448  27.320  -3.478  0.00  0.00     0.030 A 
HETATM   17  C   UNK N   1      25.838  25.461  -4.885  0.00  0.00    -0.002 A 
HETATM   18  C   UNK N   1      25.591  28.142  -4.234  0.00  0.00     0.002 A 
HETATM   19  C   UNK N   1      24.861  27.607  -5.321  0.00  0.00     0.001 A 
HETATM   20  C   UNK N   1      24.982  26.246  -5.660  0.00  0.00     0.014 A 
ENDBRANCH  10  11
ENDBRANCH   9  10
BRANCH   9  21
HETATM   21  C   UNK N   1      25.215  22.892  -8.507  0.00  0.00     0.163 C 
HETATM   22  O   UNK N   1      25.330  23.278  -9.660  0.00  0.00    -0.648 OA
BRANCH  21  23
HETATM   23  O   UNK N   1      24.170  22.107  -8.174  0.00  0.00    -0.775 OA
HETATM   24  H   UNK N   1      23.869  21.237  -8.000  0.00  0.00     0.167 HD
ENDBRANCH  21  23
ENDBRANCH   9  21
ENDBRANCH   7   9
BRANCH   6  25
HETATM   25  O   UNK N   1      29.646  22.086  -7.612  0.00  0.00    -0.348 OA
HETATM   26  H   UNK N   1      30.079  21.476  -8.176  0.00  0.00     0.219 HD
ENDBRANCH   6  25
ENDBRANCH   1   6
BRANCH   1  27
HETATM   27  N   UNK N   1      30.464  24.545  -7.194  0.00  0.00    -0.321 N 
HETATM   28  H   UNK N   1      31.113  24.240  -7.920  0.00  0.00     0.165 HD
BRANCH  27  29
HETATM   29  P   UNK N   1      30.986  25.276  -5.631  0.00  0.00     0.348 P 
HETATM   30  O   UNK N   1      30.434  26.723  -5.606  0.00  0.00    -0.637 OA
BRANCH  29  31
HETATM   31  O   UNK N   1      32.714  25.444  -5.633  0.00  0.00    -0.313 OA
HETATM   32  H   UNK N   1      33.373  26.046  -6.014  0.00  0.00     0.221 HD
ENDBRANCH  29  31
BRANCH  29  33
HETATM   33  O   UNK N   1      30.322  24.420  -4.238  0.00  0.00    -0.268 OA
BRANCH  33  34
HETATM   34  C   UNK N   1      30.695  23.054  -4.234  0.00  0.00     0.302 C 
HETATM   35  C   UNK N   1      31.346  22.711  -2.878  0.00  0.00     0.205 C 
HETATM   36  C   UNK N   1      31.806  21.247  -2.802  0.00  0.00     0.183 C 
HETATM   37  C   UNK N   1      32.134  20.689  -4.202  0.00  0.00     0.178 C 
HETATM   38  C   UNK N   1      32.551  21.812  -5.164  0.00  0.00     0.152 C 
HETATM   39  C   UNK N   1      32.916  21.215  -6.513  0.00  0.00     0.042 C 
HETATM   40  O   UNK N   1      31.489  22.737  -5.385  0.00  0.00    -0.350 OA
BRANCH  35  41
HETATM   41  O   UNK N   1      30.489  23.006  -1.813  0.00  0.00    -0.388 OA
HETATM   42  H   UNK N   1      30.569  23.851  -1.344  0.00  0.00     0.210 HD
ENDBRANCH  35  41
BRANCH  36  43
HETATM   43  O   UNK N   1      32.923  21.193  -1.961  0.00  0.00    -0.390 OA
HETATM   44  H   UNK N   1      33.859  21.007  -1.783  0.00  0.00     0.210 HD
ENDBRANCH  36  43
BRANCH  37  45
HETATM   45  O   UNK N   1      33.104  19.684  -4.115  0.00  0.00    -0.390 OA
HETATM   46  H   UNK N   1      32.881  18.762  -3.917  0.00  0.00     0.210 HD
ENDBRANCH  37  45
ENDBRANCH  33  34
ENDBRANCH  29  33
ENDBRANCH  27  29
ENDBRANCH   1  27
TORSDOF 17
ENDMDL
MODEL 7
REMARK VINA RESULT:      -7.3     15.542     20.442
REMARK  17 active torsions:
REMARK  status: ('A' for Active; 'I' for Inactive)
REMARK    1  A    between atoms: C_11  and  C_8 
REMARK    2  A    between atoms: C_16  and  C_8 
REMARK    3  A    between atoms: C_13  and  C_9 
REMARK    4  A    between atoms: C_17  and  C_9 
REMARK    5  A    between atoms: C_21  and  C_16 
REMARK    6  A    between atoms: C_16  and  N_27 
REMARK    7  A    between atoms: C_22  and  C_17 
REMARK    8  A    between atoms: C_17  and  N_25 
REMARK    9  A    between atoms: C_18  and  O_28 
REMARK   10  A    between atoms: C_19  and  O_29 
REMARK   11  A    between atoms: C_20  and  O_30 
REMARK   12  A    between atoms: C_21  and  O_31 
REMARK   13  A    between atoms: O_33  and  C_22 
REMARK   14  A    between atoms: C_23  and  O_37 
REMARK   15  A    between atoms: P_38  and  N_27 
REMARK   16  A    between atoms: P_38  and  O_34 
REMARK   17  A    between atoms: P_38  and  O_37 
ROOT
HETATM    1  C   UNK N   1      27.711  24.464  -5.230  0.00  0.00     0.162 C 
ENDROOT
BRANCH   1   2
HETATM    2  C   UNK N   1      28.495  23.145  -5.239  0.00  0.00     0.037 C 
BRANCH   2   3
HETATM    3  C   UNK N   1      28.704  22.543  -6.619  0.00  0.00    -0.020 C 
HETATM    4  C   UNK N   1      29.441  21.233  -6.447  0.00  0.00     0.009 C 
HETATM    5  C   UNK N   1      29.566  23.451  -7.467  0.00  0.00     0.009 C 
ENDBRANCH   2   3
ENDBRANCH   1   2
BRANCH   1   6
HETATM    6  C   UNK N   1      26.227  24.166  -5.225  0.00  0.00     0.135 C 
HETATM    7  N   UNK N   1      25.496  24.125  -6.296  0.00  0.00    -0.358 N 
ATOM      8  HN  UNK N   1      24.506  23.917  -6.161  1.00  0.00     0.162 HD
BRANCH   7   9
HETATM    9  C   UNK N   1      25.928  24.343  -7.667  0.00  0.00     0.185 C 
BRANCH   9  10
HETATM   10  C   UNK N   1      25.619  25.817  -7.981  0.00  0.00     0.076 C 
BRANCH  10  11
HETATM   11  C   UNK N   1      26.577  26.865  -7.527  0.00  0.00    -0.028 A 
HETATM   12  C   UNK N   1      27.701  27.301  -8.221  0.00  0.00     0.096 A 
HETATM   13  N   UNK N   1      28.293  28.310  -7.538  0.00  0.00    -0.365 N 
HETATM   14  C   UNK N   1      27.542  28.507  -6.436  0.00  0.00     0.042 A 
HETATM   15  H   UNK N   1      29.107  28.801  -7.794  0.00  0.00     0.165 HD
HETATM   16  C   UNK N   1      27.751  29.454  -5.442  0.00  0.00     0.030 A 
HETATM   17  C   UNK N   1      26.488  27.640  -6.402  0.00  0.00    -0.002 A 
HETATM   18  C   UNK N   1      26.832  29.498  -4.376  0.00  0.00     0.002 A 
HETATM   19  C   UNK N   1      25.739  28.601  -4.337  0.00  0.00     0.001 A 
HETATM   20  C   UNK N   1      25.556  27.655  -5.364  0.00  0.00     0.014 A 
ENDBRANCH  10  11
ENDBRANCH   9  10
BRANCH   9  21
HETATM   21  C   UNK N   1      25.270  23.334  -8.583  0.00  0.00     0.163 C 
HETATM   22  O   UNK N   1      24.466  22.525  -8.146  0.00  0.00    -0.648 OA
BRANCH  21  23
HETATM   23  O   UNK N   1      25.603  23.295  -9.889  0.00  0.00    -0.775 OA
HETATM   24  H   UNK N   1      25.326  23.098 -10.761  0.00  0.00     0.167 HD
ENDBRANCH  21  23
ENDBRANCH   9  21
ENDBRANCH   7   9
BRANCH   6  25
HETATM   25  O   UNK N   1      25.626  23.956  -4.037  0.00  0.00    -0.348 OA
HETATM   26  H   UNK N   1      25.416  23.321  -3.382  0.00  0.00     0.219 HD
ENDBRANCH   6  25
ENDBRANCH   1   6
BRANCH   1  27
HETATM   27  N   UNK N   1      28.026  25.293  -4.064  0.00  0.00    -0.321 N 
HETATM   28  H   UNK N   1      27.387  25.433  -3.281  0.00  0.00     0.165 HD
BRANCH  27  29
HETATM   29  P   UNK N   1      29.666  26.037  -4.160  0.00  0.00     0.348 P 
HETATM   30  O   UNK N   1      29.541  27.473  -3.595  0.00  0.00    -0.637 OA
BRANCH  29  31
HETATM   31  O   UNK N   1      30.098  26.237  -5.830  0.00  0.00    -0.313 OA
HETATM   32  H   UNK N   1      30.553  26.899  -6.376  0.00  0.00     0.221 HD
ENDBRANCH  29  31
BRANCH  29  33
HETATM   33  O   UNK N   1      30.852  25.170  -3.182  0.00  0.00    -0.268 OA
BRANCH  33  34
HETATM   34  C   UNK N   1      31.100  23.871  -3.686  0.00  0.00     0.302 C 
HETATM   35  C   UNK N   1      31.468  22.936  -2.515  0.00  0.00     0.205 C 
HETATM   36  C   UNK N   1      31.781  21.507  -2.983  0.00  0.00     0.183 C 
HETATM   37  C   UNK N   1      32.304  21.493  -4.433  0.00  0.00     0.178 C 
HETATM   38  C   UNK N   1      32.980  22.825  -4.793  0.00  0.00     0.152 C 
HETATM   39  C   UNK N   1      33.527  22.750  -6.210  0.00  0.00     0.042 C 
HETATM   40  O   UNK N   1      32.057  23.910  -4.754  0.00  0.00    -0.350 OA
BRANCH  35  41
HETATM   41  O   UNK N   1      30.463  22.919  -1.543  0.00  0.00    -0.388 OA
HETATM   42  H   UNK N   1      30.670  23.156  -0.626  0.00  0.00     0.210 HD
ENDBRANCH  35  41
BRANCH  36  43
HETATM   43  O   UNK N   1      32.722  20.964  -2.101  0.00  0.00    -0.390 OA
HETATM   44  H   UNK N   1      33.234  20.971  -1.276  0.00  0.00     0.210 HD
ENDBRANCH  36  43
BRANCH  37  45
HETATM   45  O   UNK N   1      33.154  20.400  -4.638  0.00  0.00    -0.390 OA
HETATM   46  H   UNK N   1      33.530  19.890  -3.905  0.00  0.00     0.210 HD
ENDBRANCH  37  45
ENDBRANCH  33  34
ENDBRANCH  29  33
ENDBRANCH  27  29
ENDBRANCH   1  27
TORSDOF 17
ENDMDL
MODEL 8
REMARK VINA RESULT:      -7.2     15.997     20.168
REMARK  17 active torsions:
REMARK  status: ('A' for Active; 'I' for Inactive)
REMARK    1  A    between atoms: C_11  and  C_8 
REMARK    2  A    between atoms: C_16  and  C_8 
REMARK    3  A    between atoms: C_13  and  C_9 
REMARK    4  A    between atoms: C_17  and  C_9 
REMARK    5  A    between atoms: C_21  and  C_16 
REMARK    6  A    between atoms: C_16  and  N_27 
REMARK    7  A    between atoms: C_22  and  C_17 
REMARK    8  A    between atoms: C_17  and  N_25 
REMARK    9  A    between atoms: C_18  and  O_28 
REMARK   10  A    between atoms: C_19  and  O_29 
REMARK   11  A    between atoms: C_20  and  O_30 
REMARK   12  A    between atoms: C_21  and  O_31 
REMARK   13  A    between atoms: O_33  and  C_22 
REMARK   14  A    between atoms: C_23  and  O_37 
REMARK   15  A    between atoms: P_38  and  N_27 
REMARK   16  A    between atoms: P_38  and  O_34 
REMARK   17  A    between atoms: P_38  and  O_37 
ROOT
HETATM    1  C   UNK N   1      28.849  24.414  -3.676  0.00  0.00     0.162 C 
ENDROOT
BRANCH   1   2
HETATM    2  C   UNK N   1      29.065  25.611  -4.613  0.00  0.00     0.037 C 
BRANCH   2   3
HETATM    3  C   UNK N   1      30.327  26.411  -4.335  0.00  0.00    -0.020 C 
HETATM    4  C   UNK N   1      29.927  27.664  -3.586  0.00  0.00     0.009 C 
HETATM    5  C   UNK N   1      30.981  26.835  -5.631  0.00  0.00     0.009 C 
ENDBRANCH   2   3
ENDBRANCH   1   2
BRANCH   1   6
HETATM    6  C   UNK N   1      27.371  24.269  -3.381  0.00  0.00     0.135 C 
HETATM    7  N   UNK N   1      26.436  24.492  -4.252  0.00  0.00    -0.358 N 
ATOM      8  HN  UNK N   1      25.477  24.363  -3.930  1.00  0.00     0.162 HD
BRANCH   7   9
HETATM    9  C   UNK N   1      26.601  24.906  -5.636  0.00  0.00     0.185 C 
BRANCH   9  10
HETATM   10  C   UNK N   1      25.623  26.074  -5.850  0.00  0.00     0.076 C 
BRANCH  10  11
HETATM   11  C   UNK N   1      25.943  27.399  -5.244  0.00  0.00    -0.028 A 
HETATM   12  C   UNK N   1      25.403  27.912  -4.069  0.00  0.00     0.096 A 
HETATM   13  N   UNK N   1      25.976  29.107  -3.791  0.00  0.00    -0.365 N 
HETATM   14  C   UNK N   1      26.870  29.332  -4.774  0.00  0.00     0.042 A 
HETATM   15  H   UNK N   1      25.781  29.694  -3.025  0.00  0.00     0.165 HD
HETATM   16  C   UNK N   1      27.713  30.428  -4.901  0.00  0.00     0.030 A 
HETATM   17  C   UNK N   1      26.873  28.306  -5.675  0.00  0.00    -0.002 A 
HETATM   18  C   UNK N   1      28.586  30.458  -6.005  0.00  0.00     0.002 A 
HETATM   19  C   UNK N   1      28.591  29.398  -6.942  0.00  0.00     0.001 A 
HETATM   20  C   UNK N   1      27.725  28.299  -6.780  0.00  0.00     0.014 A 
ENDBRANCH  10  11
ENDBRANCH   9  10
BRANCH   9  21
HETATM   21  C   UNK N   1      26.405  23.721  -6.557  0.00  0.00     0.163 C 
HETATM   22  O   UNK N   1      25.394  23.616  -7.234  0.00  0.00    -0.648 OA
BRANCH  21  23
HETATM   23  O   UNK N   1      27.335  22.745  -6.601  0.00  0.00    -0.775 OA
HETATM   24  H   UNK N   1      28.189  22.491  -6.890  0.00  0.00     0.167 HD
ENDBRANCH  21  23
ENDBRANCH   9  21
ENDBRANCH   7   9
BRANCH   6  25
HETATM   25  O   UNK N   1      27.006  23.912  -2.134  0.00  0.00    -0.348 OA
HETATM   26  H   UNK N   1      26.432  23.377  -1.622  0.00  0.00     0.219 HD
ENDBRANCH   6  25
ENDBRANCH   1   6
BRANCH   1  27
HETATM   27  N   UNK N   1      29.337  23.160  -4.252  0.00  0.00    -0.321 N 
HETATM   28  H   UNK N   1      28.889  22.685  -5.035  0.00  0.00     0.165 HD
BRANCH  27  29
HETATM   29  P   UNK N   1      30.819  22.545  -3.427  0.00  0.00     0.348 P 
HETATM   30  O   UNK N   1      30.708  22.960  -1.939  0.00  0.00    -0.637 OA
BRANCH  29  31
HETATM   31  O   UNK N   1      32.202  23.399  -4.040  0.00  0.00    -0.313 OA
HETATM   32  H   UNK N   1      32.737  23.403  -4.849  0.00  0.00     0.221 HD
ENDBRANCH  29  31
BRANCH  29  33
HETATM   33  O   UNK N   1      30.939  20.786  -3.493  0.00  0.00    -0.268 OA
BRANCH  33  34
HETATM   34  C   UNK N   1      31.336  20.334  -4.774  0.00  0.00     0.302 C 
HETATM   35  C   UNK N   1      32.860  20.091  -4.776  0.00  0.00     0.205 C 
HETATM   36  C   UNK N   1      33.377  19.622  -6.144  0.00  0.00     0.183 C 
HETATM   37  C   UNK N   1      32.476  20.129  -7.288  0.00  0.00     0.178 C 
HETATM   38  C   UNK N   1      31.752  21.426  -6.892  0.00  0.00     0.152 C 
HETATM   39  C   UNK N   1      30.919  21.920  -8.063  0.00  0.00     0.042 C 
HETATM   40  O   UNK N   1      30.861  21.217  -5.799  0.00  0.00    -0.350 OA
BRANCH  35  41
HETATM   41  O   UNK N   1      33.232  19.183  -3.780  0.00  0.00    -0.388 OA
HETATM   42  H   UNK N   1      34.119  19.225  -3.391  0.00  0.00     0.210 HD
ENDBRANCH  35  41
BRANCH  36  43
HETATM   43  O   UNK N   1      34.689  20.087  -6.288  0.00  0.00    -0.390 OA
HETATM   44  H   UNK N   1      35.463  20.589  -5.986  0.00  0.00     0.210 HD
ENDBRANCH  36  43
BRANCH  37  45
HETATM   45  O   UNK N   1      33.217  20.281  -8.466  0.00  0.00    -0.390 OA
HETATM   46  H   UNK N   1      33.460  19.529  -9.027  0.00  0.00     0.210 HD
ENDBRANCH  37  45
ENDBRANCH  33  34
ENDBRANCH  29  33
ENDBRANCH  27  29
ENDBRANCH   1  27
TORSDOF 17
ENDMDL
MODEL 9
REMARK VINA RESULT:      -7.2      2.879      9.790
REMARK  17 active torsions:
REMARK  status: ('A' for Active; 'I' for Inactive)
REMARK    1  A    between atoms: C_11  and  C_8 
REMARK    2  A    between atoms: C_16  and  C_8 
REMARK    3  A    between atoms: C_13  and  C_9 
REMARK    4  A    between atoms: C_17  and  C_9 
REMARK    5  A    between atoms: C_21  and  C_16 
REMARK    6  A    between atoms: C_16  and  N_27 
REMARK    7  A    between atoms: C_22  and  C_17 
REMARK    8  A    between atoms: C_17  and  N_25 
REMARK    9  A    between atoms: C_18  and  O_28 
REMARK   10  A    between atoms: C_19  and  O_29 
REMARK   11  A    between atoms: C_20  and  O_30 
REMARK   12  A    between atoms: C_21  and  O_31 
REMARK   13  A    between atoms: O_33  and  C_22 
REMARK   14  A    between atoms: C_23  and  O_37 
REMARK   15  A    between atoms: P_38  and  N_27 
REMARK   16  A    between atoms: P_38  and  O_34 
REMARK   17  A    between atoms: P_38  and  O_37 
ROOT
HETATM    1  C   UNK N   1      33.110  15.505   7.284  0.00  0.00     0.162 C 
ENDROOT
BRANCH   1   2
HETATM    2  C   UNK N   1      33.597  16.795   6.609  0.00  0.00     0.037 C 
BRANCH   2   3
HETATM    3  C   UNK N   1      33.380  18.057   7.427  0.00  0.00    -0.020 C 
HETATM    4  C   UNK N   1      34.637  18.312   8.229  0.00  0.00     0.009 C 
HETATM    5  C   UNK N   1      32.239  17.868   8.401  0.00  0.00     0.009 C 
ENDBRANCH   2   3
ENDBRANCH   1   2
BRANCH   1   6
HETATM    6  C   UNK N   1      32.400  14.642   6.263  0.00  0.00     0.135 C 
HETATM    7  N   UNK N   1      31.423  15.060   5.519  0.00  0.00    -0.358 N 
ATOM      8  HN  UNK N   1      31.024  14.381   4.871  1.00  0.00     0.162 HD
BRANCH   7   9
HETATM    9  C   UNK N   1      30.832  16.390   5.505  0.00  0.00     0.185 C 
BRANCH   9  10
HETATM   10  C   UNK N   1      29.396  16.221   6.030  0.00  0.00     0.076 C 
BRANCH  10  11
HETATM   11  C   UNK N   1      28.723  17.390   6.666  0.00  0.00    -0.028 A 
HETATM   12  C   UNK N   1      28.572  17.601   8.033  0.00  0.00     0.096 A 
HETATM   13  N   UNK N   1      27.973  18.799   8.243  0.00  0.00    -0.365 N 
HETATM   14  C   UNK N   1      27.762  19.331   7.023  0.00  0.00     0.042 A 
HETATM   15  H   UNK N   1      27.739  19.200   9.111  0.00  0.00     0.165 HD
HETATM   16  C   UNK N   1      27.189  20.563   6.738  0.00  0.00     0.030 A 
HETATM   17  C   UNK N   1      28.210  18.495   6.041  0.00  0.00    -0.002 A 
HETATM   18  C   UNK N   1      27.074  20.934   5.385  0.00  0.00     0.002 A 
HETATM   19  C   UNK N   1      27.536  20.070   4.365  0.00  0.00     0.001 A 
HETATM   20  C   UNK N   1      28.117  18.829   4.690  0.00  0.00     0.014 A 
ENDBRANCH  10  11
ENDBRANCH   9  10
BRANCH   9  21
HETATM   21  C   UNK N   1      30.950  16.992   4.122  0.00  0.00     0.163 C 
HETATM   22  O   UNK N   1      30.384  16.481   3.167  0.00  0.00    -0.648 OA
BRANCH  21  23
HETATM   23  O   UNK N   1      31.720  18.082   3.928  0.00  0.00    -0.775 OA
HETATM   24  H   UNK N   1      31.819  19.004   4.061  0.00  0.00     0.167 HD
ENDBRANCH  21  23
ENDBRANCH   9  21
ENDBRANCH   7   9
BRANCH   6  25
HETATM   25  O   UNK N   1      32.789  13.358   6.138  0.00  0.00    -0.348 OA
HETATM   26  H   UNK N   1      32.658  12.481   6.439  0.00  0.00     0.219 HD
ENDBRANCH   6  25
ENDBRANCH   1   6
BRANCH   1  27
HETATM   27  N   UNK N   1      34.208  14.732   7.868  0.00  0.00    -0.321 N 
HETATM   28  H   UNK N   1      35.125  14.636   7.433  0.00  0.00     0.165 HD
BRANCH  27  29
HETATM   29  P   UNK N   1      33.764  13.972   9.442  0.00  0.00     0.348 P 
HETATM   30  O   UNK N   1      32.900  12.730   9.112  0.00  0.00    -0.637 OA
BRANCH  29  31
HETATM   31  O   UNK N   1      32.711  15.045  10.312  0.00  0.00    -0.313 OA
HETATM   32  H   UNK N   1      32.306  15.916  10.172  0.00  0.00     0.221 HD
ENDBRANCH  29  31
BRANCH  29  33
HETATM   33  O   UNK N   1      35.179  13.425  10.343  0.00  0.00    -0.268 OA
BRANCH  33  34
HETATM   34  C   UNK N   1      34.939  13.403  11.737  0.00  0.00     0.302 C 
HETATM   35  C   UNK N   1      36.202  13.890  12.477  0.00  0.00     0.205 C 
HETATM   36  C   UNK N   1      36.032  13.870  14.003  0.00  0.00     0.183 C 
HETATM   37  C   UNK N   1      35.005  12.806  14.440  0.00  0.00     0.178 C 
HETATM   38  C   UNK N   1      34.921  11.662  13.418  0.00  0.00     0.152 C 
HETATM   39  C   UNK N   1      33.940  10.612  13.910  0.00  0.00     0.042 C 
HETATM   40  O   UNK N   1      34.449  12.121  12.153  0.00  0.00    -0.350 OA
BRANCH  35  41
HETATM   41  O   UNK N   1      36.584  15.165  12.048  0.00  0.00    -0.388 OA
HETATM   42  H   UNK N   1      36.880  15.302  11.134  0.00  0.00     0.210 HD
ENDBRANCH  35  41
BRANCH  36  43
HETATM   43  O   UNK N   1      37.288  13.624  14.570  0.00  0.00    -0.390 OA
HETATM   44  H   UNK N   1      38.063  13.064  14.738  0.00  0.00     0.210 HD
ENDBRANCH  36  43
BRANCH  37  45
HETATM   45  O   UNK N   1      35.298  12.340  15.726  0.00  0.00    -0.390 OA
HETATM   46  H   UNK N   1      35.933  11.625  15.888  0.00  0.00     0.210 HD
ENDBRANCH  37  45
ENDBRANCH  33  34
ENDBRANCH  29  33
ENDBRANCH  27  29
ENDBRANCH   1  27
TORSDOF 17
ENDMDL
