MODEL 1
REMARK VINA RESULT:      -7.7      0.000      0.000
REMARK  6 active torsions:
REMARK  status: ('A' for Active; 'I' for Inactive)
REMARK    1  A    between atoms: C_11  and  C_6 
REMARK    2  A    between atoms: O_17  and  C_6 
REMARK    3  A    between atoms: O_22  and  C_8 
REMARK    4  A    between atoms: C_13  and  O_19 
REMARK    5  A    between atoms: C_14  and  O_20 
REMARK    6  A    between atoms: C_16  and  O_22 
ROOT
HETATM    1  C   UNK N   1      34.689  13.904   9.890  0.00  0.00     0.179 C 
HETATM    2  C   UNK N   1      34.376  15.414   9.647  0.00  0.00     0.180 C 
HETATM    3  C   UNK N   1      35.072  16.316  10.681  0.00  0.00     0.183 C 
HETATM    4  C   UNK N   1      36.268  15.606  11.270  0.00  0.00     0.205 C 
HETATM    5  C   UNK N   1      35.739  14.307  11.989  0.00  0.00     0.298 C 
HETATM    6  O   UNK N   1      37.210  15.304  10.280  0.00  0.00    -0.388 OA
HETATM    7  O   UNK N   1      34.748  13.569  11.263  0.00  0.00    -0.348 OA
HETATM    8  H   UNK N   1      37.809  14.994   9.582  0.00  0.00     0.210 HD
ENDROOT
BRANCH   3   9
HETATM    9  O   UNK N   1      35.428  17.555  10.136  0.00  0.00    -0.390 OA
HETATM   10  H   UNK N   1      36.278  17.673   9.685  0.00  0.00     0.210 HD
ENDBRANCH   3   9
BRANCH   5  11
HETATM   11  O   UNK N   1      36.749  13.459  12.463  0.00  0.00    -0.318 OA
BRANCH  11  12
HETATM   12  C   UNK N   1      36.687  12.975  13.728  0.00  0.00     0.074 A 
HETATM   13  C   UNK N   1      36.537  11.600  13.956  0.00  0.00     0.038 A 
HETATM   14  C   UNK N   1      36.163  11.145  15.232  0.00  0.00     0.017 A 
HETATM   15  C   UNK N   1      35.910  12.070  16.261  0.00  0.00     0.004 A 
HETATM   16  C   UNK N   1      35.387  11.693  17.507  0.00  0.00    -0.043 A 
HETATM   17  C   UNK N   1      36.147  13.440  16.034  0.00  0.00     0.092 A 
HETATM   18  C   UNK N   1      35.071  10.272  17.824  0.00  0.00     0.049 C 
HETATM   19  C   UNK N   1      35.101  12.683  18.450  0.00  0.00     0.090 A 
HETATM   20  C   UNK N   1      35.362  14.023  18.141  0.00  0.00     0.288 A 
HETATM   21  O   UNK N   1      35.097  14.895  18.943  0.00  0.00    -0.260 OA
HETATM   22  O   UNK N   1      35.877  14.346  16.962  0.00  0.00    -0.275 OA
HETATM   23  C   UNK N   1      36.559  13.863  14.791  0.00  0.00     0.075 A 
ENDBRANCH  11  12
ENDBRANCH   5  11
BRANCH   2  24
HETATM   24  O   UNK N   1      34.795  15.745   8.354  0.00  0.00    -0.390 OA
HETATM   25  H   UNK N   1      34.437  16.095   7.523  0.00  0.00     0.210 HD
ENDBRANCH   2  24
BRANCH   1  26
HETATM   26  C   UNK N   1      33.644  13.028   9.209  0.00  0.00     0.198 C 
BRANCH  26  27
HETATM   27  O   UNK N   1      32.433  13.709   9.074  0.00  0.00    -0.398 OA
HETATM   28  H   UNK N   1      31.869  14.168   9.716  0.00  0.00     0.209 HD
ENDBRANCH  26  27
ENDBRANCH   1  26
TORSDOF 6
ENDMDL
MODEL 2
REMARK VINA RESULT:      -7.4     13.914     16.393
REMARK  6 active torsions:
REMARK  status: ('A' for Active; 'I' for Inactive)
REMARK    1  A    between atoms: C_11  and  C_6 
REMARK    2  A    between atoms: O_17  and  C_6 
REMARK    3  A    between atoms: O_22  and  C_8 
REMARK    4  A    between atoms: C_13  and  O_19 
REMARK    5  A    between atoms: C_14  and  O_20 
REMARK    6  A    between atoms: C_16  and  O_22 
ROOT
HETATM    1  C   UNK N   1      20.583  18.510   3.684  0.00  0.00     0.179 C 
HETATM    2  C   UNK N   1      20.312  17.637   2.419  0.00  0.00     0.180 C 
HETATM    3  C   UNK N   1      20.255  16.137   2.759  0.00  0.00     0.183 C 
HETATM    4  C   UNK N   1      19.915  15.948   4.218  0.00  0.00     0.205 C 
HETATM    5  C   UNK N   1      21.060  16.627   5.062  0.00  0.00     0.298 C 
HETATM    6  O   UNK N   1      18.659  16.491   4.516  0.00  0.00    -0.388 OA
HETATM    7  O   UNK N   1      21.493  17.905   4.584  0.00  0.00    -0.348 OA
HETATM    8  H   UNK N   1      17.844  16.965   4.747  0.00  0.00     0.210 HD
ENDROOT
BRANCH   3   9
HETATM    9  O   UNK N   1      19.362  15.449   1.930  0.00  0.00    -0.390 OA
HETATM   10  H   UNK N   1      19.674  14.993   1.134  0.00  0.00     0.210 HD
ENDBRANCH   3   9
BRANCH   5  11
HETATM   11  O   UNK N   1      20.814  16.663   6.441  0.00  0.00    -0.318 OA
BRANCH  11  12
HETATM   12  C   UNK N   1      21.480  15.821   7.269  0.00  0.00     0.074 A 
HETATM   13  C   UNK N   1      22.690  15.237   6.867  0.00  0.00     0.038 A 
HETATM   14  C   UNK N   1      23.205  14.145   7.583  0.00  0.00     0.017 A 
HETATM   15  C   UNK N   1      22.491  13.623   8.678  0.00  0.00     0.004 A 
HETATM   16  C   UNK N   1      22.870  12.444   9.337  0.00  0.00    -0.043 A 
HETATM   17  C   UNK N   1      21.322  14.275   9.116  0.00  0.00     0.092 A 
HETATM   18  C   UNK N   1      24.072  11.667   8.920  0.00  0.00     0.049 C 
HETATM   19  C   UNK N   1      22.068  11.957  10.372  0.00  0.00     0.090 A 
HETATM   20  C   UNK N   1      20.918  12.665  10.741  0.00  0.00     0.288 A 
HETATM   21  O   UNK N   1      20.200  12.241  11.622  0.00  0.00    -0.260 OA
HETATM   22  O   UNK N   1      20.597  13.789  10.112  0.00  0.00    -0.275 OA
HETATM   23  C   UNK N   1      20.857  15.373   8.429  0.00  0.00     0.075 A 
ENDBRANCH  11  12
ENDBRANCH   5  11
BRANCH   2  24
HETATM   24  O   UNK N   1      19.103  18.052   1.851  0.00  0.00    -0.390 OA
HETATM   25  H   UNK N   1      18.693  18.174   0.980  0.00  0.00     0.210 HD
ENDBRANCH   2  24
BRANCH   1  26
HETATM   26  C   UNK N   1      21.116  19.880   3.282  0.00  0.00     0.198 C 
BRANCH  26  27
HETATM   27  O   UNK N   1      20.296  20.898   3.771  0.00  0.00    -0.398 OA
HETATM   28  H   UNK N   1      20.379  21.491   4.535  0.00  0.00     0.209 HD
ENDBRANCH  26  27
ENDBRANCH   1  26
TORSDOF 6
ENDMDL
MODEL 3
REMARK VINA RESULT:      -7.2      1.687      3.463
REMARK  6 active torsions:
REMARK  status: ('A' for Active; 'I' for Inactive)
REMARK    1  A    between atoms: C_11  and  C_6 
REMARK    2  A    between atoms: O_17  and  C_6 
REMARK    3  A    between atoms: O_22  and  C_8 
REMARK    4  A    between atoms: C_13  and  O_19 
REMARK    5  A    between atoms: C_14  and  O_20 
REMARK    6  A    between atoms: C_16  and  O_22 
ROOT
HETATM    1  C   UNK N   1      34.134  16.982   8.910  0.00  0.00     0.179 C 
HETATM    2  C   UNK N   1      33.280  15.926   8.142  0.00  0.00     0.180 C 
HETATM    3  C   UNK N   1      33.500  14.504   8.687  0.00  0.00     0.183 C 
HETATM    4  C   UNK N   1      34.005  14.565  10.109  0.00  0.00     0.205 C 
HETATM    5  C   UNK N   1      35.383  15.332  10.088  0.00  0.00     0.298 C 
HETATM    6  O   UNK N   1      33.075  15.192  10.946  0.00  0.00    -0.388 OA
HETATM    7  O   UNK N   1      35.418  16.500   9.260  0.00  0.00    -0.348 OA
HETATM    8  H   UNK N   1      32.485  15.726  11.502  0.00  0.00     0.210 HD
ENDROOT
BRANCH   3   9
HETATM    9  O   UNK N   1      32.344  13.722   8.587  0.00  0.00    -0.390 OA
HETATM   10  H   UNK N   1      31.768  13.587   9.355  0.00  0.00     0.210 HD
ENDBRANCH   3   9
BRANCH   5  11
HETATM   11  O   UNK N   1      35.911  15.599  11.358  0.00  0.00    -0.318 OA
BRANCH  11  12
HETATM   12  C   UNK N   1      36.438  14.592  12.098  0.00  0.00     0.074 A 
HETATM   13  C   UNK N   1      37.079  13.512  11.474  0.00  0.00     0.038 A 
HETATM   14  C   UNK N   1      37.337  12.342  12.207  0.00  0.00     0.017 A 
HETATM   15  C   UNK N   1      36.923  12.247  13.549  0.00  0.00     0.004 A 
HETATM   16  C   UNK N   1      37.011  11.058  14.287  0.00  0.00    -0.043 A 
HETATM   17  C   UNK N   1      36.356  13.372  14.179  0.00  0.00     0.092 A 
HETATM   18  C   UNK N   1      37.564   9.808  13.692  0.00  0.00     0.049 C 
HETATM   19  C   UNK N   1      36.515  11.031  15.592  0.00  0.00     0.090 A 
HETATM   20  C   UNK N   1      35.962  12.193  16.141  0.00  0.00     0.288 A 
HETATM   21  O   UNK N   1      35.506  12.178  17.266  0.00  0.00    -0.260 OA
HETATM   22  O   UNK N   1      35.912  13.309  15.425  0.00  0.00    -0.275 OA
HETATM   23  C   UNK N   1      36.153  14.526  13.458  0.00  0.00     0.075 A 
ENDBRANCH  11  12
ENDBRANCH   5  11
BRANCH   2  24
HETATM   24  O   UNK N   1      31.933  16.286   8.256  0.00  0.00    -0.390 OA
HETATM   25  H   UNK N   1      31.378  17.078   8.337  0.00  0.00     0.210 HD
ENDBRANCH   2  24
BRANCH   1  26
HETATM   26  C   UNK N   1      34.289  18.249   8.077  0.00  0.00     0.198 C 
BRANCH  26  27
HETATM   27  O   UNK N   1      35.279  19.077   8.608  0.00  0.00    -0.398 OA
HETATM   28  H   UNK N   1      35.953  19.637   8.190  0.00  0.00     0.209 HD
ENDBRANCH  26  27
ENDBRANCH   1  26
TORSDOF 6
ENDMDL
MODEL 4
REMARK VINA RESULT:      -7.1     13.011     15.998
REMARK  6 active torsions:
REMARK  status: ('A' for Active; 'I' for Inactive)
REMARK    1  A    between atoms: C_11  and  C_6 
REMARK    2  A    between atoms: O_17  and  C_6 
REMARK    3  A    between atoms: O_22  and  C_8 
REMARK    4  A    between atoms: C_13  and  O_19 
REMARK    5  A    between atoms: C_14  and  O_20 
REMARK    6  A    between atoms: C_16  and  O_22 
ROOT
HETATM    1  C   UNK N   1      20.789  18.264   4.242  0.00  0.00     0.179 C 
HETATM    2  C   UNK N   1      20.346  17.369   3.042  0.00  0.00     0.180 C 
HETATM    3  C   UNK N   1      20.275  15.882   3.431  0.00  0.00     0.183 C 
HETATM    4  C   UNK N   1      20.097  15.744   4.925  0.00  0.00     0.205 C 
HETATM    5  C   UNK N   1      21.354  16.401   5.614  0.00  0.00     0.298 C 
HETATM    6  O   UNK N   1      18.904  16.341   5.346  0.00  0.00    -0.388 OA
HETATM    7  O   UNK N   1      21.774  17.649   5.051  0.00  0.00    -0.348 OA
HETATM    8  H   UNK N   1      18.137  16.852   5.653  0.00  0.00     0.210 HD
ENDROOT
BRANCH   3   9
HETATM    9  O   UNK N   1      19.270  15.207   2.730  0.00  0.00    -0.390 OA
HETATM   10  H   UNK N   1      18.450  15.659   2.479  0.00  0.00     0.210 HD
ENDBRANCH   3   9
BRANCH   5  11
HETATM   11  O   UNK N   1      21.268  16.483   7.009  0.00  0.00    -0.318 OA
BRANCH  11  12
HETATM   12  C   UNK N   1      21.231  15.349   7.752  0.00  0.00     0.074 A 
HETATM   13  C   UNK N   1      20.083  15.017   8.486  0.00  0.00     0.038 A 
HETATM   14  C   UNK N   1      20.158  14.029   9.482  0.00  0.00     0.017 A 
HETATM   15  C   UNK N   1      21.387  13.404   9.761  0.00  0.00     0.004 A 
HETATM   16  C   UNK N   1      21.563  12.526  10.841  0.00  0.00    -0.043 A 
HETATM   17  C   UNK N   1      22.508  13.692   8.957  0.00  0.00     0.092 A 
HETATM   18  C   UNK N   1      20.444  12.191  11.765  0.00  0.00     0.049 C 
HETATM   19  C   UNK N   1      22.833  12.001  11.087  0.00  0.00     0.090 A 
HETATM   20  C   UNK N   1      23.895  12.344  10.242  0.00  0.00     0.288 A 
HETATM   21  O   UNK N   1      25.009  11.912  10.459  0.00  0.00    -0.260 OA
HETATM   22  O   UNK N   1      23.692  13.160   9.216  0.00  0.00    -0.275 OA
HETATM   23  C   UNK N   1      22.403  14.628   7.954  0.00  0.00     0.075 A 
ENDBRANCH  11  12
ENDBRANCH   5  11
BRANCH   2  24
HETATM   24  O   UNK N   1      19.095  17.815   2.602  0.00  0.00    -0.390 OA
HETATM   25  H   UNK N   1      18.247  18.126   2.960  0.00  0.00     0.210 HD
ENDBRANCH   2  24
BRANCH   1  26
HETATM   26  C   UNK N   1      21.320  19.602   3.741  0.00  0.00     0.198 C 
BRANCH  26  27
HETATM   27  O   UNK N   1      20.320  20.576   3.764  0.00  0.00    -0.398 OA
HETATM   28  H   UNK N   1      19.670  20.825   4.440  0.00  0.00     0.209 HD
ENDBRANCH  26  27
ENDBRANCH   1  26
TORSDOF 6
ENDMDL
MODEL 5
REMARK VINA RESULT:      -7.1      1.568      2.519
REMARK  6 active torsions:
REMARK  status: ('A' for Active; 'I' for Inactive)
REMARK    1  A    between atoms: C_11  and  C_6 
REMARK    2  A    between atoms: O_17  and  C_6 
REMARK    3  A    between atoms: O_22  and  C_8 
REMARK    4  A    between atoms: C_13  and  O_19 
REMARK    5  A    between atoms: C_14  and  O_20 
REMARK    6  A    between atoms: C_16  and  O_22 
ROOT
HETATM    1  C   UNK N   1      35.332  15.311  11.016  0.00  0.00     0.179 C 
HETATM    2  C   UNK N   1      36.171  14.618   9.897  0.00  0.00     0.180 C 
HETATM    3  C   UNK N   1      36.630  13.210  10.312  0.00  0.00     0.183 C 
HETATM    4  C   UNK N   1      35.722  12.664  11.389  0.00  0.00     0.205 C 
HETATM    5  C   UNK N   1      35.827  13.631  12.630  0.00  0.00     0.298 C 
HETATM    6  O   UNK N   1      34.406  12.554  10.927  0.00  0.00    -0.388 OA
HETATM    7  O   UNK N   1      35.814  15.028  12.316  0.00  0.00    -0.348 OA
HETATM    8  H   UNK N   1      33.477  12.584  10.647  0.00  0.00     0.210 HD
ENDROOT
BRANCH   3   9
HETATM    9  O   UNK N   1      36.706  12.342   9.217  0.00  0.00    -0.390 OA
HETATM   10  H   UNK N   1      37.288  11.567   9.237  0.00  0.00     0.210 HD
ENDBRANCH   3   9
BRANCH   5  11
HETATM   11  O   UNK N   1      34.928  13.339  13.664  0.00  0.00    -0.318 OA
BRANCH  11  12
HETATM   12  C   UNK N   1      35.382  12.808  14.826  0.00  0.00     0.074 A 
HETATM   13  C   UNK N   1      35.837  11.482  14.872  0.00  0.00     0.038 A 
HETATM   14  C   UNK N   1      36.006  10.849  16.115  0.00  0.00     0.017 A 
HETATM   15  C   UNK N   1      35.688  11.536  17.301  0.00  0.00     0.004 A 
HETATM   16  C   UNK N   1      35.687  10.914  18.559  0.00  0.00    -0.043 A 
HETATM   17  C   UNK N   1      35.312  12.892  17.237  0.00  0.00     0.092 A 
HETATM   18  C   UNK N   1      36.036   9.474  18.719  0.00  0.00     0.049 C 
HETATM   19  C   UNK N   1      35.293  11.650  19.679  0.00  0.00     0.090 A 
HETATM   20  C   UNK N   1      34.929  12.993  19.526  0.00  0.00     0.288 A 
HETATM   21  O   UNK N   1      34.563  13.637  20.487  0.00  0.00    -0.260 OA
HETATM   22  O   UNK N   1      34.961  13.559  18.326  0.00  0.00    -0.275 OA
HETATM   23  C   UNK N   1      35.198  13.509  16.013  0.00  0.00     0.075 A 
ENDBRANCH  11  12
ENDBRANCH   5  11
BRANCH   2  24
HETATM   24  O   UNK N   1      35.386  14.551   8.740  0.00  0.00    -0.390 OA
HETATM   25  H   UNK N   1      35.234  15.038   7.915  0.00  0.00     0.210 HD
ENDBRANCH   2  24
BRANCH   1  26
HETATM   26  C   UNK N   1      35.313  16.821  10.810  0.00  0.00     0.198 C 
BRANCH  26  27
HETATM   27  O   UNK N   1      34.322  17.187   9.897  0.00  0.00    -0.398 OA
HETATM   28  H   UNK N   1      33.362  17.295   9.987  0.00  0.00     0.209 HD
ENDBRANCH  26  27
ENDBRANCH   1  26
TORSDOF 6
ENDMDL
MODEL 6
REMARK VINA RESULT:      -7.0     13.472     16.687
REMARK  6 active torsions:
REMARK  status: ('A' for Active; 'I' for Inactive)
REMARK    1  A    between atoms: C_11  and  C_6 
REMARK    2  A    between atoms: O_17  and  C_6 
REMARK    3  A    between atoms: O_22  and  C_8 
REMARK    4  A    between atoms: C_13  and  O_19 
REMARK    5  A    between atoms: C_14  and  O_20 
REMARK    6  A    between atoms: C_16  and  O_22 
ROOT
HETATM    1  C   UNK N   1      22.147  13.682   8.585  0.00  0.00     0.179 C 
HETATM    2  C   UNK N   1      21.070  14.360   9.489  0.00  0.00     0.180 C 
HETATM    3  C   UNK N   1      20.419  15.570   8.796  0.00  0.00     0.183 C 
HETATM    4  C   UNK N   1      20.560  15.448   7.297  0.00  0.00     0.205 C 
HETATM    5  C   UNK N   1      22.102  15.429   6.968  0.00  0.00     0.298 C 
HETATM    6  O   UNK N   1      19.914  14.300   6.824  0.00  0.00    -0.388 OA
HETATM    7  O   UNK N   1      22.900  14.615   7.835  0.00  0.00    -0.348 OA
HETATM    8  H   UNK N   1      19.567  13.450   6.510  0.00  0.00     0.210 HD
ENDROOT
BRANCH   3   9
HETATM    9  O   UNK N   1      19.082  15.730   9.174  0.00  0.00    -0.390 OA
HETATM   10  H   UNK N   1      18.492  16.319   8.678  0.00  0.00     0.210 HD
ENDBRANCH   3   9
BRANCH   5  11
HETATM   11  O   UNK N   1      22.399  15.173   5.623  0.00  0.00    -0.318 OA
BRANCH  11  12
HETATM   12  C   UNK N   1      23.085  16.089   4.895  0.00  0.00     0.074 A 
HETATM   13  C   UNK N   1      24.484  16.154   4.972  0.00  0.00     0.038 A 
HETATM   14  C   UNK N   1      25.154  17.284   4.474  0.00  0.00     0.017 A 
HETATM   15  C   UNK N   1      24.418  18.355   3.932  0.00  0.00     0.004 A 
HETATM   16  C   UNK N   1      25.011  19.570   3.561  0.00  0.00    -0.043 A 
HETATM   17  C   UNK N   1      23.022  18.233   3.789  0.00  0.00     0.092 A 
HETATM   18  C   UNK N   1      26.476  19.802   3.709  0.00  0.00     0.049 C 
HETATM   19  C   UNK N   1      24.200  20.607   3.094  0.00  0.00     0.090 A 
HETATM   20  C   UNK N   1      22.819  20.404   2.989  0.00  0.00     0.288 A 
HETATM   21  O   UNK N   1      22.099  21.304   2.607  0.00  0.00    -0.260 OA
HETATM   22  O   UNK N   1      22.290  19.235   3.328  0.00  0.00    -0.275 OA
HETATM   23  C   UNK N   1      22.388  17.098   4.241  0.00  0.00     0.075 A 
ENDBRANCH  11  12
ENDBRANCH   5  11
BRANCH   2  24
HETATM   24  O   UNK N   1      20.100  13.403   9.806  0.00  0.00    -0.390 OA
HETATM   25  H   UNK N   1      19.135  13.311   9.861  0.00  0.00     0.210 HD
ENDBRANCH   2  24
BRANCH   1  26
HETATM   26  C   UNK N   1      23.096  12.839   9.429  0.00  0.00     0.198 C 
BRANCH  26  27
HETATM   27  O   UNK N   1      22.877  13.054  10.791  0.00  0.00    -0.398 OA
HETATM   28  H   UNK N   1      22.822  13.864  11.322  0.00  0.00     0.209 HD
ENDBRANCH  26  27
ENDBRANCH   1  26
TORSDOF 6
ENDMDL
MODEL 7
REMARK VINA RESULT:      -6.9     12.599     17.056
REMARK  6 active torsions:
REMARK  status: ('A' for Active; 'I' for Inactive)
REMARK    1  A    between atoms: C_11  and  C_6 
REMARK    2  A    between atoms: O_17  and  C_6 
REMARK    3  A    between atoms: O_22  and  C_8 
REMARK    4  A    between atoms: C_13  and  O_19 
REMARK    5  A    between atoms: C_14  and  O_20 
REMARK    6  A    between atoms: C_16  and  O_22 
ROOT
HETATM    1  C   UNK N   1      23.463  12.688   9.479  0.00  0.00     0.179 C 
HETATM    2  C   UNK N   1      22.283  12.873  10.485  0.00  0.00     0.180 C 
HETATM    3  C   UNK N   1      21.122  13.671   9.867  0.00  0.00     0.183 C 
HETATM    4  C   UNK N   1      21.170  13.576   8.360  0.00  0.00     0.205 C 
HETATM    5  C   UNK N   1      22.539  14.202   7.890  0.00  0.00     0.298 C 
HETATM    6  O   UNK N   1      21.035  12.248   7.937  0.00  0.00    -0.388 OA
HETATM    7  O   UNK N   1      23.680  13.830   8.672  0.00  0.00    -0.348 OA
HETATM    8  H   UNK N   1      21.056  11.322   7.648  0.00  0.00     0.210 HD
ENDROOT
BRANCH   3   9
HETATM    9  O   UNK N   1      19.882  13.260  10.367  0.00  0.00    -0.390 OA
HETATM   10  H   UNK N   1      19.228  12.838   9.789  0.00  0.00     0.210 HD
ENDBRANCH   3   9
BRANCH   5  11
HETATM   11  O   UNK N   1      22.798  14.056   6.521  0.00  0.00    -0.318 OA
BRANCH  11  12
HETATM   12  C   UNK N   1      22.010  14.682   5.612  0.00  0.00     0.074 A 
HETATM   13  C   UNK N   1      21.676  14.051   4.406  0.00  0.00     0.038 A 
HETATM   14  C   UNK N   1      21.135  14.808   3.353  0.00  0.00     0.017 A 
HETATM   15  C   UNK N   1      20.962  16.196   3.503  0.00  0.00     0.004 A 
HETATM   16  C   UNK N   1      20.574  17.030   2.444  0.00  0.00    -0.043 A 
HETATM   17  C   UNK N   1      21.226  16.796   4.750  0.00  0.00     0.092 A 
HETATM   18  C   UNK N   1      20.307  16.489   1.081  0.00  0.00     0.049 C 
HETATM   19  C   UNK N   1      20.491  18.407   2.660  0.00  0.00     0.090 A 
HETATM   20  C   UNK N   1      20.776  18.922   3.930  0.00  0.00     0.288 A 
HETATM   21  O   UNK N   1      20.731  20.119   4.126  0.00  0.00    -0.260 OA
HETATM   22  O   UNK N   1      21.120  18.105   4.918  0.00  0.00    -0.275 OA
HETATM   23  C   UNK N   1      21.712  16.030   5.785  0.00  0.00     0.075 A 
ENDBRANCH  11  12
ENDBRANCH   5  11
BRANCH   2  24
HETATM   24  O   UNK N   1      21.844  11.605  10.880  0.00  0.00    -0.390 OA
HETATM   25  H   UNK N   1      22.065  10.905  11.515  0.00  0.00     0.210 HD
ENDBRANCH   2  24
BRANCH   1  26
HETATM   26  C   UNK N   1      24.750  12.354  10.224  0.00  0.00     0.198 C 
BRANCH  26  27
HETATM   27  O   UNK N   1      24.593  12.538  11.599  0.00  0.00    -0.398 OA
HETATM   28  H   UNK N   1      25.163  12.322  12.354  0.00  0.00     0.209 HD
ENDBRANCH  26  27
ENDBRANCH   1  26
TORSDOF 6
ENDMDL
MODEL 8
REMARK VINA RESULT:      -6.8     13.120     17.738
REMARK  6 active torsions:
REMARK  status: ('A' for Active; 'I' for Inactive)
REMARK    1  A    between atoms: C_11  and  C_6 
REMARK    2  A    between atoms: O_17  and  C_6 
REMARK    3  A    between atoms: O_22  and  C_8 
REMARK    4  A    between atoms: C_13  and  O_19 
REMARK    5  A    between atoms: C_14  and  O_20 
REMARK    6  A    between atoms: C_16  and  O_22 
ROOT
HETATM    1  C   UNK N   1      22.634  13.146   8.971  0.00  0.00     0.179 C 
HETATM    2  C   UNK N   1      21.465  13.542   9.927  0.00  0.00     0.180 C 
HETATM    3  C   UNK N   1      20.539  14.596   9.295  0.00  0.00     0.183 C 
HETATM    4  C   UNK N   1      20.652  14.551   7.790  0.00  0.00     0.205 C 
HETATM    5  C   UNK N   1      22.147  14.884   7.417  0.00  0.00     0.298 C 
HETATM    6  O   UNK N   1      20.260  13.302   7.294  0.00  0.00    -0.388 OA
HETATM    7  O   UNK N   1      23.135  14.244   8.233  0.00  0.00    -0.348 OA
HETATM    8  H   UNK N   1      20.098  12.405   6.960  0.00  0.00     0.210 HD
ENDROOT
BRANCH   3   9
HETATM    9  O   UNK N   1      19.214  14.445   9.715  0.00  0.00    -0.390 OA
HETATM   10  H   UNK N   1      18.929  13.645  10.184  0.00  0.00     0.210 HD
ENDBRANCH   3   9
BRANCH   5  11
HETATM   11  O   UNK N   1      22.447  14.738   6.056  0.00  0.00    -0.318 OA
BRANCH  11  12
HETATM   12  C   UNK N   1      22.299  15.791   5.214  0.00  0.00     0.074 A 
HETATM   13  C   UNK N   1      22.263  17.101   5.713  0.00  0.00     0.038 A 
HETATM   14  C   UNK N   1      21.802  18.144   4.892  0.00  0.00     0.017 A 
HETATM   15  C   UNK N   1      21.350  17.864   3.589  0.00  0.00     0.004 A 
HETATM   16  C   UNK N   1      20.736  18.829   2.777  0.00  0.00    -0.043 A 
HETATM   17  C   UNK N   1      21.473  16.557   3.080  0.00  0.00     0.092 A 
HETATM   18  C   UNK N   1      20.532  20.229   3.246  0.00  0.00     0.049 C 
HETATM   19  C   UNK N   1      20.255  18.453   1.521  0.00  0.00     0.090 A 
HETATM   20  C   UNK N   1      20.413  17.129   1.094  0.00  0.00     0.288 A 
HETATM   21  O   UNK N   1      19.979  16.783   0.014  0.00  0.00    -0.260 OA
HETATM   22  O   UNK N   1      21.017  16.244   1.876  0.00  0.00    -0.275 OA
HETATM   23  C   UNK N   1      21.970  15.557   3.883  0.00  0.00     0.075 A 
ENDBRANCH  11  12
ENDBRANCH   5  11
BRANCH   2  24
HETATM   24  O   UNK N   1      20.742  12.385  10.237  0.00  0.00    -0.390 OA
HETATM   25  H   UNK N   1      20.872  11.513  10.642  0.00  0.00     0.210 HD
ENDBRANCH   2  24
BRANCH   1  26
HETATM   26  C   UNK N   1      23.774  12.512   9.758  0.00  0.00     0.198 C 
BRANCH  26  27
HETATM   27  O   UNK N   1      23.615  12.726  11.128  0.00  0.00    -0.398 OA
HETATM   28  H   UNK N   1      24.176  13.162  11.788  0.00  0.00     0.209 HD
ENDBRANCH  26  27
ENDBRANCH   1  26
TORSDOF 6
ENDMDL
MODEL 9
REMARK VINA RESULT:      -6.7      2.509      4.110
REMARK  6 active torsions:
REMARK  status: ('A' for Active; 'I' for Inactive)
REMARK    1  A    between atoms: C_11  and  C_6 
REMARK    2  A    between atoms: O_17  and  C_6 
REMARK    3  A    between atoms: O_22  and  C_8 
REMARK    4  A    between atoms: C_13  and  O_19 
REMARK    5  A    between atoms: C_14  and  O_20 
REMARK    6  A    between atoms: C_16  and  O_22 
ROOT
HETATM    1  C   UNK N   1      35.635  14.497  11.719  0.00  0.00     0.179 C 
HETATM    2  C   UNK N   1      36.867  13.786  11.076  0.00  0.00     0.180 C 
HETATM    3  C   UNK N   1      37.263  12.515  11.847  0.00  0.00     0.183 C 
HETATM    4  C   UNK N   1      36.082  11.994  12.631  0.00  0.00     0.205 C 
HETATM    5  C   UNK N   1      35.665  13.115  13.658  0.00  0.00     0.298 C 
HETATM    6  O   UNK N   1      35.025  11.652  11.780  0.00  0.00    -0.388 OA
HETATM    7  O   UNK N   1      35.650  14.447  13.133  0.00  0.00    -0.348 OA
HETATM    8  H   UNK N   1      34.255  11.522  11.203  0.00  0.00     0.210 HD
ENDROOT
BRANCH   3   9
HETATM    9  O   UNK N   1      37.789  11.533  11.000  0.00  0.00    -0.390 OA
HETATM   10  H   UNK N   1      37.252  11.152  10.288  0.00  0.00     0.210 HD
ENDBRANCH   3   9
BRANCH   5  11
HETATM   11  O   UNK N   1      34.487  12.840  14.364  0.00  0.00    -0.318 OA
BRANCH  11  12
HETATM   12  C   UNK N   1      34.551  12.255  15.586  0.00  0.00     0.074 A 
HETATM   13  C   UNK N   1      34.844  13.018  16.725  0.00  0.00     0.038 A 
HETATM   14  C   UNK N   1      35.215  12.373  17.916  0.00  0.00     0.017 A 
HETATM   15  C   UNK N   1      35.321  10.970  17.951  0.00  0.00     0.004 A 
HETATM   16  C   UNK N   1      35.833  10.277  19.058  0.00  0.00    -0.043 A 
HETATM   17  C   UNK N   1      34.943  10.219  16.821  0.00  0.00     0.092 A 
HETATM   18  C   UNK N   1      36.292  10.990  20.284  0.00  0.00     0.049 C 
HETATM   19  C   UNK N   1      35.969   8.888  18.986  0.00  0.00     0.090 A 
HETATM   20  C   UNK N   1      35.573   8.219  17.821  0.00  0.00     0.288 A 
HETATM   21  O   UNK N   1      35.707   7.016  17.736  0.00  0.00    -0.260 OA
HETATM   22  O   UNK N   1      35.073   8.901  16.799  0.00  0.00    -0.275 OA
HETATM   23  C   UNK N   1      34.537  10.867  15.678  0.00  0.00     0.075 A 
ENDBRANCH  11  12
ENDBRANCH   5  11
BRANCH   2  24
HETATM   24  O   UNK N   1      36.547  13.469   9.751  0.00  0.00    -0.390 OA
HETATM   25  H   UNK N   1      36.247  13.899   8.934  0.00  0.00     0.210 HD
ENDBRANCH   2  24
BRANCH   1  26
HETATM   26  C   UNK N   1      35.567  15.952  11.272  0.00  0.00     0.198 C 
BRANCH  26  27
HETATM   27  O   UNK N   1      36.784  16.363  10.726  0.00  0.00    -0.398 OA
HETATM   28  H   UNK N   1      37.449  17.004  11.024  0.00  0.00     0.209 HD
ENDBRANCH  26  27
ENDBRANCH   1  26
TORSDOF 6
ENDMDL
