REMARK  8 active torsions:
REMARK  status: ('A' for Active; 'I' for Inactive)
REMARK    1  A    between atoms: N_17  and  C_4 
REMARK    2  A    between atoms: N_17  and  C_5 
REMARK    3  A    between atoms: O_18  and  C_7 
REMARK    4  A    between atoms: C_8  and  N_14 
REMARK    5  A    between atoms: C_9  and  C_13 
REMARK    6  A    between atoms: C_10  and  N_15 
REMARK    7  A    between atoms: C_11  and  C_12 
REMARK       I    between atoms: N_17  and  C_12 
REMARK    8  A    between atoms: O_21  and  C_13 
ROOT
HETATM    1  C   UNK N   1       2.498   1.405  -0.721  0.00  0.00     0.069 C 
HETATM    2  C   UNK N   1       1.432   2.278  -0.061  0.00  0.00     0.102 C 
HETATM    3  C   UNK N   1       2.376  -0.033  -0.211  0.00  0.00     0.222 C 
HETATM    4  C   UNK N   1       0.040   1.622  -0.231  0.00  0.00     0.143 C 
HETATM    5  C   UNK N   1       0.099   0.136   0.236  0.00  0.00     0.239 C 
HETATM    6  O   UNK N   1       1.088  -0.534  -0.533  0.00  0.00    -0.358 OA
ENDROOT
BRANCH   5   7
HETATM    7  C   UNK N   1      -1.245  -0.586   0.080  0.00  0.00     0.251 C 
HETATM    8  N   UNK N   1      -1.351  -1.946   0.231  0.00  0.00    -0.351 N 
HETATM    9  O   UNK N   1      -2.246   0.069  -0.174  0.00  0.00    -0.270 OA
BRANCH   8  10
HETATM   10  C   UNK N   1      -0.188  -2.768   0.465  0.00  0.00     0.121 C 
HETATM   11  C   UNK N   1       0.106  -3.610  -0.770  0.00  0.00     0.026 C 
ENDBRANCH   8  10
BRANCH   8  12
HETATM   12  C   UNK N   1      -2.646  -2.601   0.165  0.00  0.00     0.121 C 
HETATM   13  C   UNK N   1      -3.274  -2.463  -1.212  0.00  0.00     0.026 C 
ENDBRANCH   8  12
ENDBRANCH   5   7
BRANCH   4  14
HETATM   14  N   UNK N   1      -0.977   2.363   0.498  0.00  0.00    -0.365 N 
HETATM   15  C   UNK N   1      -1.379   3.542   0.159  0.00  0.00     0.107 C 
HETATM   16  C   UNK N   1      -2.425   4.222   0.971  0.00  0.00     0.097 C 
ATOM     17  HN  UNK N   1      -1.395   1.929   1.321  1.00  0.00     0.161 HD
BRANCH  15  18
HETATM   18  O   UNK N   1      -0.885   4.160  -0.933  0.00  0.00    -0.350 OA
HETATM   19  H   UNK N   1      -0.342   4.078  -1.692  0.00  0.00     0.219 HD
ENDBRANCH  15  18
ENDBRANCH   4  14
BRANCH   2  20
HETATM   20  N   UNK N   1       1.751   2.446   1.350  0.00  0.00    -0.424 N 
HETATM   21  H   UNK N   1       1.964   2.311   2.339  0.00  0.00     0.150 HD
HETATM   22  H   UNK N   1       1.791   3.465   1.350  0.00  0.00     0.150 HD
ENDBRANCH   2  20
BRANCH   3  23
HETATM   23  C   UNK N   1       3.443  -0.884  -0.838  0.00  0.00     0.170 C 
HETATM   24  O   UNK N   1       3.146  -1.860  -1.508  0.00  0.00    -0.648 OA
BRANCH  23  25
HETATM   25  O   UNK N   1       4.741  -0.583  -0.640  0.00  0.00    -0.774 OA
HETATM   26  H   UNK N   1       5.374  -1.261  -0.502  0.00  0.00     0.167 HD
ENDBRANCH  23  25
ENDBRANCH   3  23
TORSDOF 8
