MODEL 1
REMARK VINA RESULT:      -5.4      0.000      0.000
REMARK  6 active torsions:
REMARK  status: ('A' for Active; 'I' for Inactive)
REMARK    1  A    between atoms: C_2  and  C_1 
REMARK    2  A    between atoms: O_10  and  C_1 
REMARK    3  A    between atoms: C_4  and  O_12 
REMARK    4  A    between atoms: C_5  and  O_13 
REMARK    5  A    between atoms: N_9  and  C_6 
REMARK    6  A    between atoms: O_14  and  N_9 
ROOT
HETATM    1  C   UNK N   1      21.365  17.694   3.785  0.00  0.00     0.137 C 
HETATM    2  C   UNK N   1      20.326  16.612   3.413  0.00  0.00     0.174 C 
HETATM    3  C   UNK N   1      20.354  16.447   1.899  0.00  0.00     0.185 C 
HETATM    4  C   UNK N   1      19.909  17.759   1.237  0.00  0.00     0.218 C 
HETATM    5  C   UNK N   1      20.581  18.970   1.853  0.00  0.00     0.129 C 
HETATM    6  N   UNK N   1      21.233  18.897   2.974  0.00  0.00    -0.367 N 
ATOM      7  HN  UNK N   1      21.685  19.746   3.313  1.00  0.00     0.161 HD
HETATM    8  O   UNK N   1      19.042  16.986   3.828  0.00  0.00    -0.391 OA
HETATM    9  H   UNK N   1      18.158  17.261   4.117  0.00  0.00     0.210 HD
ENDROOT
BRANCH   1  10
HETATM   10  C   UNK N   1      21.255  18.078   5.259  0.00  0.00     0.191 C 
BRANCH  10  11
HETATM   11  O   UNK N   1      21.037  19.450   5.401  0.00  0.00    -0.399 OA
HETATM   12  H   UNK N   1      21.525  20.098   4.867  0.00  0.00     0.209 HD
ENDBRANCH  10  11
ENDBRANCH   1  10
BRANCH   3  13
HETATM   13  O   UNK N   1      19.521  15.400   1.496  0.00  0.00    -0.390 OA
HETATM   14  H   UNK N   1      18.560  15.427   1.618  0.00  0.00     0.210 HD
ENDBRANCH   3  13
BRANCH   4  15
HETATM   15  O   UNK N   1      20.194  17.696  -0.129  0.00  0.00    -0.385 OA
HETATM   16  H   UNK N   1      20.449  18.425  -0.717  0.00  0.00     0.210 HD
ENDBRANCH   4  15
BRANCH   5  17
HETATM   17  N   UNK N   1      20.447  20.225   1.208  0.00  0.00    -0.255 N 
HETATM   18  H   UNK N   1      20.176  21.013   1.732  0.00  0.00     0.195 HD
BRANCH  17  19
HETATM   19  O   UNK N   1      20.683  20.352  -0.103  0.00  0.00    -0.288 OA
HETATM   20  H   UNK N   1      19.957  20.262  -0.740  0.00  0.00     0.244 HD
ENDBRANCH  17  19
ENDBRANCH   5  17
TORSDOF 6
ENDMDL
MODEL 2
REMARK VINA RESULT:      -5.4     14.109     15.384
REMARK  6 active torsions:
REMARK  status: ('A' for Active; 'I' for Inactive)
REMARK    1  A    between atoms: C_2  and  C_1 
REMARK    2  A    between atoms: O_10  and  C_1 
REMARK    3  A    between atoms: C_4  and  O_12 
REMARK    4  A    between atoms: C_5  and  O_13 
REMARK    5  A    between atoms: N_9  and  C_6 
REMARK    6  A    between atoms: O_14  and  N_9 
ROOT
HETATM    1  C   UNK N   1      32.754  16.918   8.012  0.00  0.00     0.137 C 
HETATM    2  C   UNK N   1      32.682  15.382   7.851  0.00  0.00     0.174 C 
HETATM    3  C   UNK N   1      32.573  14.778   9.245  0.00  0.00     0.185 C 
HETATM    4  C   UNK N   1      33.848  15.099  10.039  0.00  0.00     0.218 C 
HETATM    5  C   UNK N   1      34.259  16.552   9.902  0.00  0.00     0.129 C 
HETATM    6  N   UNK N   1      33.738  17.330   9.003  0.00  0.00    -0.367 N 
ATOM      7  HN  UNK N   1      34.042  18.304   8.989  1.00  0.00     0.161 HD
HETATM    8  O   UNK N   1      33.824  14.891   7.207  0.00  0.00    -0.391 OA
HETATM    9  H   UNK N   1      34.624  14.565   6.764  0.00  0.00     0.210 HD
ENDROOT
BRANCH   1  10
HETATM   10  C   UNK N   1      33.079  17.595   6.681  0.00  0.00     0.191 C 
BRANCH  10  11
HETATM   11  O   UNK N   1      34.455  17.800   6.551  0.00  0.00    -0.399 OA
HETATM   12  H   UNK N   1      34.867  17.933   5.683  0.00  0.00     0.209 HD
ENDBRANCH  10  11
ENDBRANCH   1  10
BRANCH   3  13
HETATM   13  O   UNK N   1      32.387  13.395   9.176  0.00  0.00    -0.390 OA
HETATM   14  H   UNK N   1      33.101  12.767   9.363  0.00  0.00     0.210 HD
ENDBRANCH   3  13
BRANCH   4  15
HETATM   15  O   UNK N   1      33.634  14.787  11.384  0.00  0.00    -0.385 OA
HETATM   16  H   UNK N   1      34.300  14.664  12.079  0.00  0.00     0.210 HD
ENDBRANCH   4  15
BRANCH   5  17
HETATM   17  N   UNK N   1      35.280  17.053  10.748  0.00  0.00    -0.255 N 
HETATM   18  H   UNK N   1      35.142  17.904  11.223  0.00  0.00     0.195 HD
BRANCH  17  19
HETATM   19  O   UNK N   1      36.428  16.384  10.910  0.00  0.00    -0.288 OA
HETATM   20  H   UNK N   1      36.792  16.249  11.799  0.00  0.00     0.244 HD
ENDBRANCH  17  19
ENDBRANCH   5  17
TORSDOF 6
ENDMDL
MODEL 3
REMARK VINA RESULT:      -5.2     16.270     17.815
REMARK  6 active torsions:
REMARK  status: ('A' for Active; 'I' for Inactive)
REMARK    1  A    between atoms: C_2  and  C_1 
REMARK    2  A    between atoms: O_10  and  C_1 
REMARK    3  A    between atoms: C_4  and  O_12 
REMARK    4  A    between atoms: C_5  and  O_13 
REMARK    5  A    between atoms: N_9  and  C_6 
REMARK    6  A    between atoms: O_14  and  N_9 
ROOT
HETATM    1  C   UNK N   1      36.739  13.721   9.816  0.00  0.00     0.137 C 
HETATM    2  C   UNK N   1      36.375  13.264  11.248  0.00  0.00     0.174 C 
HETATM    3  C   UNK N   1      34.873  13.449  11.422  0.00  0.00     0.185 C 
HETATM    4  C   UNK N   1      34.528  14.941  11.314  0.00  0.00     0.218 C 
HETATM    5  C   UNK N   1      35.215  15.604  10.135  0.00  0.00     0.129 C 
HETATM    6  N   UNK N   1      36.178  15.024   9.486  0.00  0.00    -0.367 N 
ATOM      7  HN  UNK N   1      36.571  15.518   8.685  1.00  0.00     0.161 HD
HETATM    8  O   UNK N   1      37.063  14.020  12.205  0.00  0.00    -0.391 OA
HETATM    9  H   UNK N   1      37.542  14.556  12.856  0.00  0.00     0.210 HD
ENDROOT
BRANCH   1  10
HETATM   10  C   UNK N   1      38.253  13.772   9.624  0.00  0.00     0.191 C 
BRANCH  10  11
HETATM   11  O   UNK N   1      38.759  15.020   9.995  0.00  0.00    -0.399 OA
HETATM   12  H   UNK N   1      39.058  15.195  10.902  0.00  0.00     0.209 HD
ENDBRANCH  10  11
ENDBRANCH   1  10
BRANCH   3  13
HETATM   13  O   UNK N   1      34.450  12.947  12.656  0.00  0.00    -0.390 OA
HETATM   14  H   UNK N   1      34.886  13.185  13.488  0.00  0.00     0.210 HD
ENDBRANCH   3  13
BRANCH   4  15
HETATM   15  O   UNK N   1      33.143  15.079  11.200  0.00  0.00    -0.385 OA
HETATM   16  H   UNK N   1      32.466  14.394  11.315  0.00  0.00     0.210 HD
ENDBRANCH   4  15
BRANCH   5  17
HETATM   17  N   UNK N   1      34.824  16.917   9.770  0.00  0.00    -0.255 N 
HETATM   18  H   UNK N   1      35.486  17.645   9.793  0.00  0.00     0.195 HD
BRANCH  17  19
HETATM   19  O   UNK N   1      33.566  17.180   9.396  0.00  0.00    -0.288 OA
HETATM   20  H   UNK N   1      33.387  17.567   8.524  0.00  0.00     0.244 HD
ENDBRANCH  17  19
ENDBRANCH   5  17
TORSDOF 6
ENDMDL
MODEL 4
REMARK VINA RESULT:      -5.2     15.900     17.781
REMARK  6 active torsions:
REMARK  status: ('A' for Active; 'I' for Inactive)
REMARK    1  A    between atoms: C_2  and  C_1 
REMARK    2  A    between atoms: O_10  and  C_1 
REMARK    3  A    between atoms: C_4  and  O_12 
REMARK    4  A    between atoms: C_5  and  O_13 
REMARK    5  A    between atoms: N_9  and  C_6 
REMARK    6  A    between atoms: O_14  and  N_9 
ROOT
HETATM    1  C   UNK N   1      34.226  14.150   9.623  0.00  0.00     0.137 C 
HETATM    2  C   UNK N   1      35.066  15.417   9.904  0.00  0.00     0.174 C 
HETATM    3  C   UNK N   1      36.358  14.974  10.578  0.00  0.00     0.185 C 
HETATM    4  C   UNK N   1      36.030  14.330  11.933  0.00  0.00     0.218 C 
HETATM    5  C   UNK N   1      34.880  13.347  11.837  0.00  0.00     0.129 C 
HETATM    6  N   UNK N   1      34.115  13.285  10.790  0.00  0.00    -0.367 N 
ATOM      7  HN  UNK N   1      33.380  12.578  10.784  1.00  0.00     0.161 HD
HETATM    8  O   UNK N   1      34.374  16.303  10.738  0.00  0.00    -0.391 OA
HETATM    9  H   UNK N   1      33.884  16.905  11.321  0.00  0.00     0.210 HD
ENDROOT
BRANCH   1  10
HETATM   10  C   UNK N   1      32.823  14.516   9.144  0.00  0.00     0.191 C 
BRANCH  10  11
HETATM   11  O   UNK N   1      32.044  14.990  10.202  0.00  0.00    -0.399 OA
HETATM   12  H   UNK N   1      32.365  15.690  10.793  0.00  0.00     0.209 HD
ENDBRANCH  10  11
ENDBRANCH   1  10
BRANCH   3  13
HETATM   13  O   UNK N   1      37.223  16.056  10.758  0.00  0.00    -0.390 OA
HETATM   14  H   UNK N   1      37.264  16.796  10.133  0.00  0.00     0.210 HD
ENDBRANCH   3  13
BRANCH   4  15
HETATM   15  O   UNK N   1      37.171  13.687  12.417  0.00  0.00    -0.385 OA
HETATM   16  H   UNK N   1      37.283  13.236  13.269  0.00  0.00     0.210 HD
ENDBRANCH   4  15
BRANCH   5  17
HETATM   17  N   UNK N   1      34.606  12.509  12.948  0.00  0.00    -0.255 N 
HETATM   18  H   UNK N   1      34.347  11.572  12.797  0.00  0.00     0.195 HD
BRANCH  17  19
HETATM   19  O   UNK N   1      34.695  12.978  14.199  0.00  0.00    -0.288 OA
HETATM   20  H   UNK N   1      33.948  13.452  14.596  0.00  0.00     0.244 HD
ENDBRANCH  17  19
ENDBRANCH   5  17
TORSDOF 6
ENDMDL
MODEL 5
REMARK VINA RESULT:      -5.1     22.597     23.517
REMARK  6 active torsions:
REMARK  status: ('A' for Active; 'I' for Inactive)
REMARK    1  A    between atoms: C_2  and  C_1 
REMARK    2  A    between atoms: O_10  and  C_1 
REMARK    3  A    between atoms: C_4  and  O_12 
REMARK    4  A    between atoms: C_5  and  O_13 
REMARK    5  A    between atoms: N_9  and  C_6 
REMARK    6  A    between atoms: O_14  and  N_9 
ROOT
HETATM    1  C   UNK N   1      42.989  20.235   3.186  0.00  0.00     0.137 C 
HETATM    2  C   UNK N   1      44.477  20.640   3.302  0.00  0.00     0.174 C 
HETATM    3  C   UNK N   1      44.535  21.968   4.047  0.00  0.00     0.185 C 
HETATM    4  C   UNK N   1      43.828  23.048   3.217  0.00  0.00     0.218 C 
HETATM    5  C   UNK N   1      42.494  22.573   2.673  0.00  0.00     0.129 C 
HETATM    6  N   UNK N   1      42.152  21.320   2.694  0.00  0.00    -0.367 N 
ATOM      7  HN  UNK N   1      41.227  21.079   2.339  1.00  0.00     0.161 HD
HETATM    8  O   UNK N   1      45.059  20.778   2.036  0.00  0.00    -0.391 OA
HETATM    9  H   UNK N   1      45.448  20.874   1.153  0.00  0.00     0.210 HD
ENDROOT
BRANCH   1  10
HETATM   10  C   UNK N   1      42.820  19.026   2.268  0.00  0.00     0.191 C 
BRANCH  10  11
HETATM   11  O   UNK N   1      42.681  19.428   0.937  0.00  0.00    -0.399 OA
HETATM   12  H   UNK N   1      42.224  20.251   0.702  0.00  0.00     0.209 HD
ENDBRANCH  10  11
ENDBRANCH   1  10
BRANCH   3  13
HETATM   13  O   UNK N   1      45.858  22.342   4.294  0.00  0.00    -0.390 OA
HETATM   14  H   UNK N   1      46.395  21.923   4.984  0.00  0.00     0.210 HD
ENDBRANCH   3  13
BRANCH   4  15
HETATM   15  O   UNK N   1      43.644  24.182   4.011  0.00  0.00    -0.385 OA
HETATM   16  H   UNK N   1      43.405  24.217   4.951  0.00  0.00     0.210 HD
ENDBRANCH   4  15
BRANCH   5  17
HETATM   17  N   UNK N   1      41.624  23.521   2.080  0.00  0.00    -0.255 N 
HETATM   18  H   UNK N   1      40.656  23.467   2.254  0.00  0.00     0.195 HD
BRANCH  17  19
HETATM   19  O   UNK N   1      42.100  24.489   1.287  0.00  0.00    -0.288 OA
HETATM   20  H   UNK N   1      42.517  24.264   0.440  0.00  0.00     0.244 HD
ENDBRANCH  17  19
ENDBRANCH   5  17
TORSDOF 6
ENDMDL
MODEL 6
REMARK VINA RESULT:      -5.1     13.452     14.855
REMARK  6 active torsions:
REMARK  status: ('A' for Active; 'I' for Inactive)
REMARK    1  A    between atoms: C_2  and  C_1 
REMARK    2  A    between atoms: O_10  and  C_1 
REMARK    3  A    between atoms: C_4  and  O_12 
REMARK    4  A    between atoms: C_5  and  O_13 
REMARK    5  A    between atoms: N_9  and  C_6 
REMARK    6  A    between atoms: O_14  and  N_9 
ROOT
HETATM    1  C   UNK N   1      34.795  16.075   9.767  0.00  0.00     0.137 C 
HETATM    2  C   UNK N   1      33.995  14.784  10.056  0.00  0.00     0.174 C 
HETATM    3  C   UNK N   1      33.059  14.549   8.877  0.00  0.00     0.185 C 
HETATM    4  C   UNK N   1      32.052  15.704   8.789  0.00  0.00     0.218 C 
HETATM    5  C   UNK N   1      32.718  17.058   8.936  0.00  0.00     0.129 C 
HETATM    6  N   UNK N   1      33.941  17.180   9.355  0.00  0.00    -0.367 N 
ATOM      7  HN  UNK N   1      34.332  18.121   9.399  1.00  0.00     0.161 HD
HETATM    8  O   UNK N   1      33.252  14.907  11.236  0.00  0.00    -0.391 OA
HETATM    9  H   UNK N   1      32.739  15.009  12.053  0.00  0.00     0.210 HD
ENDROOT
BRANCH   1  10
HETATM   10  C   UNK N   1      35.603  16.505  10.991  0.00  0.00     0.191 C 
BRANCH  10  11
HETATM   11  O   UNK N   1      36.937  16.110  10.869  0.00  0.00    -0.399 OA
HETATM   12  H   UNK N   1      37.615  16.716  10.529  0.00  0.00     0.209 HD
ENDBRANCH  10  11
ENDBRANCH   1  10
BRANCH   3  13
HETATM   13  O   UNK N   1      32.385  13.333   9.011  0.00  0.00    -0.390 OA
HETATM   14  H   UNK N   1      32.844  12.508   9.232  0.00  0.00     0.210 HD
ENDBRANCH   3  13
BRANCH   4  15
HETATM   15  O   UNK N   1      31.383  15.630   7.566  0.00  0.00    -0.385 OA
HETATM   16  H   UNK N   1      31.460  16.231   6.808  0.00  0.00     0.210 HD
ENDBRANCH   4  15
BRANCH   5  17
HETATM   17  N   UNK N   1      31.960  18.223   8.655  0.00  0.00    -0.255 N 
HETATM   18  H   UNK N   1      32.413  19.024   8.303  0.00  0.00     0.195 HD
BRANCH  17  19
HETATM   19  O   UNK N   1      30.638  18.249   8.861  0.00  0.00    -0.288 OA
HETATM   20  H   UNK N   1      30.074  17.549   8.494  0.00  0.00     0.244 HD
ENDBRANCH  17  19
ENDBRANCH   5  17
TORSDOF 6
ENDMDL
MODEL 7
REMARK VINA RESULT:      -5.0     16.173     17.727
REMARK  6 active torsions:
REMARK  status: ('A' for Active; 'I' for Inactive)
REMARK    1  A    between atoms: C_2  and  C_1 
REMARK    2  A    between atoms: O_10  and  C_1 
REMARK    3  A    between atoms: C_4  and  O_12 
REMARK    4  A    between atoms: C_5  and  O_13 
REMARK    5  A    between atoms: N_9  and  C_6 
REMARK    6  A    between atoms: O_14  and  N_9 
ROOT
HETATM    1  C   UNK N   1      34.520  13.578   9.214  0.00  0.00     0.137 C 
HETATM    2  C   UNK N   1      33.900  14.890   9.749  0.00  0.00     0.174 C 
HETATM    3  C   UNK N   1      35.022  15.913   9.873  0.00  0.00     0.185 C 
HETATM    4  C   UNK N   1      36.040  15.427  10.915  0.00  0.00     0.218 C 
HETATM    5  C   UNK N   1      36.400  13.966  10.728  0.00  0.00     0.129 C 
HETATM    6  N   UNK N   1      35.712  13.184   9.952  0.00  0.00    -0.367 N 
ATOM      7  HN  UNK N   1      36.031  12.220   9.852  1.00  0.00     0.161 HD
HETATM    8  O   UNK N   1      33.299  14.688  10.998  0.00  0.00    -0.391 OA
HETATM    9  H   UNK N   1      32.892  14.535  11.864  0.00  0.00     0.210 HD
ENDROOT
BRANCH   1  10
HETATM   10  C   UNK N   1      33.509  12.434   9.261  0.00  0.00     0.191 C 
BRANCH  10  11
HETATM   11  O   UNK N   1      33.630  11.712  10.451  0.00  0.00    -0.399 OA
HETATM   12  H   UNK N   1      32.957  11.069  10.723  0.00  0.00     0.209 HD
ENDBRANCH  10  11
ENDBRANCH   1  10
BRANCH   3  13
HETATM   13  O   UNK N   1      34.519  17.163  10.241  0.00  0.00    -0.390 OA
HETATM   14  H   UNK N   1      33.851  17.267  10.936  0.00  0.00     0.210 HD
ENDBRANCH   3  13
BRANCH   4  15
HETATM   15  O   UNK N   1      37.188  16.217  10.829  0.00  0.00    -0.385 OA
HETATM   16  H   UNK N   1      37.241  17.181  10.728  0.00  0.00     0.210 HD
ENDBRANCH   4  15
BRANCH   5  17
HETATM   17  N   UNK N   1      37.487  13.433  11.465  0.00  0.00    -0.255 N 
HETATM   18  H   UNK N   1      37.326  13.047  12.356  0.00  0.00     0.195 HD
BRANCH  17  19
HETATM   19  O   UNK N   1      38.729  13.448  10.965  0.00  0.00    -0.288 OA
HETATM   20  H   UNK N   1      39.078  14.254  10.553  0.00  0.00     0.244 HD
ENDBRANCH  17  19
ENDBRANCH   5  17
TORSDOF 6
ENDMDL
MODEL 8
REMARK VINA RESULT:      -5.0      1.993      3.125
REMARK  6 active torsions:
REMARK  status: ('A' for Active; 'I' for Inactive)
REMARK    1  A    between atoms: C_2  and  C_1 
REMARK    2  A    between atoms: O_10  and  C_1 
REMARK    3  A    between atoms: C_4  and  O_12 
REMARK    4  A    between atoms: C_5  and  O_13 
REMARK    5  A    between atoms: N_9  and  C_6 
REMARK    6  A    between atoms: O_14  and  N_9 
ROOT
HETATM    1  C   UNK N   1      20.600  18.302   4.255  0.00  0.00     0.137 C 
HETATM    2  C   UNK N   1      21.670  19.398   4.039  0.00  0.00     0.174 C 
HETATM    3  C   UNK N   1      21.129  20.370   2.998  0.00  0.00     0.185 C 
HETATM    4  C   UNK N   1      20.947  19.635   1.662  0.00  0.00     0.218 C 
HETATM    5  C   UNK N   1      20.263  18.293   1.834  0.00  0.00     0.129 C 
HETATM    6  N   UNK N   1      20.112  17.744   3.002  0.00  0.00    -0.367 N 
ATOM      7  HN  UNK N   1      19.615  16.854   3.044  1.00  0.00     0.161 HD
HETATM    8  O   UNK N   1      22.874  18.841   3.591  0.00  0.00    -0.391 OA
HETATM    9  H   UNK N   1      23.701  18.442   3.277  0.00  0.00     0.210 HD
ENDROOT
BRANCH   1  10
HETATM   10  C   UNK N   1      21.143  17.168   5.123  0.00  0.00     0.191 C 
BRANCH  10  11
HETATM   11  O   UNK N   1      21.983  17.666   6.122  0.00  0.00    -0.399 OA
HETATM   12  H   UNK N   1      22.119  18.620   6.240  0.00  0.00     0.209 HD
ENDBRANCH  10  11
ENDBRANCH   1  10
BRANCH   3  13
HETATM   13  O   UNK N   1      21.993  21.455   2.834  0.00  0.00    -0.390 OA
HETATM   14  H   UNK N   1      22.426  21.649   1.988  0.00  0.00     0.210 HD
ENDBRANCH   3  13
BRANCH   4  15
HETATM   15  O   UNK N   1      20.205  20.443   0.798  0.00  0.00    -0.385 OA
HETATM   16  H   UNK N   1      19.554  20.164   0.135  0.00  0.00     0.210 HD
ENDBRANCH   4  15
BRANCH   5  17
HETATM   17  N   UNK N   1      19.824  17.599   0.679  0.00  0.00    -0.255 N 
HETATM   18  H   UNK N   1      19.123  16.913   0.761  0.00  0.00     0.195 HD
BRANCH  17  19
HETATM   19  O   UNK N   1      20.351  17.865  -0.523  0.00  0.00    -0.288 OA
HETATM   20  H   UNK N   1      19.802  17.799  -1.321  0.00  0.00     0.244 HD
ENDBRANCH  17  19
ENDBRANCH   5  17
TORSDOF 6
ENDMDL
MODEL 9
REMARK VINA RESULT:      -4.9      2.576      4.582
REMARK  6 active torsions:
REMARK  status: ('A' for Active; 'I' for Inactive)
REMARK    1  A    between atoms: C_2  and  C_1 
REMARK    2  A    between atoms: O_10  and  C_1 
REMARK    3  A    between atoms: C_4  and  O_12 
REMARK    4  A    between atoms: C_5  and  O_13 
REMARK    5  A    between atoms: N_9  and  C_6 
REMARK    6  A    between atoms: O_14  and  N_9 
ROOT
HETATM    1  C   UNK N   1      20.711  18.507   2.526  0.00  0.00     0.137 C 
HETATM    2  C   UNK N   1      20.847  20.016   2.837  0.00  0.00     0.174 C 
HETATM    3  C   UNK N   1      22.315  20.389   2.677  0.00  0.00     0.185 C 
HETATM    4  C   UNK N   1      23.150  19.628   3.717  0.00  0.00     0.218 C 
HETATM    5  C   UNK N   1      22.772  18.161   3.794  0.00  0.00     0.129 C 
HETATM    6  N   UNK N   1      21.692  17.701   3.238  0.00  0.00    -0.367 N 
ATOM      7  HN  UNK N   1      21.519  16.698   3.306  1.00  0.00     0.161 HD
HETATM    8  O   UNK N   1      20.423  20.299   4.141  0.00  0.00    -0.391 OA
HETATM    9  H   UNK N   1      20.131  20.480   5.049  0.00  0.00     0.210 HD
ENDROOT
BRANCH   1  10
HETATM   10  C   UNK N   1      19.312  18.000   2.869  0.00  0.00     0.191 C 
BRANCH  10  11
HETATM   11  O   UNK N   1      18.336  18.893   2.422  0.00  0.00    -0.399 OA
HETATM   12  H   UNK N   1      17.518  19.043   2.923  0.00  0.00     0.209 HD
ENDBRANCH  10  11
ENDBRANCH   1  10
BRANCH   3  13
HETATM   13  O   UNK N   1      22.500  21.765   2.828  0.00  0.00    -0.390 OA
HETATM   14  H   UNK N   1      23.190  22.135   3.399  0.00  0.00     0.210 HD
ENDBRANCH   3  13
BRANCH   4  15
HETATM   15  O   UNK N   1      24.503  19.757   3.395  0.00  0.00    -0.385 OA
HETATM   16  H   UNK N   1      24.925  19.612   2.534  0.00  0.00     0.210 HD
ENDBRANCH   4  15
BRANCH   5  17
HETATM   17  N   UNK N   1      23.598  17.284   4.541  0.00  0.00    -0.255 N 
HETATM   18  H   UNK N   1      23.558  16.315   4.369  0.00  0.00     0.195 HD
BRANCH  17  19
HETATM   19  O   UNK N   1      24.431  17.755   5.476  0.00  0.00    -0.288 OA
HETATM   20  H   UNK N   1      24.089  18.291   6.209  0.00  0.00     0.244 HD
ENDBRANCH  17  19
ENDBRANCH   5  17
TORSDOF 6
ENDMDL
