MODEL 1
REMARK VINA RESULT:      -4.1      0.000      0.000
REMARK  4 active torsions:
REMARK  status: ('A' for Active; 'I' for Inactive)
REMARK    1  A    between atoms: O_1  and  C_2 
REMARK    2  A    between atoms: C_2  and  C_3 
REMARK    3  A    between atoms: C_3  and  C_5 
REMARK    4  A    between atoms: C_5  and  O_6 
ROOT
HETATM    1  C   UNK N   1      20.449  20.067   2.525  0.00  0.00     0.244 C 
HETATM    2  O   UNK N   1      20.948  20.700   3.442  0.00  0.00    -0.284 OA
ENDROOT
BRANCH   1   3
HETATM    3  C   UNK N   1      19.683  18.814   2.872  0.00  0.00     0.254 C 
BRANCH   3   4
HETATM    4  O   UNK N   1      18.405  18.767   2.314  0.00  0.00    -0.393 OA
HETATM    5  H   UNK N   1      17.680  19.268   2.721  0.00  0.00     0.210 HD
ENDBRANCH   3   4
ENDBRANCH   1   3
BRANCH   1   6
HETATM    6  C   UNK N   1      20.632  20.575   1.140  0.00  0.00     0.215 C 
HETATM    7  O   UNK N   1      20.850  21.757   0.922  0.00  0.00    -0.644 OA
BRANCH   6   8
HETATM    8  O   UNK N   1      20.557  19.717   0.104  0.00  0.00    -0.771 OA
HETATM    9  H   UNK N   1      21.249  19.103  -0.047  0.00  0.00     0.167 HD
ENDBRANCH   6   8
ENDBRANCH   1   6
TORSDOF 4
ENDMDL
MODEL 2
REMARK VINA RESULT:      -4.1      1.027      2.302
REMARK  4 active torsions:
REMARK  status: ('A' for Active; 'I' for Inactive)
REMARK    1  A    between atoms: O_1  and  C_2 
REMARK    2  A    between atoms: C_2  and  C_3 
REMARK    3  A    between atoms: C_3  and  C_5 
REMARK    4  A    between atoms: C_5  and  O_6 
ROOT
HETATM    1  C   UNK N   1      20.747  19.826   1.653  0.00  0.00     0.244 C 
HETATM    2  O   UNK N   1      21.034  20.226   0.536  0.00  0.00    -0.284 OA
ENDROOT
BRANCH   1   3
HETATM    3  C   UNK N   1      20.190  18.429   1.776  0.00  0.00     0.254 C 
BRANCH   3   4
HETATM    4  O   UNK N   1      18.885  18.388   2.270  0.00  0.00    -0.393 OA
HETATM    5  H   UNK N   1      18.325  17.616   2.096  0.00  0.00     0.210 HD
ENDBRANCH   3   4
ENDBRANCH   1   3
BRANCH   1   6
HETATM    6  C   UNK N   1      20.967  20.739   2.805  0.00  0.00     0.215 C 
HETATM    7  O   UNK N   1      20.312  20.633   3.831  0.00  0.00    -0.644 OA
BRANCH   6   8
HETATM    8  O   UNK N   1      21.904  21.703   2.719  0.00  0.00    -0.771 OA
HETATM    9  H   UNK N   1      22.225  21.970   1.880  0.00  0.00     0.167 HD
ENDBRANCH   6   8
ENDBRANCH   1   6
TORSDOF 4
ENDMDL
MODEL 3
REMARK VINA RESULT:      -4.0      0.862      2.884
REMARK  4 active torsions:
REMARK  status: ('A' for Active; 'I' for Inactive)
REMARK    1  A    between atoms: O_1  and  C_2 
REMARK    2  A    between atoms: C_2  and  C_3 
REMARK    3  A    between atoms: C_3  and  C_5 
REMARK    4  A    between atoms: C_5  and  O_6 
ROOT
HETATM    1  C   UNK N   1      20.264  19.948   2.707  0.00  0.00     0.244 C 
HETATM    2  O   UNK N   1      20.361  20.642   3.707  0.00  0.00    -0.284 OA
ENDROOT
BRANCH   1   3
HETATM    3  C   UNK N   1      21.026  20.379   1.477  0.00  0.00     0.254 C 
BRANCH   3   4
HETATM    4  O   UNK N   1      20.530  19.833   0.292  0.00  0.00    -0.393 OA
HETATM    5  H   UNK N   1      21.143  19.527  -0.394  0.00  0.00     0.210 HD
ENDBRANCH   3   4
ENDBRANCH   1   3
BRANCH   1   6
HETATM    6  C   UNK N   1      19.406  18.736   2.773  0.00  0.00     0.215 C 
HETATM    7  O   UNK N   1      19.793  17.716   3.321  0.00  0.00    -0.644 OA
BRANCH   6   8
HETATM    8  O   UNK N   1      18.179  18.760   2.218  0.00  0.00    -0.771 OA
HETATM    9  H   UNK N   1      17.776  19.581   2.008  0.00  0.00     0.167 HD
ENDBRANCH   6   8
ENDBRANCH   1   6
TORSDOF 4
ENDMDL
MODEL 4
REMARK VINA RESULT:      -3.9     15.206     16.116
REMARK  4 active torsions:
REMARK  status: ('A' for Active; 'I' for Inactive)
REMARK    1  A    between atoms: O_1  and  C_2 
REMARK    2  A    between atoms: C_2  and  C_3 
REMARK    3  A    between atoms: C_3  and  C_5 
REMARK    4  A    between atoms: C_5  and  O_6 
ROOT
HETATM    1  C   UNK N   1      33.930  17.205   8.853  0.00  0.00     0.244 C 
HETATM    2  O   UNK N   1      32.749  16.916   8.741  0.00  0.00    -0.284 OA
ENDROOT
BRANCH   1   3
HETATM    3  C   UNK N   1      34.730  16.490   9.915  0.00  0.00     0.254 C 
BRANCH   3   4
HETATM    4  O   UNK N   1      35.705  17.289  10.513  0.00  0.00    -0.393 OA
HETATM    5  H   UNK N   1      35.917  18.158  10.138  0.00  0.00     0.210 HD
ENDBRANCH   3   4
ENDBRANCH   1   3
BRANCH   1   6
HETATM    6  C   UNK N   1      34.493  18.233   7.938  0.00  0.00     0.215 C 
HETATM    7  O   UNK N   1      34.363  18.142   6.727  0.00  0.00    -0.644 OA
BRANCH   6   8
HETATM    8  O   UNK N   1      35.158  19.285   8.452  0.00  0.00    -0.771 OA
HETATM    9  H   UNK N   1      35.708  19.171   9.203  0.00  0.00     0.167 HD
ENDBRANCH   6   8
ENDBRANCH   1   6
TORSDOF 4
ENDMDL
MODEL 5
REMARK VINA RESULT:      -3.9     14.401     15.316
REMARK  4 active torsions:
REMARK  status: ('A' for Active; 'I' for Inactive)
REMARK    1  A    between atoms: O_1  and  C_2 
REMARK    2  A    between atoms: C_2  and  C_3 
REMARK    3  A    between atoms: C_3  and  C_5 
REMARK    4  A    between atoms: C_5  and  O_6 
ROOT
HETATM    1  C   UNK N   1      33.800  17.899   7.424  0.00  0.00     0.244 C 
HETATM    2  O   UNK N   1      34.235  17.936   6.283  0.00  0.00    -0.284 OA
ENDROOT
BRANCH   1   3
HETATM    3  C   UNK N   1      32.367  17.466   7.615  0.00  0.00     0.254 C 
BRANCH   3   4
HETATM    4  O   UNK N   1      31.895  17.651   8.915  0.00  0.00    -0.393 OA
HETATM    5  H   UNK N   1      30.981  17.415   9.138  0.00  0.00     0.210 HD
ENDBRANCH   3   4
ENDBRANCH   1   3
BRANCH   1   6
HETATM    6  C   UNK N   1      34.710  18.282   8.535  0.00  0.00     0.215 C 
HETATM    7  O   UNK N   1      35.366  19.311   8.491  0.00  0.00    -0.644 OA
BRANCH   6   8
HETATM    8  O   UNK N   1      34.815  17.480   9.613  0.00  0.00    -0.771 OA
HETATM    9  H   UNK N   1      35.113  17.830  10.430  0.00  0.00     0.167 HD
ENDBRANCH   6   8
ENDBRANCH   1   6
TORSDOF 4
ENDMDL
MODEL 6
REMARK VINA RESULT:      -3.7     15.749     16.819
REMARK  4 active torsions:
REMARK  status: ('A' for Active; 'I' for Inactive)
REMARK    1  A    between atoms: O_1  and  C_2 
REMARK    2  A    between atoms: C_2  and  C_3 
REMARK    3  A    between atoms: C_3  and  C_5 
REMARK    4  A    between atoms: C_5  and  O_6 
ROOT
HETATM    1  C   UNK N   1      34.334  17.030   8.794  0.00  0.00     0.244 C 
HETATM    2  O   UNK N   1      33.802  16.095   8.216  0.00  0.00    -0.284 OA
ENDROOT
BRANCH   1   3
HETATM    3  C   UNK N   1      34.343  18.370   8.099  0.00  0.00     0.254 C 
BRANCH   3   4
HETATM    4  O   UNK N   1      35.340  19.231   8.560  0.00  0.00    -0.393 OA
HETATM    5  H   UNK N   1      36.071  19.483   7.974  0.00  0.00     0.210 HD
ENDBRANCH   3   4
ENDBRANCH   1   3
BRANCH   1   6
HETATM    6  C   UNK N   1      34.931  16.781  10.132  0.00  0.00     0.215 C 
HETATM    7  O   UNK N   1      35.930  17.380  10.501  0.00  0.00    -0.644 OA
BRANCH   6   8
HETATM    8  O   UNK N   1      34.362  15.879  10.955  0.00  0.00    -0.771 OA
HETATM    9  H   UNK N   1      34.317  14.978  10.703  0.00  0.00     0.167 HD
ENDBRANCH   6   8
ENDBRANCH   1   6
TORSDOF 4
ENDMDL
MODEL 7
REMARK VINA RESULT:      -3.6     11.743     12.849
REMARK  4 active torsions:
REMARK  status: ('A' for Active; 'I' for Inactive)
REMARK    1  A    between atoms: O_1  and  C_2 
REMARK    2  A    between atoms: C_2  and  C_3 
REMARK    3  A    between atoms: C_3  and  C_5 
REMARK    4  A    between atoms: C_5  and  O_6 
ROOT
HETATM    1  C   UNK N   1      23.407  11.908  11.047  0.00  0.00     0.244 C 
HETATM    2  O   UNK N   1      22.848  11.173  10.249  0.00  0.00    -0.284 OA
ENDROOT
BRANCH   1   3
HETATM    3  C   UNK N   1      22.885  11.933  12.463  0.00  0.00     0.254 C 
BRANCH   3   4
HETATM    4  O   UNK N   1      23.819  12.384  13.396  0.00  0.00    -0.393 OA
HETATM    5  H   UNK N   1      23.521  12.818  14.211  0.00  0.00     0.210 HD
ENDBRANCH   3   4
ENDBRANCH   1   3
BRANCH   1   6
HETATM    6  C   UNK N   1      24.556  12.722  10.569  0.00  0.00     0.215 C 
HETATM    7  O   UNK N   1      24.600  13.142   9.424  0.00  0.00    -0.644 OA
BRANCH   6   8
HETATM    8  O   UNK N   1      25.568  13.001  11.413  0.00  0.00    -0.771 OA
HETATM    9  H   UNK N   1      25.963  12.314  11.915  0.00  0.00     0.167 HD
ENDBRANCH   6   8
ENDBRANCH   1   6
TORSDOF 4
ENDMDL
MODEL 8
REMARK VINA RESULT:      -3.6     11.473     12.464
REMARK  4 active torsions:
REMARK  status: ('A' for Active; 'I' for Inactive)
REMARK    1  A    between atoms: O_1  and  C_2 
REMARK    2  A    between atoms: C_2  and  C_3 
REMARK    3  A    between atoms: C_3  and  C_5 
REMARK    4  A    between atoms: C_5  and  O_6 
ROOT
HETATM    1  C   UNK N   1      31.078  22.133  -3.405  0.00  0.00     0.244 C 
HETATM    2  O   UNK N   1      30.339  21.827  -4.328  0.00  0.00    -0.284 OA
ENDROOT
BRANCH   1   3
HETATM    3  C   UNK N   1      32.382  21.386  -3.273  0.00  0.00     0.254 C 
BRANCH   3   4
HETATM    4  O   UNK N   1      32.772  21.172  -1.950  0.00  0.00    -0.393 OA
HETATM    5  H   UNK N   1      33.710  21.052  -1.735  0.00  0.00     0.210 HD
ENDBRANCH   3   4
ENDBRANCH   1   3
BRANCH   1   6
HETATM    6  C   UNK N   1      30.640  23.215  -2.484  0.00  0.00     0.215 C 
HETATM    7  O   UNK N   1      30.335  22.975  -1.326  0.00  0.00    -0.644 OA
BRANCH   6   8
HETATM    8  O   UNK N   1      30.579  24.484  -2.932  0.00  0.00    -0.771 OA
HETATM    9  H   UNK N   1      29.783  24.810  -3.306  0.00  0.00     0.167 HD
ENDBRANCH   6   8
ENDBRANCH   1   6
TORSDOF 4
ENDMDL
MODEL 9
REMARK VINA RESULT:      -3.4     23.220     23.948
REMARK  4 active torsions:
REMARK  status: ('A' for Active; 'I' for Inactive)
REMARK    1  A    between atoms: O_1  and  C_2 
REMARK    2  A    between atoms: C_2  and  C_3 
REMARK    3  A    between atoms: C_3  and  C_5 
REMARK    4  A    between atoms: C_5  and  O_6 
ROOT
HETATM    1  C   UNK N   1      43.744  21.723   3.139  0.00  0.00     0.244 C 
HETATM    2  O   UNK N   1      43.109  20.887   2.515  0.00  0.00    -0.284 OA
ENDROOT
BRANCH   1   3
HETATM    3  C   UNK N   1      45.005  21.270   3.835  0.00  0.00     0.254 C 
BRANCH   3   4
HETATM    4  O   UNK N   1      45.844  22.321   4.211  0.00  0.00    -0.393 OA
HETATM    5  H   UNK N   1      46.340  22.809   3.536  0.00  0.00     0.210 HD
ENDBRANCH   3   4
ENDBRANCH   1   3
BRANCH   1   6
HETATM    6  C   UNK N   1      43.232  23.118   3.167  0.00  0.00     0.215 C 
HETATM    7  O   UNK N   1      42.548  23.559   2.257  0.00  0.00    -0.644 OA
BRANCH   6   8
HETATM    8  O   UNK N   1      43.527  23.912   4.215  0.00  0.00    -0.771 OA
HETATM    9  H   UNK N   1      44.420  24.042   4.467  0.00  0.00     0.167 HD
ENDBRANCH   6   8
ENDBRANCH   1   6
TORSDOF 4
ENDMDL
