MODEL 1
REMARK VINA RESULT:      -5.8      0.000      0.000
REMARK  5 active torsions:
REMARK  status: ('A' for Active; 'I' for Inactive)
REMARK    1  A    between atoms: C_1  and  N_2 
REMARK    2  A    between atoms: C_7  and  C_13 
REMARK    3  A    between atoms: C_8  and  O_14 
REMARK    4  A    between atoms: C_13  and  O_16 
REMARK    5  A    between atoms: C_15  and  N_17 
ROOT
HETATM    1  N   UNK N   1      26.142  25.191  -5.047  0.00  0.00    -0.282 N 
HETATM    2  C   UNK N   1      26.446  25.433  -3.710  0.00  0.00     0.330 A 
HETATM    3  C   UNK N   1      25.700  26.225  -5.818  0.00  0.00     0.102 A 
HETATM    4  N   UNK N   1      26.306  26.696  -3.194  0.00  0.00    -0.295 N 
ATOM      5  HN  UNK N   1      26.530  26.863  -2.213  1.00  0.00     0.172 HD
HETATM    6  O   UNK N   1      26.817  24.537  -2.974  0.00  0.00    -0.246 OA
HETATM    7  C   UNK N   1      25.565  27.508  -5.297  0.00  0.00     0.065 A 
HETATM    8  C   UNK N   1      25.876  27.725  -3.963  0.00  0.00     0.103 A 
ENDROOT
BRANCH   1   9
HETATM    9  C   UNK N   1      26.214  23.868  -5.708  0.00  0.00     0.235 C 
HETATM   10  O   UNK N   1      25.256  23.752  -6.736  0.00  0.00    -0.356 OA
HETATM   11  C   UNK N   1      25.757  22.774  -7.623  0.00  0.00     0.176 C 
HETATM   12  C   UNK N   1      27.108  22.312  -7.121  0.00  0.00     0.153 C 
HETATM   13  C   UNK N   1      27.550  23.468  -6.296  0.00  0.00     0.088 C 
BRANCH  11  14
HETATM   14  C   UNK N   1      24.795  21.596  -7.706  0.00  0.00     0.198 C 
BRANCH  14  15
HETATM   15  O   UNK N   1      23.517  22.036  -8.056  0.00  0.00    -0.398 OA
HETATM   16  H   UNK N   1      23.115  21.770  -8.898  0.00  0.00     0.209 HD
ENDBRANCH  14  15
ENDBRANCH  11  14
BRANCH  12  17
HETATM   17  O   UNK N   1      27.980  22.089  -8.186  0.00  0.00    -0.393 OA
HETATM   18  H   UNK N   1      28.218  21.248  -8.607  0.00  0.00     0.210 HD
ENDBRANCH  12  17
ENDBRANCH   1   9
BRANCH   8  19
HETATM   19  N   UNK N   1      25.733  29.010  -3.405  0.00  0.00    -0.385 N 
HETATM   20  H   UNK N   1      24.838  29.396  -3.260  0.00  0.00     0.157 HD
HETATM   21  H   UNK N   1      26.532  29.528  -3.159  0.00  0.00     0.157 HD
ENDBRANCH   8  19
TORSDOF 5
ENDMDL
MODEL 2
REMARK VINA RESULT:      -5.6     24.646     26.162
REMARK  5 active torsions:
REMARK  status: ('A' for Active; 'I' for Inactive)
REMARK    1  A    between atoms: C_1  and  N_2 
REMARK    2  A    between atoms: C_7  and  C_13 
REMARK    3  A    between atoms: C_8  and  O_14 
REMARK    4  A    between atoms: C_13  and  O_16 
REMARK    5  A    between atoms: C_15  and  N_17 
ROOT
HETATM    1  N   UNK N   1      35.535  12.465  16.183  0.00  0.00    -0.282 N 
HETATM    2  C   UNK N   1      35.413  11.379  17.047  0.00  0.00     0.330 A 
HETATM    3  C   UNK N   1      35.472  13.726  16.699  0.00  0.00     0.102 A 
HETATM    4  N   UNK N   1      35.240  11.590  18.391  0.00  0.00    -0.295 N 
ATOM      5  HN  UNK N   1      35.150  10.789  19.016  1.00  0.00     0.172 HD
HETATM    6  O   UNK N   1      35.434  10.235  16.631  0.00  0.00    -0.246 OA
HETATM    7  C   UNK N   1      35.304  13.940  18.063  0.00  0.00     0.065 A 
HETATM    8  C   UNK N   1      35.187  12.843  18.904  0.00  0.00     0.103 A 
ENDROOT
BRANCH   1   9
HETATM    9  C   UNK N   1      35.685  12.366  14.713  0.00  0.00     0.235 C 
HETATM   10  O   UNK N   1      35.109  13.477  14.061  0.00  0.00    -0.356 OA
HETATM   11  C   UNK N   1      35.770  13.580  12.818  0.00  0.00     0.176 C 
HETATM   12  C   UNK N   1      36.829  12.502  12.741  0.00  0.00     0.153 C 
HETATM   13  C   UNK N   1      37.092  12.215  14.177  0.00  0.00     0.088 C 
BRANCH  11  14
HETATM   14  C   UNK N   1      34.774  13.424  11.676  0.00  0.00     0.198 C 
BRANCH  14  15
HETATM   15  O   UNK N   1      33.911  14.520  11.631  0.00  0.00    -0.398 OA
HETATM   16  H   UNK N   1      34.142  15.312  11.121  0.00  0.00     0.209 HD
ENDBRANCH  14  15
ENDBRANCH  11  14
BRANCH  12  17
HETATM   17  O   UNK N   1      37.974  12.977  12.104  0.00  0.00    -0.393 OA
HETATM   18  H   UNK N   1      38.263  12.828  11.189  0.00  0.00     0.210 HD
ENDBRANCH  12  17
ENDBRANCH   1   9
BRANCH   8  19
HETATM   19  N   UNK N   1      35.000  13.032  20.287  0.00  0.00    -0.385 N 
HETATM   20  H   UNK N   1      35.094  12.277  20.912  0.00  0.00     0.157 HD
HETATM   21  H   UNK N   1      34.773  13.925  20.632  0.00  0.00     0.157 HD
ENDBRANCH   8  19
TORSDOF 5
ENDMDL
MODEL 3
REMARK VINA RESULT:      -5.6     18.284     19.829
REMARK  5 active torsions:
REMARK  status: ('A' for Active; 'I' for Inactive)
REMARK    1  A    between atoms: C_1  and  N_2 
REMARK    2  A    between atoms: C_7  and  C_13 
REMARK    3  A    between atoms: C_8  and  O_14 
REMARK    4  A    between atoms: C_13  and  O_16 
REMARK    5  A    between atoms: C_15  and  N_17 
ROOT
HETATM    1  N   UNK N   1      34.479  15.480  10.227  0.00  0.00    -0.282 N 
HETATM    2  C   UNK N   1      35.419  16.333  10.803  0.00  0.00     0.330 A 
HETATM    3  C   UNK N   1      34.321  14.229  10.748  0.00  0.00     0.102 A 
HETATM    4  N   UNK N   1      36.159  15.909  11.878  0.00  0.00    -0.295 N 
ATOM      5  HN  UNK N   1      36.846  16.540  12.292  1.00  0.00     0.172 HD
HETATM    6  O   UNK N   1      35.617  17.448  10.358  0.00  0.00    -0.246 OA
HETATM    7  C   UNK N   1      35.067  13.803  11.842  0.00  0.00     0.065 A 
HETATM    8  C   UNK N   1      35.995  14.670  12.399  0.00  0.00     0.103 A 
ENDROOT
BRANCH   1   9
HETATM    9  C   UNK N   1      33.651  15.806   9.045  0.00  0.00     0.235 C 
HETATM   10  O   UNK N   1      34.428  15.854   7.869  0.00  0.00    -0.356 OA
HETATM   11  C   UNK N   1      33.535  15.601   6.805  0.00  0.00     0.176 C 
HETATM   12  C   UNK N   1      32.159  15.344   7.378  0.00  0.00     0.153 C 
HETATM   13  C   UNK N   1      32.472  14.900   8.763  0.00  0.00     0.088 C 
BRANCH  11  14
HETATM   14  C   UNK N   1      33.497  16.791   5.855  0.00  0.00     0.198 C 
BRANCH  14  15
HETATM   15  O   UNK N   1      34.366  17.791   6.293  0.00  0.00    -0.398 OA
HETATM   16  H   UNK N   1      35.124  17.576   6.858  0.00  0.00     0.209 HD
ENDBRANCH  14  15
ENDBRANCH  11  14
BRANCH  12  17
HETATM   17  O   UNK N   1      31.504  14.342   6.663  0.00  0.00    -0.393 OA
HETATM   18  H   UNK N   1      31.786  13.899   5.847  0.00  0.00     0.210 HD
ENDBRANCH  12  17
ENDBRANCH   1   9
BRANCH   8  19
HETATM   19  N   UNK N   1      36.774  14.258  13.498  0.00  0.00    -0.385 N 
HETATM   20  H   UNK N   1      37.535  14.803  13.804  0.00  0.00     0.157 HD
HETATM   21  H   UNK N   1      36.558  13.418  13.963  0.00  0.00     0.157 HD
ENDBRANCH   8  19
TORSDOF 5
ENDMDL
MODEL 4
REMARK VINA RESULT:      -5.5     16.777     18.519
REMARK  5 active torsions:
REMARK  status: ('A' for Active; 'I' for Inactive)
REMARK    1  A    between atoms: C_1  and  N_2 
REMARK    2  A    between atoms: C_7  and  C_13 
REMARK    3  A    between atoms: C_8  and  O_14 
REMARK    4  A    between atoms: C_13  and  O_16 
REMARK    5  A    between atoms: C_15  and  N_17 
ROOT
HETATM    1  N   UNK N   1      33.151  16.614   7.699  0.00  0.00    -0.282 N 
HETATM    2  C   UNK N   1      31.783  16.749   7.474  0.00  0.00     0.330 A 
HETATM    3  C   UNK N   1      34.015  16.881   6.678  0.00  0.00     0.102 A 
HETATM    4  N   UNK N   1      31.329  17.151   6.243  0.00  0.00    -0.295 N 
ATOM      5  HN  UNK N   1      30.325  17.245   6.087  1.00  0.00     0.172 HD
HETATM    6  O   UNK N   1      30.971  16.496   8.344  0.00  0.00    -0.246 OA
HETATM    7  C   UNK N   1      33.555  17.295   5.433  0.00  0.00     0.065 A 
HETATM    8  C   UNK N   1      32.188  17.424   5.232  0.00  0.00     0.103 A 
ENDROOT
BRANCH   1   9
HETATM    9  C   UNK N   1      33.760  16.152   8.967  0.00  0.00     0.235 C 
HETATM   10  O   UNK N   1      34.237  14.829   8.858  0.00  0.00    -0.356 OA
HETATM   11  C   UNK N   1      35.245  14.699   9.837  0.00  0.00     0.176 C 
HETATM   12  C   UNK N   1      35.411  16.029  10.540  0.00  0.00     0.153 C 
HETATM   13  C   UNK N   1      34.889  16.988   9.529  0.00  0.00     0.088 C 
BRANCH  11  14
HETATM   14  C   UNK N   1      34.871  13.616  10.839  0.00  0.00     0.198 C 
BRANCH  14  15
HETATM   15  O   UNK N   1      34.137  14.161  11.893  0.00  0.00    -0.398 OA
HETATM   16  H   UNK N   1      33.224  13.877  12.060  0.00  0.00     0.209 HD
ENDBRANCH  14  15
ENDBRANCH  11  14
BRANCH  12  17
HETATM   17  O   UNK N   1      36.754  16.275  10.822  0.00  0.00    -0.393 OA
HETATM   18  H   UNK N   1      37.382  15.717  11.308  0.00  0.00     0.210 HD
ENDBRANCH  12  17
ENDBRANCH   1   9
BRANCH   8  19
HETATM   19  N   UNK N   1      31.695  17.826   3.976  0.00  0.00    -0.385 N 
HETATM   20  H   UNK N   1      31.221  18.684   3.876  0.00  0.00     0.157 HD
HETATM   21  H   UNK N   1      31.823  17.246   3.192  0.00  0.00     0.157 HD
ENDBRANCH   8  19
TORSDOF 5
ENDMDL
MODEL 5
REMARK VINA RESULT:      -5.5     19.944     21.647
REMARK  5 active torsions:
REMARK  status: ('A' for Active; 'I' for Inactive)
REMARK    1  A    between atoms: C_1  and  N_2 
REMARK    2  A    between atoms: C_7  and  C_13 
REMARK    3  A    between atoms: C_8  and  O_14 
REMARK    4  A    between atoms: C_13  and  O_16 
REMARK    5  A    between atoms: C_15  and  N_17 
ROOT
HETATM    1  N   UNK N   1      34.605  15.576  10.459  0.00  0.00    -0.282 N 
HETATM    2  C   UNK N   1      34.769  16.876   9.987  0.00  0.00     0.330 A 
HETATM    3  C   UNK N   1      33.527  14.855  10.038  0.00  0.00     0.102 A 
HETATM    4  N   UNK N   1      33.856  17.406   9.111  0.00  0.00    -0.295 N 
ATOM      5  HN  UNK N   1      33.983  18.360   8.772  1.00  0.00     0.172 HD
HETATM    6  O   UNK N   1      35.699  17.570  10.355  0.00  0.00    -0.246 OA
HETATM    7  C   UNK N   1      32.605  15.389   9.144  0.00  0.00     0.065 A 
HETATM    8  C   UNK N   1      32.790  16.686   8.686  0.00  0.00     0.103 A 
ENDROOT
BRANCH   1   9
HETATM    9  C   UNK N   1      35.497  14.909  11.435  0.00  0.00     0.235 C 
HETATM   10  O   UNK N   1      34.760  14.216  12.417  0.00  0.00    -0.356 OA
HETATM   11  C   UNK N   1      35.619  13.209  12.907  0.00  0.00     0.176 C 
HETATM   12  C   UNK N   1      36.925  13.275  12.146  0.00  0.00     0.153 C 
HETATM   13  C   UNK N   1      36.519  13.941  10.879  0.00  0.00     0.088 C 
BRANCH  11  14
HETATM   14  C   UNK N   1      35.867  13.406  14.397  0.00  0.00     0.198 C 
BRANCH  14  15
HETATM   15  O   UNK N   1      37.236  13.423  14.664  0.00  0.00    -0.398 OA
HETATM   16  H   UNK N   1      37.873  13.105  14.006  0.00  0.00     0.209 HD
ENDBRANCH  14  15
ENDBRANCH  11  14
BRANCH  12  17
HETATM   17  O   UNK N   1      37.422  11.994  11.905  0.00  0.00    -0.393 OA
HETATM   18  H   UNK N   1      38.346  11.699  11.883  0.00  0.00     0.210 HD
ENDBRANCH  12  17
ENDBRANCH   1   9
BRANCH   8  19
HETATM   19  N   UNK N   1      31.864  17.257   7.792  0.00  0.00    -0.385 N 
HETATM   20  H   UNK N   1      31.172  17.879   8.117  0.00  0.00     0.157 HD
HETATM   21  H   UNK N   1      31.907  17.033   6.835  0.00  0.00     0.157 HD
ENDBRANCH   8  19
TORSDOF 5
ENDMDL
MODEL 6
REMARK VINA RESULT:      -5.5     17.965     19.538
REMARK  5 active torsions:
REMARK  status: ('A' for Active; 'I' for Inactive)
REMARK    1  A    between atoms: C_1  and  N_2 
REMARK    2  A    between atoms: C_7  and  C_13 
REMARK    3  A    between atoms: C_8  and  O_14 
REMARK    4  A    between atoms: C_13  and  O_16 
REMARK    5  A    between atoms: C_15  and  N_17 
ROOT
HETATM    1  N   UNK N   1      34.648  15.418   9.961  0.00  0.00    -0.282 N 
HETATM    2  C   UNK N   1      35.471  16.277  10.686  0.00  0.00     0.330 A 
HETATM    3  C   UNK N   1      34.546  14.116  10.356  0.00  0.00     0.102 A 
HETATM    4  N   UNK N   1      36.156  15.808  11.778  0.00  0.00    -0.295 N 
ATOM      5  HN  UNK N   1      36.758  16.444  12.302  1.00  0.00     0.172 HD
HETATM    6  O   UNK N   1      35.618  17.439  10.357  0.00  0.00    -0.246 OA
HETATM    7  C   UNK N   1      35.234  13.643  11.468  0.00  0.00     0.065 A 
HETATM    8  C   UNK N   1      36.047  14.517  12.175  0.00  0.00     0.103 A 
ENDROOT
BRANCH   1   9
HETATM    9  C   UNK N   1      33.892  15.794   8.745  0.00  0.00     0.235 C 
HETATM   10  O   UNK N   1      32.937  16.795   9.021  0.00  0.00    -0.356 OA
HETATM   11  C   UNK N   1      32.703  17.454   7.795  0.00  0.00     0.176 C 
HETATM   12  C   UNK N   1      33.599  16.844   6.738  0.00  0.00     0.153 C 
HETATM   13  C   UNK N   1      34.699  16.263   7.554  0.00  0.00     0.088 C 
BRANCH  11  14
HETATM   14  C   UNK N   1      31.241  17.315   7.392  0.00  0.00     0.198 C 
BRANCH  14  15
HETATM   15  O   UNK N   1      31.124  17.239   6.003  0.00  0.00    -0.398 OA
HETATM   16  H   UNK N   1      31.893  17.021   5.453  0.00  0.00     0.209 HD
ENDBRANCH  14  15
ENDBRANCH  11  14
BRANCH  12  17
HETATM   17  O   UNK N   1      34.078  17.824   5.870  0.00  0.00    -0.393 OA
HETATM   18  H   UNK N   1      34.058  18.789   5.977  0.00  0.00     0.210 HD
ENDBRANCH  12  17
ENDBRANCH   1   9
BRANCH   8  19
HETATM   19  N   UNK N   1      36.767  14.060  13.296  0.00  0.00    -0.385 N 
HETATM   20  H   UNK N   1      36.317  13.547  14.005  0.00  0.00     0.157 HD
HETATM   21  H   UNK N   1      37.729  14.255  13.371  0.00  0.00     0.157 HD
ENDBRANCH   8  19
TORSDOF 5
ENDMDL
MODEL 7
REMARK VINA RESULT:      -5.5     15.511     17.341
REMARK  5 active torsions:
REMARK  status: ('A' for Active; 'I' for Inactive)
REMARK    1  A    between atoms: C_1  and  N_2 
REMARK    2  A    between atoms: C_7  and  C_13 
REMARK    3  A    between atoms: C_8  and  O_14 
REMARK    4  A    between atoms: C_13  and  O_16 
REMARK    5  A    between atoms: C_15  and  N_17 
ROOT
HETATM    1  N   UNK N   1      31.994  17.014   8.606  0.00  0.00    -0.282 N 
HETATM    2  C   UNK N   1      33.281  17.526   8.457  0.00  0.00     0.330 A 
HETATM    3  C   UNK N   1      31.845  15.722   9.017  0.00  0.00     0.102 A 
HETATM    4  N   UNK N   1      34.368  16.735   8.730  0.00  0.00    -0.295 N 
ATOM      5  HN  UNK N   1      35.307  17.118   8.616  1.00  0.00     0.172 HD
HETATM    6  O   UNK N   1      33.467  18.664   8.066  0.00  0.00    -0.246 OA
HETATM    7  C   UNK N   1      32.947  14.922   9.301  0.00  0.00     0.065 A 
HETATM    8  C   UNK N   1      34.219  15.455   9.147  0.00  0.00     0.103 A 
ENDROOT
BRANCH   1   9
HETATM    9  C   UNK N   1      30.747  17.753   8.306  0.00  0.00     0.235 C 
HETATM   10  O   UNK N   1      30.002  17.117   7.292  0.00  0.00    -0.356 OA
HETATM   11  C   UNK N   1      28.665  17.528   7.479  0.00  0.00     0.176 C 
HETATM   12  C   UNK N   1      28.599  18.423   8.698  0.00  0.00     0.153 C 
HETATM   13  C   UNK N   1      29.804  18.002   9.463  0.00  0.00     0.088 C 
BRANCH  11  14
HETATM   14  C   UNK N   1      28.166  18.274   6.249  0.00  0.00     0.198 C 
BRANCH  14  15
HETATM   15  O   UNK N   1      27.087  19.095   6.582  0.00  0.00    -0.398 OA
HETATM   16  H   UNK N   1      26.483  19.421   5.897  0.00  0.00     0.209 HD
ENDBRANCH  14  15
ENDBRANCH  11  14
BRANCH  12  17
HETATM   17  O   UNK N   1      27.432  18.185   9.423  0.00  0.00    -0.393 OA
HETATM   18  H   UNK N   1      26.543  18.541   9.271  0.00  0.00     0.210 HD
ENDBRANCH  12  17
ENDBRANCH   1   9
BRANCH   8  19
HETATM   19  N   UNK N   1      35.352  14.662   9.412  0.00  0.00    -0.385 N 
HETATM   20  H   UNK N   1      35.894  14.817  10.219  0.00  0.00     0.157 HD
HETATM   21  H   UNK N   1      35.605  13.947   8.785  0.00  0.00     0.157 HD
ENDBRANCH   8  19
TORSDOF 5
ENDMDL
MODEL 8
REMARK VINA RESULT:      -5.4     10.519     12.131
REMARK  5 active torsions:
REMARK  status: ('A' for Active; 'I' for Inactive)
REMARK    1  A    between atoms: C_1  and  N_2 
REMARK    2  A    between atoms: C_7  and  C_13 
REMARK    3  A    between atoms: C_8  and  O_14 
REMARK    4  A    between atoms: C_13  and  O_16 
REMARK    5  A    between atoms: C_15  and  N_17 
ROOT
HETATM    1  N   UNK N   1      23.118  19.451   3.555  0.00  0.00    -0.282 N 
HETATM    2  C   UNK N   1      22.091  20.146   2.920  0.00  0.00     0.330 A 
HETATM    3  C   UNK N   1      22.929  18.136   3.862  0.00  0.00     0.102 A 
HETATM    4  N   UNK N   1      20.920  19.503   2.609  0.00  0.00    -0.295 N 
ATOM      5  HN  UNK N   1      20.173  20.021   2.145  1.00  0.00     0.172 HD
HETATM    6  O   UNK N   1      22.201  21.328   2.650  0.00  0.00    -0.246 OA
HETATM    7  C   UNK N   1      21.744  17.482   3.541  0.00  0.00     0.065 A 
HETATM    8  C   UNK N   1      20.737  18.194   2.907  0.00  0.00     0.103 A 
ENDROOT
BRANCH   1   9
HETATM    9  C   UNK N   1      24.408  20.042   3.976  0.00  0.00     0.235 C 
HETATM   10  O   UNK N   1      24.844  19.507   5.206  0.00  0.00    -0.356 OA
HETATM   11  C   UNK N   1      26.245  19.673   5.226  0.00  0.00     0.176 C 
HETATM   12  C   UNK N   1      26.677  20.301   3.918  0.00  0.00     0.153 C 
HETATM   13  C   UNK N   1      25.564  19.926   3.005  0.00  0.00     0.088 C 
BRANCH  11  14
HETATM   14  C   UNK N   1      26.655  20.557   6.396  0.00  0.00     0.198 C 
BRANCH  14  15
HETATM   15  O   UNK N   1      27.793  21.297   6.073  0.00  0.00    -0.398 OA
HETATM   16  H   UNK N   1      27.753  22.263   6.003  0.00  0.00     0.209 HD
ENDBRANCH  14  15
ENDBRANCH  11  14
BRANCH  12  17
HETATM   17  O   UNK N   1      27.887  19.762   3.486  0.00  0.00    -0.393 OA
HETATM   18  H   UNK N   1      28.095  18.838   3.273  0.00  0.00     0.210 HD
ENDBRANCH  12  17
ENDBRANCH   1   9
BRANCH   8  19
HETATM   19  N   UNK N   1      19.521  17.561   2.584  0.00  0.00    -0.385 N 
HETATM   20  H   UNK N   1      18.769  17.568   3.220  0.00  0.00     0.157 HD
HETATM   21  H   UNK N   1      19.421  17.108   1.716  0.00  0.00     0.157 HD
ENDBRANCH   8  19
TORSDOF 5
ENDMDL
MODEL 9
REMARK VINA RESULT:      -5.3     15.561     17.053
REMARK  5 active torsions:
REMARK  status: ('A' for Active; 'I' for Inactive)
REMARK    1  A    between atoms: C_1  and  N_2 
REMARK    2  A    between atoms: C_7  and  C_13 
REMARK    3  A    between atoms: C_8  and  O_14 
REMARK    4  A    between atoms: C_13  and  O_16 
REMARK    5  A    between atoms: C_15  and  N_17 
ROOT
HETATM    1  N   UNK N   1      33.633  17.068   8.066  0.00  0.00    -0.282 N 
HETATM    2  C   UNK N   1      34.546  17.917   8.688  0.00  0.00     0.330 A 
HETATM    3  C   UNK N   1      33.396  15.843   8.616  0.00  0.00     0.102 A 
HETATM    4  N   UNK N   1      35.183  17.516   9.835  0.00  0.00    -0.295 N 
ATOM      5  HN  UNK N   1      35.851  18.143  10.282  1.00  0.00     0.172 HD
HETATM    6  O   UNK N   1      34.813  19.009   8.222  0.00  0.00    -0.246 OA
HETATM    7  C   UNK N   1      34.036  15.438   9.783  0.00  0.00     0.065 A 
HETATM    8  C   UNK N   1      34.940  16.301  10.385  0.00  0.00     0.103 A 
ENDROOT
BRANCH   1   9
HETATM    9  C   UNK N   1      32.915  17.371   6.808  0.00  0.00     0.235 C 
HETATM   10  O   UNK N   1      33.408  16.599   5.735  0.00  0.00    -0.356 OA
HETATM   11  C   UNK N   1      32.358  16.527   4.795  0.00  0.00     0.176 C 
HETATM   12  C   UNK N   1      31.156  17.257   5.355  0.00  0.00     0.153 C 
HETATM   13  C   UNK N   1      31.411  17.206   6.820  0.00  0.00     0.088 C 
BRANCH  11  14
HETATM   14  C   UNK N   1      32.787  17.153   3.475  0.00  0.00     0.198 C 
BRANCH  14  15
HETATM   15  O   UNK N   1      31.701  17.244   2.603  0.00  0.00    -0.398 OA
HETATM   16  H   UNK N   1      31.644  16.671   1.823  0.00  0.00     0.209 HD
ENDBRANCH  14  15
ENDBRANCH  11  14
BRANCH  12  17
HETATM   17  O   UNK N   1      29.976  16.592   5.026  0.00  0.00    -0.393 OA
HETATM   18  H   UNK N   1      29.066  16.816   5.277  0.00  0.00     0.210 HD
ENDBRANCH  12  17
ENDBRANCH   1   9
BRANCH   8  19
HETATM   19  N   UNK N   1      35.613  15.911  11.559  0.00  0.00    -0.385 N 
HETATM   20  H   UNK N   1      36.545  15.596  11.519  0.00  0.00     0.157 HD
HETATM   21  H   UNK N   1      35.149  15.953  12.425  0.00  0.00     0.157 HD
ENDBRANCH   8  19
TORSDOF 5
ENDMDL
