MODEL 1
REMARK VINA RESULT:      -4.4      0.000      0.000
REMARK  4 active torsions:
REMARK  status: ('A' for Active; 'I' for Inactive)
REMARK    1  A    between atoms: O_1  and  C_2 
REMARK    2  A    between atoms: C_2  and  O_3 
REMARK    3  A    between atoms: C_2  and  C_4 
REMARK    4  A    between atoms: C_2  and  C_8 
ROOT
HETATM    1  C   UNK N   1      44.046  23.141   3.424  0.00  0.00     0.361 C 
ENDROOT
BRANCH   1   2
HETATM    2  O   UNK N   1      43.549  24.193   4.109  0.00  0.00    -0.352 OA
HETATM    3  H   UNK N   1      43.861  25.075   4.056  0.00  0.00     0.213 HD
ENDBRANCH   1   2
BRANCH   1   4
HETATM    4  O   UNK N   1      45.338  23.338   3.094  0.00  0.00    -0.352 OA
HETATM    5  H   UNK N   1      46.010  23.975   3.239  0.00  0.00     0.213 HD
ENDBRANCH   1   4
BRANCH   1   6
HETATM    6  C   UNK N   1      43.235  22.963   2.147  0.00  0.00     0.454 C 
HETATM    7  F   UNK N   1      43.579  23.962   1.252  0.00  0.00    -0.165 F 
HETATM    8  F   UNK N   1      41.876  23.056   2.395  0.00  0.00    -0.165 F 
HETATM    9  F   UNK N   1      43.498  21.743   1.549  0.00  0.00    -0.165 F 
ENDBRANCH   1   6
BRANCH   1  10
HETATM   10  C   UNK N   1      43.948  21.897   4.296  0.00  0.00     0.454 C 
HETATM   11  F   UNK N   1      43.933  22.280   5.627  0.00  0.00    -0.165 F 
HETATM   12  F   UNK N   1      42.786  21.189   4.040  0.00  0.00    -0.165 F 
HETATM   13  F   UNK N   1      45.034  21.061   4.103  0.00  0.00    -0.165 F 
ENDBRANCH   1  10
TORSDOF 4
ENDMDL
MODEL 2
REMARK VINA RESULT:      -4.4      0.016      3.225
REMARK  4 active torsions:
REMARK  status: ('A' for Active; 'I' for Inactive)
REMARK    1  A    between atoms: O_1  and  C_2 
REMARK    2  A    between atoms: C_2  and  O_3 
REMARK    3  A    between atoms: C_2  and  C_4 
REMARK    4  A    between atoms: C_2  and  C_8 
ROOT
HETATM    1  C   UNK N   1      44.039  23.141   3.420  0.00  0.00     0.361 C 
ENDROOT
BRANCH   1   2
HETATM    2  O   UNK N   1      45.330  23.337   3.081  0.00  0.00    -0.352 OA
HETATM    3  H   UNK N   1      46.002  23.654   3.653  0.00  0.00     0.213 HD
ENDBRANCH   1   2
BRANCH   1   4
HETATM    4  O   UNK N   1      43.546  24.193   4.105  0.00  0.00    -0.352 OA
HETATM    5  H   UNK N   1      43.867  24.910   4.615  0.00  0.00     0.213 HD
ENDBRANCH   1   4
BRANCH   1   6
HETATM    6  C   UNK N   1      43.946  21.899   4.296  0.00  0.00     0.454 C 
HETATM    7  F   UNK N   1      43.913  22.287   5.625  0.00  0.00    -0.165 F 
HETATM    8  F   UNK N   1      45.042  21.072   4.117  0.00  0.00    -0.165 F 
HETATM    9  F   UNK N   1      42.794  21.178   4.031  0.00  0.00    -0.165 F 
ENDBRANCH   1   6
BRANCH   1  10
HETATM   10  C   UNK N   1      43.221  22.959   2.149  0.00  0.00     0.454 C 
HETATM   11  F   UNK N   1      43.560  23.955   1.249  0.00  0.00    -0.165 F 
HETATM   12  F   UNK N   1      43.476  21.735   1.553  0.00  0.00    -0.165 F 
HETATM   13  F   UNK N   1      41.864  23.058   2.405  0.00  0.00    -0.165 F 
ENDBRANCH   1  10
TORSDOF 4
ENDMDL
MODEL 3
REMARK VINA RESULT:      -4.2     22.864     23.922
REMARK  4 active torsions:
REMARK  status: ('A' for Active; 'I' for Inactive)
REMARK    1  A    between atoms: O_1  and  C_2 
REMARK    2  A    between atoms: C_2  and  O_3 
REMARK    3  A    between atoms: C_2  and  C_4 
REMARK    4  A    between atoms: C_2  and  C_8 
ROOT
HETATM    1  C   UNK N   1      19.859  18.625   2.302  0.00  0.00     0.361 C 
ENDROOT
BRANCH   1   2
HETATM    2  O   UNK N   1      18.536  18.773   2.525  0.00  0.00    -0.352 OA
HETATM    3  H   UNK N   1      18.146  19.414   3.085  0.00  0.00     0.213 HD
ENDBRANCH   1   2
BRANCH   1   4
HETATM    4  O   UNK N   1      20.100  18.192   1.048  0.00  0.00    -0.352 OA
HETATM    5  H   UNK N   1      19.849  18.408   0.171  0.00  0.00     0.213 HD
ENDBRANCH   1   4
BRANCH   1   6
HETATM    6  C   UNK N   1      20.410  17.603   3.287  0.00  0.00     0.454 C 
HETATM    7  F   UNK N   1      19.472  16.600   3.468  0.00  0.00    -0.165 F 
HETATM    8  F   UNK N   1      20.668  18.178   4.520  0.00  0.00    -0.165 F 
HETATM    9  F   UNK N   1      21.574  17.021   2.813  0.00  0.00    -0.165 F 
ENDBRANCH   1   6
BRANCH   1  10
HETATM   10  C   UNK N   1      20.542  19.972   2.493  0.00  0.00     0.454 C 
HETATM   11  F   UNK N   1      20.285  20.769   1.390  0.00  0.00    -0.165 F 
HETATM   12  F   UNK N   1      20.065  20.627   3.617  0.00  0.00    -0.165 F 
HETATM   13  F   UNK N   1      21.914  19.830   2.607  0.00  0.00    -0.165 F 
ENDBRANCH   1  10
TORSDOF 4
ENDMDL
MODEL 4
REMARK VINA RESULT:      -4.2     22.866     23.860
REMARK  4 active torsions:
REMARK  status: ('A' for Active; 'I' for Inactive)
REMARK    1  A    between atoms: O_1  and  C_2 
REMARK    2  A    between atoms: C_2  and  O_3 
REMARK    3  A    between atoms: C_2  and  C_4 
REMARK    4  A    between atoms: C_2  and  C_8 
ROOT
HETATM    1  C   UNK N   1      19.859  18.617   2.299  0.00  0.00     0.361 C 
ENDROOT
BRANCH   1   2
HETATM    2  O   UNK N   1      20.097  18.188   1.042  0.00  0.00    -0.352 OA
HETATM    3  H   UNK N   1      19.684  18.514   0.267  0.00  0.00     0.213 HD
ENDBRANCH   1   2
BRANCH   1   4
HETATM    4  O   UNK N   1      18.538  18.765   2.524  0.00  0.00    -0.352 OA
HETATM    5  H   UNK N   1      17.839  18.295   2.938  0.00  0.00     0.213 HD
ENDBRANCH   1   4
BRANCH   1   6
HETATM    6  C   UNK N   1      20.542  19.965   2.493  0.00  0.00     0.454 C 
HETATM    7  F   UNK N   1      20.284  20.764   1.392  0.00  0.00    -0.165 F 
HETATM    8  F   UNK N   1      21.915  19.823   2.609  0.00  0.00    -0.165 F 
HETATM    9  F   UNK N   1      20.063  20.617   3.617  0.00  0.00    -0.165 F 
ENDBRANCH   1   6
BRANCH   1  10
HETATM   10  C   UNK N   1      20.411  17.594   3.280  0.00  0.00     0.454 C 
HETATM   11  F   UNK N   1      19.478  16.585   3.452  0.00  0.00    -0.165 F 
HETATM   12  F   UNK N   1      21.582  17.021   2.811  0.00  0.00    -0.165 F 
HETATM   13  F   UNK N   1      20.657  18.163   4.518  0.00  0.00    -0.165 F 
ENDBRANCH   1  10
TORSDOF 4
ENDMDL
MODEL 5
REMARK VINA RESULT:      -4.2     15.818     16.831
REMARK  4 active torsions:
REMARK  status: ('A' for Active; 'I' for Inactive)
REMARK    1  A    between atoms: O_1  and  C_2 
REMARK    2  A    between atoms: C_2  and  O_3 
REMARK    3  A    between atoms: C_2  and  C_4 
REMARK    4  A    between atoms: C_2  and  C_8 
ROOT
HETATM    1  C   UNK N   1      28.201  17.942   8.679  0.00  0.00     0.361 C 
ENDROOT
BRANCH   1   2
HETATM    2  O   UNK N   1      27.665  19.181   8.684  0.00  0.00    -0.352 OA
HETATM    3  H   UNK N   1      27.390  19.652   9.446  0.00  0.00     0.213 HD
ENDBRANCH   1   2
BRANCH   1   4
HETATM    4  O   UNK N   1      27.450  17.080   9.394  0.00  0.00    -0.352 OA
HETATM    5  H   UNK N   1      26.640  17.079   9.866  0.00  0.00     0.213 HD
ENDBRANCH   1   4
BRANCH   1   6
HETATM    6  C   UNK N   1      29.592  18.008   9.296  0.00  0.00     0.454 C 
HETATM    7  F   UNK N   1      29.584  18.934  10.326  0.00  0.00    -0.165 F 
HETATM    8  F   UNK N   1      30.538  18.406   8.366  0.00  0.00    -0.165 F 
HETATM    9  F   UNK N   1      29.969  16.784   9.822  0.00  0.00    -0.165 F 
ENDBRANCH   1   6
BRANCH   1  10
HETATM   10  C   UNK N   1      28.277  17.447   7.242  0.00  0.00     0.454 C 
HETATM   11  F   UNK N   1      28.530  18.523   6.407  0.00  0.00    -0.165 F 
HETATM   12  F   UNK N   1      29.299  16.526   7.077  0.00  0.00    -0.165 F 
HETATM   13  F   UNK N   1      27.084  16.867   6.844  0.00  0.00    -0.165 F 
ENDBRANCH   1  10
TORSDOF 4
ENDMDL
MODEL 6
REMARK VINA RESULT:      -4.1     18.719     20.255
REMARK  4 active torsions:
REMARK  status: ('A' for Active; 'I' for Inactive)
REMARK    1  A    between atoms: O_1  and  C_2 
REMARK    2  A    between atoms: C_2  and  O_3 
REMARK    3  A    between atoms: C_2  and  C_4 
REMARK    4  A    between atoms: C_2  and  C_8 
ROOT
HETATM    1  C   UNK N   1      26.033  25.760  -5.397  0.00  0.00     0.361 C 
ENDROOT
BRANCH   1   2
HETATM    2  O   UNK N   1      25.098  24.793  -5.292  0.00  0.00    -0.352 OA
HETATM    3  H   UNK N   1      25.266  23.891  -5.102  0.00  0.00     0.213 HD
ENDBRANCH   1   2
BRANCH   1   4
HETATM    4  O   UNK N   1      27.101  25.335  -6.102  0.00  0.00    -0.352 OA
HETATM    5  H   UNK N   1      27.301  24.692  -6.754  0.00  0.00     0.213 HD
ENDBRANCH   1   4
BRANCH   1   6
HETATM    6  C   UNK N   1      26.493  26.150  -3.998  0.00  0.00     0.454 C 
HETATM    7  F   UNK N   1      26.562  25.010  -3.214  0.00  0.00    -0.165 F 
HETATM    8  F   UNK N   1      25.606  27.029  -3.401  0.00  0.00    -0.165 F 
HETATM    9  F   UNK N   1      27.750  26.730  -4.023  0.00  0.00    -0.165 F 
ENDBRANCH   1   6
BRANCH   1  10
HETATM   10  C   UNK N   1      25.422  26.958  -6.110  0.00  0.00     0.454 C 
HETATM   11  F   UNK N   1      25.389  26.704  -7.471  0.00  0.00    -0.165 F 
HETATM   12  F   UNK N   1      24.124  27.193  -5.685  0.00  0.00    -0.165 F 
HETATM   13  F   UNK N   1      26.173  28.103  -5.907  0.00  0.00    -0.165 F 
ENDBRANCH   1  10
TORSDOF 4
ENDMDL
MODEL 7
REMARK VINA RESULT:      -4.1     23.333     24.293
REMARK  4 active torsions:
REMARK  status: ('A' for Active; 'I' for Inactive)
REMARK    1  A    between atoms: O_1  and  C_2 
REMARK    2  A    between atoms: C_2  and  O_3 
REMARK    3  A    between atoms: C_2  and  C_4 
REMARK    4  A    between atoms: C_2  and  C_8 
ROOT
HETATM    1  C   UNK N   1      22.981  12.160  10.635  0.00  0.00     0.361 C 
ENDROOT
BRANCH   1   2
HETATM    2  O   UNK N   1      23.297  12.657  11.849  0.00  0.00    -0.352 OA
HETATM    3  H   UNK N   1      22.689  13.017  12.465  0.00  0.00     0.213 HD
ENDBRANCH   1   2
BRANCH   1   4
HETATM    4  O   UNK N   1      22.876  10.816  10.668  0.00  0.00    -0.352 OA
HETATM    5  H   UNK N   1      22.223  10.159  10.523  0.00  0.00     0.213 HD
ENDBRANCH   1   4
BRANCH   1   6
HETATM    6  C   UNK N   1      24.079  12.541   9.650  0.00  0.00     0.454 C 
HETATM    7  F   UNK N   1      24.311  11.474   8.799  0.00  0.00    -0.165 F 
HETATM    8  F   UNK N   1      25.264  12.835  10.304  0.00  0.00    -0.165 F 
HETATM    9  F   UNK N   1      23.710  13.631   8.881  0.00  0.00    -0.165 F 
ENDBRANCH   1   6
BRANCH   1  10
HETATM   10  C   UNK N   1      21.646  12.744  10.197  0.00  0.00     0.454 C 
HETATM   11  F   UNK N   1      20.665  12.342  11.088  0.00  0.00    -0.165 F 
HETATM   12  F   UNK N   1      21.677  14.129  10.187  0.00  0.00    -0.165 F 
HETATM   13  F   UNK N   1      21.289  12.295   8.937  0.00  0.00    -0.165 F 
ENDBRANCH   1  10
TORSDOF 4
ENDMDL
MODEL 8
REMARK VINA RESULT:      -4.1     16.305     17.270
REMARK  4 active torsions:
REMARK  status: ('A' for Active; 'I' for Inactive)
REMARK    1  A    between atoms: O_1  and  C_2 
REMARK    2  A    between atoms: C_2  and  O_3 
REMARK    3  A    between atoms: C_2  and  C_4 
REMARK    4  A    between atoms: C_2  and  C_8 
ROOT
HETATM    1  C   UNK N   1      26.580  19.583   5.597  0.00  0.00     0.361 C 
ENDROOT
BRANCH   1   2
HETATM    2  O   UNK N   1      26.978  18.446   6.204  0.00  0.00    -0.352 OA
HETATM    3  H   UNK N   1      26.440  17.695   6.363  0.00  0.00     0.213 HD
ENDBRANCH   1   2
BRANCH   1   4
HETATM    4  O   UNK N   1      25.246  19.591   5.398  0.00  0.00    -0.352 OA
HETATM    5  H   UNK N   1      24.585  20.184   5.098  0.00  0.00     0.213 HD
ENDBRANCH   1   4
BRANCH   1   6
HETATM    6  C   UNK N   1      27.277  19.686   4.247  0.00  0.00     0.454 C 
HETATM    7  F   UNK N   1      27.264  18.443   3.637  0.00  0.00    -0.165 F 
HETATM    8  F   UNK N   1      28.596  20.082   4.389  0.00  0.00    -0.165 F 
HETATM    9  F   UNK N   1      26.629  20.580   3.411  0.00  0.00    -0.165 F 
ENDBRANCH   1   6
BRANCH   1  10
HETATM   10  C   UNK N   1      26.950  20.766   6.480  0.00  0.00     0.454 C 
HETATM   11  F   UNK N   1      28.130  20.481   7.145  0.00  0.00    -0.165 F 
HETATM   12  F   UNK N   1      27.145  21.916   5.731  0.00  0.00    -0.165 F 
HETATM   13  F   UNK N   1      25.972  21.012   7.429  0.00  0.00    -0.165 F 
ENDBRANCH   1  10
TORSDOF 4
ENDMDL
MODEL 9
REMARK VINA RESULT:      -4.1     17.102     18.330
REMARK  4 active torsions:
REMARK  status: ('A' for Active; 'I' for Inactive)
REMARK    1  A    between atoms: O_1  and  C_2 
REMARK    2  A    between atoms: C_2  and  O_3 
REMARK    3  A    between atoms: C_2  and  C_4 
REMARK    4  A    between atoms: C_2  and  C_8 
ROOT
HETATM    1  C   UNK N   1      34.701  12.255  14.886  0.00  0.00     0.361 C 
ENDROOT
BRANCH   1   2
HETATM    2  O   UNK N   1      34.109  13.038  15.811  0.00  0.00    -0.352 OA
HETATM    3  H   UNK N   1      33.806  12.755  16.652  0.00  0.00     0.213 HD
ENDBRANCH   1   2
BRANCH   1   4
HETATM    4  O   UNK N   1      34.362  12.632  13.636  0.00  0.00    -0.352 OA
HETATM    5  H   UNK N   1      34.288  13.421  13.137  0.00  0.00     0.213 HD
ENDBRANCH   1   4
BRANCH   1   6
HETATM    6  C   UNK N   1      34.252  10.816  15.103  0.00  0.00     0.454 C 
HETATM    7  F   UNK N   1      32.933  10.690  14.697  0.00  0.00    -0.165 F 
HETATM    8  F   UNK N   1      34.326  10.460  16.439  0.00  0.00    -0.165 F 
HETATM    9  F   UNK N   1      35.015   9.931  14.360  0.00  0.00    -0.165 F 
ENDBRANCH   1   6
BRANCH   1  10
HETATM   10  C   UNK N   1      36.211  12.371  15.038  0.00  0.00     0.454 C 
HETATM   11  F   UNK N   1      36.531  13.675  15.376  0.00  0.00    -0.165 F 
HETATM   12  F   UNK N   1      36.684  11.539  16.040  0.00  0.00    -0.165 F 
HETATM   13  F   UNK N   1      36.862  12.063  13.856  0.00  0.00    -0.165 F 
ENDBRANCH   1  10
TORSDOF 4
ENDMDL
