MODEL 1
REMARK VINA RESULT:      -4.5      0.000      0.000
REMARK  4 active torsions:
REMARK  status: ('A' for Active; 'I' for Inactive)
REMARK    1  A    between atoms: C_2  and  C_3 
REMARK    2  A    between atoms: C_3  and  C_4 
REMARK    3  A    between atoms: C_4  and  N_5 
REMARK       I    between atoms: N_5  and  C_6 
REMARK       I    between atoms: C_6  and  N_9 
REMARK    4  A    between atoms: N_9  and  O_10 
ROOT
HETATM    1  N   UNK N   1      22.363  11.604  10.775  0.00  0.00    -0.225 N 
HETATM    2  C   UNK N   1      23.284  11.924  11.802  0.00  0.00     0.691 C 
HETATM    3  N   UNK N   1      24.439  12.413  11.518  0.00  0.00    -0.233 N 
ATOM      4  HN  UNK N   1      24.699  12.574  10.545  1.00  0.00     0.174 HD
HETATM    5  N   UNK N   1      22.917  11.699  13.150  0.00  0.00    -0.099 N 
HETATM    6  H   UNK N   1      21.488  11.232  11.031  0.00  0.00     0.177 HD
HETATM    7  H   UNK N   1      25.072  12.632  12.239  0.00  0.00     0.174 HD
HETATM    8  H   UNK N   1      22.030  11.324  13.354  0.00  0.00     0.213 HD
ENDROOT
BRANCH   1   9
HETATM    9  C   UNK N   1      22.642  11.796   9.377  0.00  0.00     0.138 C 
BRANCH   9  10
HETATM   10  C   UNK N   1      21.593  12.735   8.820  0.00  0.00     0.020 C 
BRANCH  10  11
HETATM   11  C   UNK N   1      21.320  13.878   9.770  0.00  0.00    -0.003 C 
HETATM   12  C   UNK N   1      20.244  14.758   9.167  0.00  0.00     0.005 C 
ENDBRANCH  10  11
ENDBRANCH   9  10
ENDBRANCH   1   9
BRANCH   5  13
HETATM   13  O   UNK N   1      23.757  11.987  14.153  0.00  0.00    -0.276 OA
HETATM   14  H   UNK N   1      24.585  11.490  14.250  0.00  0.00     0.245 HD
ENDBRANCH   5  13
TORSDOF 4
ENDMDL
MODEL 2
REMARK VINA RESULT:      -4.3      5.692      6.721
REMARK  4 active torsions:
REMARK  status: ('A' for Active; 'I' for Inactive)
REMARK    1  A    between atoms: C_2  and  C_3 
REMARK    2  A    between atoms: C_3  and  C_4 
REMARK    3  A    between atoms: C_4  and  N_5 
REMARK       I    between atoms: N_5  and  C_6 
REMARK       I    between atoms: C_6  and  N_9 
REMARK    4  A    between atoms: N_9  and  O_10 
ROOT
HETATM    1  N   UNK N   1      19.975  17.381   8.592  0.00  0.00    -0.225 N 
HETATM    2  C   UNK N   1      18.954  18.047   9.311  0.00  0.00     0.691 C 
HETATM    3  N   UNK N   1      17.735  17.643   9.246  0.00  0.00    -0.233 N 
ATOM      4  HN  UNK N   1      17.496  16.834   8.671  1.00  0.00     0.174 HD
HETATM    5  N   UNK N   1      19.291  19.169  10.106  0.00  0.00    -0.099 N 
HETATM    6  H   UNK N   1      20.897  17.719   8.667  0.00  0.00     0.177 HD
HETATM    7  H   UNK N   1      17.032  18.113   9.750  0.00  0.00     0.174 HD
HETATM    8  H   UNK N   1      20.228  19.468  10.147  0.00  0.00     0.213 HD
ENDROOT
BRANCH   1   9
HETATM    9  C   UNK N   1      19.733  16.233   7.758  0.00  0.00     0.138 C 
BRANCH   9  10
HETATM   10  C   UNK N   1      20.659  15.125   8.215  0.00  0.00     0.020 C 
BRANCH  10  11
HETATM   11  C   UNK N   1      20.167  14.495   9.498  0.00  0.00    -0.003 C 
HETATM   12  C   UNK N   1      21.206  13.499   9.973  0.00  0.00     0.005 C 
ENDBRANCH  10  11
ENDBRANCH   9  10
ENDBRANCH   1   9
BRANCH   5  13
HETATM   13  O   UNK N   1      18.357  19.829  10.803  0.00  0.00    -0.276 OA
HETATM   14  H   UNK N   1      17.733  19.340  11.361  0.00  0.00     0.245 HD
ENDBRANCH   5  13
TORSDOF 4
ENDMDL
MODEL 3
REMARK VINA RESULT:      -4.2     13.815     14.482
REMARK  4 active torsions:
REMARK  status: ('A' for Active; 'I' for Inactive)
REMARK    1  A    between atoms: C_2  and  C_3 
REMARK    2  A    between atoms: C_3  and  C_4 
REMARK    3  A    between atoms: C_4  and  N_5 
REMARK       I    between atoms: N_5  and  C_6 
REMARK       I    between atoms: C_6  and  N_9 
REMARK    4  A    between atoms: N_9  and  O_10 
ROOT
HETATM    1  N   UNK N   1      35.428  13.914  13.396  0.00  0.00    -0.225 N 
HETATM    2  C   UNK N   1      36.377  14.267  12.406  0.00  0.00     0.691 C 
HETATM    3  N   UNK N   1      37.331  13.464  12.095  0.00  0.00    -0.233 N 
ATOM      4  HN  UNK N   1      37.410  12.560  12.564  1.00  0.00     0.174 HD
HETATM    5  N   UNK N   1      36.262  15.521  11.760  0.00  0.00    -0.099 N 
HETATM    6  H   UNK N   1      34.711  14.555  13.607  0.00  0.00     0.177 HD
HETATM    7  H   UNK N   1      37.986  13.719  11.406  0.00  0.00     0.174 HD
HETATM    8  H   UNK N   1      35.527  16.127  12.007  0.00  0.00     0.213 HD
ENDROOT
BRANCH   1   9
HETATM    9  C   UNK N   1      35.460  12.664  14.108  0.00  0.00     0.138 C 
BRANCH   9  10
HETATM   10  C   UNK N   1      35.889  12.953  15.531  0.00  0.00     0.020 C 
BRANCH  10  11
HETATM   11  C   UNK N   1      34.695  13.054  16.453  0.00  0.00    -0.003 C 
HETATM   12  C   UNK N   1      35.169  13.569  17.797  0.00  0.00     0.005 C 
ENDBRANCH  10  11
ENDBRANCH   9  10
ENDBRANCH   1   9
BRANCH   5  13
HETATM   13  O   UNK N   1      37.137  15.897  10.818  0.00  0.00    -0.276 OA
HETATM   14  H   UNK N   1      37.222  16.834  10.580  0.00  0.00     0.245 HD
ENDBRANCH   5  13
TORSDOF 4
ENDMDL
MODEL 4
REMARK VINA RESULT:      -4.2     11.386     12.281
REMARK  4 active torsions:
REMARK  status: ('A' for Active; 'I' for Inactive)
REMARK    1  A    between atoms: C_2  and  C_3 
REMARK    2  A    between atoms: C_3  and  C_4 
REMARK    3  A    between atoms: C_4  and  N_5 
REMARK       I    between atoms: N_5  and  C_6 
REMARK       I    between atoms: C_6  and  N_9 
REMARK    4  A    between atoms: N_9  and  O_10 
ROOT
HETATM    1  N   UNK N   1      20.521  19.232   1.548  0.00  0.00    -0.225 N 
HETATM    2  C   UNK N   1      20.684  20.637   1.615  0.00  0.00     0.691 C 
HETATM    3  N   UNK N   1      21.161  21.192   2.671  0.00  0.00    -0.233 N 
ATOM      4  HN  UNK N   1      21.427  20.620   3.473  1.00  0.00     0.174 HD
HETATM    5  N   UNK N   1      20.313  21.426   0.500  0.00  0.00    -0.099 N 
HETATM    6  H   UNK N   1      20.152  18.843   0.722  0.00  0.00     0.177 HD
HETATM    7  H   UNK N   1      21.271  22.170   2.707  0.00  0.00     0.174 HD
HETATM    8  H   UNK N   1      19.948  20.989  -0.303  0.00  0.00     0.213 HD
ENDROOT
BRANCH   1   9
HETATM    9  C   UNK N   1      20.868  18.345   2.627  0.00  0.00     0.138 C 
BRANCH   9  10
HETATM   10  C   UNK N   1      19.818  17.255   2.687  0.00  0.00     0.020 C 
BRANCH  10  11
HETATM   11  C   UNK N   1      20.402  15.912   2.314  0.00  0.00    -0.003 C 
HETATM   12  C   UNK N   1      20.209  15.701   0.826  0.00  0.00     0.005 C 
ENDBRANCH  10  11
ENDBRANCH   9  10
ENDBRANCH   1   9
BRANCH   5  13
HETATM   13  O   UNK N   1      20.449  22.758   0.519  0.00  0.00    -0.276 OA
HETATM   14  H   UNK N   1      20.024  23.280   1.217  0.00  0.00     0.245 HD
ENDBRANCH   5  13
TORSDOF 4
ENDMDL
MODEL 5
REMARK VINA RESULT:      -4.2     11.107     11.646
REMARK  4 active torsions:
REMARK  status: ('A' for Active; 'I' for Inactive)
REMARK    1  A    between atoms: C_2  and  C_3 
REMARK    2  A    between atoms: C_3  and  C_4 
REMARK    3  A    between atoms: C_4  and  N_5 
REMARK       I    between atoms: N_5  and  C_6 
REMARK       I    between atoms: C_6  and  N_9 
REMARK    4  A    between atoms: N_9  and  O_10 
ROOT
HETATM    1  N   UNK N   1      32.691  16.921   8.715  0.00  0.00    -0.225 N 
HETATM    2  C   UNK N   1      34.000  17.397   8.967  0.00  0.00     0.691 C 
HETATM    3  N   UNK N   1      34.605  18.139   8.109  0.00  0.00    -0.233 N 
ATOM      4  HN  UNK N   1      34.141  18.391   7.236  1.00  0.00     0.174 HD
HETATM    5  N   UNK N   1      34.639  17.045  10.181  0.00  0.00    -0.099 N 
HETATM    6  H   UNK N   1      32.260  16.354   9.395  0.00  0.00     0.177 HD
HETATM    7  H   UNK N   1      35.516  18.465   8.294  0.00  0.00     0.174 HD
HETATM    8  H   UNK N   1      34.165  16.476  10.829  0.00  0.00     0.213 HD
ENDROOT
BRANCH   1   9
HETATM    9  C   UNK N   1      31.960  17.223   7.513  0.00  0.00     0.138 C 
BRANCH   9  10
HETATM   10  C   UNK N   1      30.510  17.436   7.894  0.00  0.00     0.020 C 
BRANCH  10  11
HETATM   11  C   UNK N   1      30.378  18.462   8.996  0.00  0.00    -0.003 C 
HETATM   12  C   UNK N   1      28.980  18.369   9.574  0.00  0.00     0.005 C 
ENDBRANCH  10  11
ENDBRANCH   9  10
ENDBRANCH   1   9
BRANCH   5  13
HETATM   13  O   UNK N   1      35.876  17.473  10.461  0.00  0.00    -0.276 OA
HETATM   14  H   UNK N   1      36.448  16.952  11.047  0.00  0.00     0.245 HD
ENDBRANCH   5  13
TORSDOF 4
ENDMDL
MODEL 6
REMARK VINA RESULT:      -4.2      0.997      1.465
REMARK  4 active torsions:
REMARK  status: ('A' for Active; 'I' for Inactive)
REMARK    1  A    between atoms: C_2  and  C_3 
REMARK    2  A    between atoms: C_3  and  C_4 
REMARK    3  A    between atoms: C_4  and  N_5 
REMARK       I    between atoms: N_5  and  C_6 
REMARK       I    between atoms: C_6  and  N_9 
REMARK    4  A    between atoms: N_9  and  O_10 
ROOT
HETATM    1  N   UNK N   1      22.833  12.532   9.912  0.00  0.00    -0.225 N 
HETATM    2  C   UNK N   1      22.712  12.249  11.294  0.00  0.00     0.691 C 
HETATM    3  N   UNK N   1      21.594  11.850  11.787  0.00  0.00    -0.233 N 
ATOM      4  HN  UNK N   1      20.781  11.733  11.181  1.00  0.00     0.174 HD
HETATM    5  N   UNK N   1      23.842  12.413  12.131  0.00  0.00    -0.099 N 
HETATM    6  H   UNK N   1      23.705  12.835   9.571  0.00  0.00     0.177 HD
HETATM    7  H   UNK N   1      21.521  11.656  12.750  0.00  0.00     0.174 HD
HETATM    8  H   UNK N   1      24.692  12.719  11.741  0.00  0.00     0.213 HD
ENDROOT
BRANCH   1   9
HETATM    9  C   UNK N   1      21.743  12.396   8.981  0.00  0.00     0.138 C 
BRANCH   9  10
HETATM   10  C   UNK N   1      21.434  13.771   8.427  0.00  0.00     0.020 C 
BRANCH  10  11
HETATM   11  C   UNK N   1      20.519  14.542   9.351  0.00  0.00    -0.003 C 
HETATM   12  C   UNK N   1      20.338  15.939   8.793  0.00  0.00     0.005 C 
ENDBRANCH  10  11
ENDBRANCH   9  10
ENDBRANCH   1   9
BRANCH   5  13
HETATM   13  O   UNK N   1      23.774  12.157  13.444  0.00  0.00    -0.276 OA
HETATM   14  H   UNK N   1      23.341  11.348  13.758  0.00  0.00     0.245 HD
ENDBRANCH   5  13
TORSDOF 4
ENDMDL
MODEL 7
REMARK VINA RESULT:      -4.1     11.128     11.832
REMARK  4 active torsions:
REMARK  status: ('A' for Active; 'I' for Inactive)
REMARK    1  A    between atoms: C_2  and  C_3 
REMARK    2  A    between atoms: C_3  and  C_4 
REMARK    3  A    between atoms: C_4  and  N_5 
REMARK       I    between atoms: N_5  and  C_6 
REMARK       I    between atoms: C_6  and  N_9 
REMARK    4  A    between atoms: N_9  and  O_10 
ROOT
HETATM    1  N   UNK N   1      21.793  19.634   3.111  0.00  0.00    -0.225 N 
HETATM    2  C   UNK N   1      20.544  19.607   2.445  0.00  0.00     0.691 C 
HETATM    3  N   UNK N   1      20.324  20.367   1.432  0.00  0.00    -0.233 N 
ATOM      4  HN  UNK N   1      21.054  20.999   1.100  1.00  0.00     0.174 HD
HETATM    5  N   UNK N   1      19.535  18.729   2.911  0.00  0.00    -0.099 N 
HETATM    6  H   UNK N   1      21.925  19.038   3.883  0.00  0.00     0.177 HD
HETATM    7  H   UNK N   1      19.452  20.341   0.976  0.00  0.00     0.174 HD
HETATM    8  H   UNK N   1      19.716  18.153   3.687  0.00  0.00     0.213 HD
ENDROOT
BRANCH   1   9
HETATM    9  C   UNK N   1      22.880  20.490   2.715  0.00  0.00     0.138 C 
BRANCH   9  10
HETATM   10  C   UNK N   1      24.137  19.986   3.393  0.00  0.00     0.020 C 
BRANCH  10  11
HETATM   11  C   UNK N   1      25.377  20.458   2.668  0.00  0.00    -0.003 C 
HETATM   12  C   UNK N   1      26.564  20.302   3.596  0.00  0.00     0.005 C 
ENDBRANCH  10  11
ENDBRANCH   9  10
ENDBRANCH   1   9
BRANCH   5  13
HETATM   13  O   UNK N   1      18.339  18.671   2.311  0.00  0.00    -0.276 OA
HETATM   14  H   UNK N   1      17.712  19.404   2.409  0.00  0.00     0.245 HD
ENDBRANCH   5  13
TORSDOF 4
ENDMDL
MODEL 8
REMARK VINA RESULT:      -4.1     13.051     13.963
REMARK  4 active torsions:
REMARK  status: ('A' for Active; 'I' for Inactive)
REMARK    1  A    between atoms: C_2  and  C_3 
REMARK    2  A    between atoms: C_3  and  C_4 
REMARK    3  A    between atoms: C_4  and  N_5 
REMARK       I    between atoms: N_5  and  C_6 
REMARK       I    between atoms: C_6  and  N_9 
REMARK    4  A    between atoms: N_9  and  O_10 
ROOT
HETATM    1  N   UNK N   1      35.491  13.633  13.461  0.00  0.00    -0.225 N 
HETATM    2  C   UNK N   1      36.388  14.125  12.482  0.00  0.00     0.691 C 
HETATM    3  N   UNK N   1      37.365  13.401  12.064  0.00  0.00    -0.233 N 
ATOM      4  HN  UNK N   1      37.500  12.462  12.439  1.00  0.00     0.174 HD
HETATM    5  N   UNK N   1      36.194  15.429  11.965  0.00  0.00    -0.099 N 
HETATM    6  H   UNK N   1      34.755  14.216  13.756  0.00  0.00     0.177 HD
HETATM    7  H   UNK N   1      37.982  13.753  11.383  0.00  0.00     0.174 HD
HETATM    8  H   UNK N   1      35.443  15.973  12.293  0.00  0.00     0.213 HD
ENDROOT
BRANCH   1   9
HETATM    9  C   UNK N   1      35.603  12.323  14.046  0.00  0.00     0.138 C 
BRANCH   9  10
HETATM   10  C   UNK N   1      34.483  11.470  13.490  0.00  0.00     0.020 C 
BRANCH  10  11
HETATM   11  C   UNK N   1      33.665  10.849  14.599  0.00  0.00    -0.003 C 
HETATM   12  C   UNK N   1      34.613  10.275  15.631  0.00  0.00     0.005 C 
ENDBRANCH  10  11
ENDBRANCH   9  10
ENDBRANCH   1   9
BRANCH   5  13
HETATM   13  O   UNK N   1      37.018  15.935  11.038  0.00  0.00    -0.276 OA
HETATM   14  H   UNK N   1      37.829  16.393  11.308  0.00  0.00     0.245 HD
ENDBRANCH   5  13
TORSDOF 4
ENDMDL
MODEL 9
REMARK VINA RESULT:      -4.0     12.927     13.886
REMARK  4 active torsions:
REMARK  status: ('A' for Active; 'I' for Inactive)
REMARK    1  A    between atoms: C_2  and  C_3 
REMARK    2  A    between atoms: C_3  and  C_4 
REMARK    3  A    between atoms: C_4  and  N_5 
REMARK       I    between atoms: N_5  and  C_6 
REMARK       I    between atoms: C_6  and  N_9 
REMARK    4  A    between atoms: N_9  and  O_10 
ROOT
HETATM    1  N   UNK N   1      36.233  15.085  12.413  0.00  0.00    -0.225 N 
HETATM    2  C   UNK N   1      35.198  15.434  11.513  0.00  0.00     0.691 C 
HETATM    3  N   UNK N   1      34.302  14.576  11.177  0.00  0.00    -0.233 N 
ATOM      4  HN  UNK N   1      34.333  13.631  11.561  1.00  0.00     0.174 HD
HETATM    5  N   UNK N   1      35.161  16.747  10.983  0.00  0.00    -0.099 N 
HETATM    6  H   UNK N   1      36.901  15.769  12.647  0.00  0.00     0.177 HD
HETATM    7  H   UNK N   1      33.587  14.829  10.550  0.00  0.00     0.174 HD
HETATM    8  H   UNK N   1      35.853  17.395  11.248  0.00  0.00     0.213 HD
ENDROOT
BRANCH   1   9
HETATM    9  C   UNK N   1      36.356  13.778  13.004  0.00  0.00     0.138 C 
BRANCH   9  10
HETATM   10  C   UNK N   1      36.135  13.922  14.495  0.00  0.00     0.020 C 
BRANCH  10  11
HETATM   11  C   UNK N   1      35.244  12.823  15.026  0.00  0.00    -0.003 C 
HETATM   12  C   UNK N   1      34.804  13.195  16.427  0.00  0.00     0.005 C 
ENDBRANCH  10  11
ENDBRANCH   9  10
ENDBRANCH   1   9
BRANCH   5  13
HETATM   13  O   UNK N   1      34.201  17.121  10.128  0.00  0.00    -0.276 OA
HETATM   14  H   UNK N   1      33.269  16.965  10.347  0.00  0.00     0.245 HD
ENDBRANCH   5  13
TORSDOF 4
ENDMDL
