MODEL 1
REMARK VINA RESULT:      -4.5      0.000      0.000
REMARK  6 active torsions:
REMARK  status: ('A' for Active; 'I' for Inactive)
REMARK    1  A    between atoms: O_1  and  C_2 
REMARK    2  A    between atoms: C_2  and  C_4 
REMARK    3  A    between atoms: C_4  and  C_6 
REMARK    4  A    between atoms: C_6  and  P_7 
REMARK    5  A    between atoms: P_7  and  O_8 
REMARK    6  A    between atoms: P_7  and  O_9 
ROOT
HETATM    1  C   UNK N   1      34.553  16.199   9.650  0.00  0.00     0.215 C 
ENDROOT
BRANCH   1   2
HETATM    2  C   UNK N   1      33.777  17.159   8.800  0.00  0.00     0.232 C 
HETATM    3  O   UNK N   1      32.556  17.106   8.762  0.00  0.00    -0.285 OA
BRANCH   2   4
HETATM    4  C   UNK N   1      34.498  18.134   7.965  0.00  0.00     0.214 C 
HETATM    5  O   UNK N   1      34.436  18.065   6.747  0.00  0.00    -0.644 OA
BRANCH   4   6
HETATM    6  O   UNK N   1      35.214  19.119   8.540  0.00  0.00    -0.771 OA
HETATM    7  H   UNK N   1      36.133  19.013   8.687  0.00  0.00     0.167 HD
ENDBRANCH   4   6
ENDBRANCH   2   4
ENDBRANCH   1   2
BRANCH   1   8
HETATM    8  P   UNK N   1      33.885  14.465   9.578  0.00  0.00     0.243 P 
HETATM    9  O   UNK N   1      34.583  13.445  10.515  0.00  0.00    -0.653 OA
BRANCH   8  10
HETATM   10  O   UNK N   1      32.279  13.897   9.244  0.00  0.00    -0.329 OA
HETATM   11  H   UNK N   1      31.769  13.234   9.734  0.00  0.00     0.220 HD
ENDBRANCH   8  10
BRANCH   8  12
HETATM   12  O   UNK N   1      33.118  15.129  10.979  0.00  0.00    -0.329 OA
HETATM   13  H   UNK N   1      33.264  15.245  11.931  0.00  0.00     0.220 HD
ENDBRANCH   8  12
ENDBRANCH   1   8
TORSDOF 6
ENDMDL
MODEL 2
REMARK VINA RESULT:      -4.5      1.098      1.531
REMARK  6 active torsions:
REMARK  status: ('A' for Active; 'I' for Inactive)
REMARK    1  A    between atoms: O_1  and  C_2 
REMARK    2  A    between atoms: C_2  and  C_4 
REMARK    3  A    between atoms: C_4  and  C_6 
REMARK    4  A    between atoms: C_6  and  P_7 
REMARK    5  A    between atoms: P_7  and  O_8 
REMARK    6  A    between atoms: P_7  and  O_9 
ROOT
HETATM    1  C   UNK N   1      33.028  16.418   8.809  0.00  0.00     0.215 C 
ENDROOT
BRANCH   1   2
HETATM    2  C   UNK N   1      34.226  17.262   9.120  0.00  0.00     0.232 C 
HETATM    3  O   UNK N   1      34.800  17.152  10.194  0.00  0.00    -0.285 OA
BRANCH   2   4
HETATM    4  C   UNK N   1      34.678  18.268   8.145  0.00  0.00     0.214 C 
HETATM    5  O   UNK N   1      35.301  19.250   8.518  0.00  0.00    -0.644 OA
BRANCH   4   6
HETATM    6  O   UNK N   1      34.421  18.101   6.832  0.00  0.00    -0.771 OA
HETATM    7  H   UNK N   1      33.841  18.684   6.385  0.00  0.00     0.167 HD
ENDBRANCH   4   6
ENDBRANCH   2   4
ENDBRANCH   1   2
BRANCH   1   8
HETATM    8  P   UNK N   1      33.372  14.595   8.937  0.00  0.00     0.243 P 
HETATM    9  O   UNK N   1      34.774  14.220   9.483  0.00  0.00    -0.653 OA
BRANCH   8  10
HETATM   10  O   UNK N   1      32.291  13.270   9.239  0.00  0.00    -0.329 OA
HETATM   11  H   UNK N   1      31.816  13.066  10.059  0.00  0.00     0.220 HD
ENDBRANCH   8  10
BRANCH   8  12
HETATM   12  O   UNK N   1      32.930  15.031  10.552  0.00  0.00    -0.329 OA
HETATM   13  H   UNK N   1      33.332  15.286  11.397  0.00  0.00     0.220 HD
ENDBRANCH   8  12
ENDBRANCH   1   8
TORSDOF 6
ENDMDL
MODEL 3
REMARK VINA RESULT:      -4.4     15.170     15.757
REMARK  6 active torsions:
REMARK  status: ('A' for Active; 'I' for Inactive)
REMARK    1  A    between atoms: O_1  and  C_2 
REMARK    2  A    between atoms: C_2  and  C_4 
REMARK    3  A    between atoms: C_4  and  C_6 
REMARK    4  A    between atoms: C_6  and  P_7 
REMARK    5  A    between atoms: P_7  and  O_8 
REMARK    6  A    between atoms: P_7  and  O_9 
ROOT
HETATM    1  C   UNK N   1      20.339  18.197   2.157  0.00  0.00     0.215 C 
ENDROOT
BRANCH   1   2
HETATM    2  C   UNK N   1      20.720  19.591   1.763  0.00  0.00     0.232 C 
HETATM    3  O   UNK N   1      20.911  19.875   0.590  0.00  0.00    -0.285 OA
BRANCH   2   4
HETATM    4  C   UNK N   1      20.920  20.610   2.808  0.00  0.00     0.214 C 
HETATM    5  O   UNK N   1      20.361  20.500   3.888  0.00  0.00    -0.644 OA
BRANCH   4   6
HETATM    6  O   UNK N   1      21.735  21.658   2.584  0.00  0.00    -0.771 OA
HETATM    7  H   UNK N   1      22.505  21.780   3.103  0.00  0.00     0.167 HD
ENDBRANCH   4   6
ENDBRANCH   2   4
ENDBRANCH   1   2
BRANCH   1   8
HETATM    8  P   UNK N   1      19.932  17.118   0.696  0.00  0.00     0.243 P 
HETATM    9  O   UNK N   1      20.929  15.961   0.428  0.00  0.00    -0.653 OA
BRANCH   8  10
HETATM   10  O   UNK N   1      18.394  16.691   0.014  0.00  0.00    -0.329 OA
HETATM   11  H   UNK N   1      18.223  16.215  -0.813  0.00  0.00     0.220 HD
ENDBRANCH   8  10
BRANCH   8  12
HETATM   12  O   UNK N   1      19.337  16.208   2.041  0.00  0.00    -0.329 OA
HETATM   13  H   UNK N   1      19.654  15.659   2.776  0.00  0.00     0.220 HD
ENDBRANCH   8  12
ENDBRANCH   1   8
TORSDOF 6
ENDMDL
MODEL 4
REMARK VINA RESULT:      -4.4      1.867      4.500
REMARK  6 active torsions:
REMARK  status: ('A' for Active; 'I' for Inactive)
REMARK    1  A    between atoms: O_1  and  C_2 
REMARK    2  A    between atoms: C_2  and  C_4 
REMARK    3  A    between atoms: C_4  and  C_6 
REMARK    4  A    between atoms: C_6  and  P_7 
REMARK    5  A    between atoms: P_7  and  O_8 
REMARK    6  A    between atoms: P_7  and  O_9 
ROOT
HETATM    1  C   UNK N   1      34.418  16.088   8.855  0.00  0.00     0.215 C 
ENDROOT
BRANCH   1   2
HETATM    2  C   UNK N   1      34.976  16.254  10.235  0.00  0.00     0.232 C 
HETATM    3  O   UNK N   1      35.695  17.206  10.503  0.00  0.00    -0.285 OA
BRANCH   2   4
HETATM    4  C   UNK N   1      34.700  15.231  11.257  0.00  0.00     0.214 C 
HETATM    5  O   UNK N   1      35.581  14.875  12.024  0.00  0.00    -0.644 OA
BRANCH   4   6
HETATM    6  O   UNK N   1      33.469  14.695  11.364  0.00  0.00    -0.771 OA
HETATM    7  H   UNK N   1      33.359  13.767  11.419  0.00  0.00     0.167 HD
ENDBRANCH   4   6
ENDBRANCH   2   4
ENDBRANCH   1   2
BRANCH   1   8
HETATM    8  P   UNK N   1      34.366  17.682   7.897  0.00  0.00     0.243 P 
HETATM    9  O   UNK N   1      33.178  17.825   6.910  0.00  0.00    -0.653 OA
BRANCH   8  10
HETATM   10  O   UNK N   1      34.913  19.269   8.337  0.00  0.00    -0.329 OA
HETATM   11  H   UNK N   1      34.539  20.122   8.066  0.00  0.00     0.220 HD
ENDBRANCH   8  10
BRANCH   8  12
HETATM   12  O   UNK N   1      33.244  17.955   9.185  0.00  0.00    -0.329 OA
HETATM   13  H   UNK N   1      33.177  18.413  10.038  0.00  0.00     0.220 HD
ENDBRANCH   8  12
ENDBRANCH   1   8
TORSDOF 6
ENDMDL
MODEL 5
REMARK VINA RESULT:      -4.3      1.633      2.324
REMARK  6 active torsions:
REMARK  status: ('A' for Active; 'I' for Inactive)
REMARK    1  A    between atoms: O_1  and  C_2 
REMARK    2  A    between atoms: C_2  and  C_4 
REMARK    3  A    between atoms: C_4  and  C_6 
REMARK    4  A    between atoms: C_6  and  P_7 
REMARK    5  A    between atoms: P_7  and  O_8 
REMARK    6  A    between atoms: P_7  and  O_9 
ROOT
HETATM    1  C   UNK N   1      33.211  17.315   8.741  0.00  0.00     0.215 C 
ENDROOT
BRANCH   1   2
HETATM    2  C   UNK N   1      34.181  17.890   7.754  0.00  0.00     0.232 C 
HETATM    3  O   UNK N   1      34.887  18.840   8.059  0.00  0.00    -0.285 OA
BRANCH   2   4
HETATM    4  C   UNK N   1      34.240  17.338   6.390  0.00  0.00     0.214 C 
HETATM    5  O   UNK N   1      33.614  17.868   5.485  0.00  0.00    -0.644 OA
BRANCH   4   6
HETATM    6  O   UNK N   1      35.000  16.257   6.130  0.00  0.00    -0.771 OA
HETATM    7  H   UNK N   1      34.736  15.638   5.479  0.00  0.00     0.167 HD
ENDBRANCH   4   6
ENDBRANCH   2   4
ENDBRANCH   1   2
BRANCH   1   8
HETATM    8  P   UNK N   1      33.824  15.745   9.528  0.00  0.00     0.243 P 
HETATM    9  O   UNK N   1      35.226  15.272   9.064  0.00  0.00    -0.653 OA
BRANCH   8  10
HETATM   10  O   UNK N   1      33.515  15.090  11.106  0.00  0.00    -0.329 OA
HETATM   11  H   UNK N   1      34.077  14.491  11.621  0.00  0.00     0.220 HD
ENDBRANCH   8  10
BRANCH   8  12
HETATM   12  O   UNK N   1      34.614  16.983  10.442  0.00  0.00    -0.329 OA
HETATM   13  H   UNK N   1      35.349  17.613  10.374  0.00  0.00     0.220 HD
ENDBRANCH   8  12
ENDBRANCH   1   8
TORSDOF 6
ENDMDL
MODEL 6
REMARK VINA RESULT:      -4.3      2.391      3.431
REMARK  6 active torsions:
REMARK  status: ('A' for Active; 'I' for Inactive)
REMARK    1  A    between atoms: O_1  and  C_2 
REMARK    2  A    between atoms: C_2  and  C_4 
REMARK    3  A    between atoms: C_4  and  C_6 
REMARK    4  A    between atoms: C_6  and  P_7 
REMARK    5  A    between atoms: P_7  and  O_8 
REMARK    6  A    between atoms: P_7  and  O_9 
ROOT
HETATM    1  C   UNK N   1      34.499  14.030  10.165  0.00  0.00     0.215 C 
ENDROOT
BRANCH   1   2
HETATM    2  C   UNK N   1      35.068  14.822  11.303  0.00  0.00     0.232 C 
HETATM    3  O   UNK N   1      34.860  14.485  12.459  0.00  0.00    -0.285 OA
BRANCH   2   4
HETATM    4  C   UNK N   1      35.834  16.047  11.020  0.00  0.00     0.214 C 
HETATM    5  O   UNK N   1      35.271  17.130  10.983  0.00  0.00    -0.644 OA
BRANCH   4   6
HETATM    6  O   UNK N   1      37.165  15.982  10.819  0.00  0.00    -0.771 OA
HETATM    7  H   UNK N   1      37.568  16.493  10.147  0.00  0.00     0.167 HD
ENDBRANCH   4   6
ENDBRANCH   2   4
ENDBRANCH   1   2
BRANCH   1   8
HETATM    8  P   UNK N   1      33.263  14.990   9.160  0.00  0.00     0.243 P 
HETATM    9  O   UNK N   1      32.035  14.182   8.667  0.00  0.00    -0.653 OA
BRANCH   8  10
HETATM   10  O   UNK N   1      32.826  16.669   9.230  0.00  0.00    -0.329 OA
HETATM   11  H   UNK N   1      31.983  17.075   8.975  0.00  0.00     0.220 HD
ENDBRANCH   8  10
BRANCH   8  12
HETATM   12  O   UNK N   1      32.561  14.971  10.740  0.00  0.00    -0.329 OA
HETATM   13  H   UNK N   1      31.707  14.837  11.181  0.00  0.00     0.220 HD
ENDBRANCH   8  12
ENDBRANCH   1   8
TORSDOF 6
ENDMDL
MODEL 7
REMARK VINA RESULT:      -4.3     14.797     15.497
REMARK  6 active torsions:
REMARK  status: ('A' for Active; 'I' for Inactive)
REMARK    1  A    between atoms: O_1  and  C_2 
REMARK    2  A    between atoms: C_2  and  C_4 
REMARK    3  A    between atoms: C_4  and  C_6 
REMARK    4  A    between atoms: C_6  and  P_7 
REMARK    5  A    between atoms: P_7  and  O_8 
REMARK    6  A    between atoms: P_7  and  O_9 
ROOT
HETATM    1  C   UNK N   1      20.923  18.595   2.925  0.00  0.00     0.215 C 
ENDROOT
BRANCH   1   2
HETATM    2  C   UNK N   1      20.735  19.053   1.511  0.00  0.00     0.232 C 
HETATM    3  O   UNK N   1      20.459  18.251   0.631  0.00  0.00    -0.285 OA
BRANCH   2   4
HETATM    4  C   UNK N   1      20.942  20.472   1.175  0.00  0.00     0.214 C 
HETATM    5  O   UNK N   1      21.290  21.264   2.037  0.00  0.00    -0.644 OA
BRANCH   4   6
HETATM    6  O   UNK N   1      20.767  20.900  -0.090  0.00  0.00    -0.771 OA
HETATM    7  H   UNK N   1      20.405  20.329  -0.738  0.00  0.00     0.167 HD
ENDBRANCH   4   6
ENDBRANCH   2   4
ENDBRANCH   1   2
BRANCH   1   8
HETATM    8  P   UNK N   1      20.203  16.910   3.243  0.00  0.00     0.243 P 
HETATM    9  O   UNK N   1      19.659  16.679   4.676  0.00  0.00    -0.653 OA
BRANCH   8  10
HETATM   10  O   UNK N   1      19.395  15.817   2.163  0.00  0.00    -0.329 OA
HETATM   11  H   UNK N   1      19.284  15.903   1.204  0.00  0.00     0.220 HD
ENDBRANCH   8  10
BRANCH   8  12
HETATM   12  O   UNK N   1      18.809  17.887   2.939  0.00  0.00    -0.329 OA
HETATM   13  H   UNK N   1      17.928  18.072   3.302  0.00  0.00     0.220 HD
ENDBRANCH   8  12
ENDBRANCH   1   8
TORSDOF 6
ENDMDL
MODEL 8
REMARK VINA RESULT:      -4.2      1.799      2.518
REMARK  6 active torsions:
REMARK  status: ('A' for Active; 'I' for Inactive)
REMARK    1  A    between atoms: O_1  and  C_2 
REMARK    2  A    between atoms: C_2  and  C_4 
REMARK    3  A    between atoms: C_4  and  C_6 
REMARK    4  A    between atoms: C_6  and  P_7 
REMARK    5  A    between atoms: P_7  and  O_8 
REMARK    6  A    between atoms: P_7  and  O_9 
ROOT
HETATM    1  C   UNK N   1      35.178  16.897  10.319  0.00  0.00     0.215 C 
ENDROOT
BRANCH   1   2
HETATM    2  C   UNK N   1      34.321  17.157   9.117  0.00  0.00     0.232 C 
HETATM    3  O   UNK N   1      33.345  16.458   8.888  0.00  0.00    -0.285 OA
BRANCH   2   4
HETATM    4  C   UNK N   1      34.695  18.228   8.178  0.00  0.00     0.214 C 
HETATM    5  O   UNK N   1      35.295  19.214   8.578  0.00  0.00    -0.644 OA
BRANCH   4   6
HETATM    6  O   UNK N   1      34.394  18.117   6.870  0.00  0.00    -0.771 OA
HETATM    7  H   UNK N   1      34.577  17.325   6.407  0.00  0.00     0.167 HD
ENDBRANCH   4   6
ENDBRANCH   2   4
ENDBRANCH   1   2
BRANCH   1   8
HETATM    8  P   UNK N   1      35.729  15.125  10.446  0.00  0.00     0.243 P 
HETATM    9  O   UNK N   1      36.459  14.565   9.198  0.00  0.00    -0.653 OA
BRANCH   8  10
HETATM   10  O   UNK N   1      36.220  14.203  11.833  0.00  0.00    -0.329 OA
HETATM   11  H   UNK N   1      36.649  14.527  12.640  0.00  0.00     0.220 HD
ENDBRANCH   8  10
BRANCH   8  12
HETATM   12  O   UNK N   1      37.167  16.016  10.808  0.00  0.00    -0.329 OA
HETATM   13  H   UNK N   1      37.478  16.743  11.370  0.00  0.00     0.220 HD
ENDBRANCH   8  12
ENDBRANCH   1   8
TORSDOF 6
ENDMDL
MODEL 9
REMARK VINA RESULT:      -4.2     11.018     12.957
REMARK  6 active torsions:
REMARK  status: ('A' for Active; 'I' for Inactive)
REMARK    1  A    between atoms: O_1  and  C_2 
REMARK    2  A    between atoms: C_2  and  C_4 
REMARK    3  A    between atoms: C_4  and  C_6 
REMARK    4  A    between atoms: C_6  and  P_7 
REMARK    5  A    between atoms: P_7  and  O_8 
REMARK    6  A    between atoms: P_7  and  O_9 
ROOT
HETATM    1  C   UNK N   1      42.677  22.877   2.426  0.00  0.00     0.215 C 
ENDROOT
BRANCH   1   2
HETATM    2  C   UNK N   1      42.208  21.537   2.906  0.00  0.00     0.232 C 
HETATM    3  O   UNK N   1      42.857  20.912   3.731  0.00  0.00    -0.285 OA
BRANCH   2   4
HETATM    4  C   UNK N   1      40.985  20.950   2.334  0.00  0.00     0.214 C 
HETATM    5  O   UNK N   1      41.062  20.088   1.473  0.00  0.00    -0.644 OA
BRANCH   4   6
HETATM    6  O   UNK N   1      39.774  21.348   2.771  0.00  0.00    -0.771 OA
HETATM    7  H   UNK N   1      39.364  20.913   3.491  0.00  0.00     0.167 HD
ENDBRANCH   4   6
ENDBRANCH   2   4
ENDBRANCH   1   2
BRANCH   1   8
HETATM    8  P   UNK N   1      44.442  23.236   2.891  0.00  0.00     0.243 P 
HETATM    9  O   UNK N   1      44.884  24.714   2.731  0.00  0.00    -0.653 OA
BRANCH   8  10
HETATM   10  O   UNK N   1      45.463  22.480   4.074  0.00  0.00    -0.329 OA
HETATM   11  H   UNK N   1      45.195  21.930   4.826  0.00  0.00     0.220 HD
ENDBRANCH   8  10
BRANCH   8  12
HETATM   12  O   UNK N   1      43.554  23.721   4.294  0.00  0.00    -0.329 OA
HETATM   13  H   UNK N   1      42.849  24.331   4.563  0.00  0.00     0.220 HD
ENDBRANCH   8  12
ENDBRANCH   1   8
TORSDOF 6
ENDMDL
