REMARK  4 active torsions:
REMARK  status: ('A' for Active; 'I' for Inactive)
REMARK    1  A    between atoms: C_5  and  C_3 
REMARK    2  A    between atoms: O_22  and  C_3 
REMARK    3  A    between atoms: O_21  and  C_6 
REMARK    4  A    between atoms: O_22  and  C_9 
REMARK       I    between atoms: N_11  and  C_10 
ROOT
HETATM    1  C   UNK N   1      -1.511  -1.738   0.030  0.00  0.00     0.182 A 
HETATM    2  C   UNK N   1       0.510  -1.053   0.100  0.00  0.00     0.130 A 
HETATM    3  C   UNK N   1       0.509  -2.394  -0.024  0.00  0.00     0.153 A 
HETATM    4  C   UNK N   1       1.719  -0.352   0.176  0.00  0.00     0.188 A 
HETATM    5  C   UNK N   1       2.841  -2.459  -0.018  0.00  0.00     0.679 A 
HETATM    6  N   UNK N   1       3.936  -3.116  -0.072  0.00  0.00    -0.234 N 
ATOM      7  HN  UNK N   1       4.828  -2.621  -0.072  1.00  0.00     0.174 HD
HETATM    8  N   UNK N   1      -0.756  -0.610   0.137  0.00  0.00    -0.346 N 
ATOM      9  HN  UNK N   1      -1.080   0.353   0.225  1.00  0.00     0.167 HD
HETATM   10  N   UNK N   1      -0.745  -2.858  -0.070  0.00  0.00    -0.336 N 
HETATM   11  N   UNK N   1       1.648  -3.123  -0.085  0.00  0.00    -0.174 N 
HETATM   12  N   UNK N   1       2.870  -1.090   0.112  0.00  0.00    -0.168 N 
ATOM     13  HN  UNK N   1       3.771  -0.613   0.162  1.00  0.00     0.186 HD
HETATM   14  H   UNK N   1       3.920  -4.099  -0.113  0.00  0.00     0.174 HD
HETATM   15  H   UNK N   1      -1.044  -3.792  -0.156  0.00  0.00     0.168 HD
HETATM   16  H   UNK N   1       1.618  -4.102  -0.174  0.00  0.00     0.186 HD
ENDROOT
BRANCH   4  17
HETATM   17  O   UNK N   1       1.795   0.999   0.320  0.00  0.00    -0.332 OA
BRANCH  17  18
HETATM   18  C   UNK N   1       0.692   1.827   0.376  0.00  0.00     0.202 C 
BRANCH  18  19
HETATM   19  C   UNK N   1       0.969   3.156  -0.314  0.00  0.00     0.108 A 
HETATM   20  C   UNK N   1       1.800   4.093   0.579  0.00  0.00     0.035 A 
HETATM   21  C   UNK N   1       0.981   5.386   0.703  0.00  0.00     0.086 A 
HETATM   22  C   UNK N   1      -0.262   5.021  -0.009  0.00  0.00     0.111 A 
HETATM   23  N   UNK N   1      -0.258   3.863  -0.531  0.00  0.00    -0.368 N 
ATOM     24  HN  UNK N   1      -1.046   3.476  -1.049  1.00  0.00     0.161 HD
BRANCH  22  25
HETATM   25  O   UNK N   1      -1.320   5.845  -0.121  0.00  0.00    -0.350 OA
HETATM   26  H   UNK N   1      -1.191   6.770  -0.198  0.00  0.00     0.219 HD
ENDBRANCH  22  25
ENDBRANCH  18  19
ENDBRANCH  17  18
ENDBRANCH   4  17
TORSDOF 4
