MODEL 1
REMARK VINA RESULT:      -4.1      0.000      0.000
REMARK  1 active torsions:
REMARK  status: ('A' for Active; 'I' for Inactive)
REMARK    1  A    between atoms: C_2  and  N_3 
ROOT
HETATM    1  N   UNK N   1      26.020  25.724  -4.260  0.00  0.00    -0.282 N 
HETATM    2  C   UNK N   1      25.461  25.739  -5.478  0.00  0.00     0.250 A 
HETATM    3  O   UNK N   1      25.388  24.764  -6.209  0.00  0.00    -0.268 OA
HETATM    4  C   UNK N   1      24.959  27.083  -5.795  0.00  0.00     0.080 A 
HETATM    5  C   UNK N   1      25.241  27.850  -4.728  0.00  0.00     0.080 A 
HETATM    6  C   UNK N   1      25.916  26.973  -3.759  0.00  0.00     0.250 A 
HETATM    7  O   UNK N   1      26.322  27.322  -2.662  0.00  0.00    -0.268 OA
ENDROOT
BRANCH   1   8
HETATM    8  C   UNK N   1      26.609  24.531  -3.664  0.00  0.00     0.131 C 
HETATM    9  C   UNK N   1      28.104  24.375  -3.890  0.00  0.00     0.027 C 
ENDBRANCH   1   8
TORSDOF 1
ENDMDL
MODEL 2
REMARK VINA RESULT:      -4.0      0.081      2.427
REMARK  1 active torsions:
REMARK  status: ('A' for Active; 'I' for Inactive)
REMARK    1  A    between atoms: C_2  and  N_3 
ROOT
HETATM    1  N   UNK N   1      26.051  25.753  -4.255  0.00  0.00    -0.282 N 
HETATM    2  C   UNK N   1      25.928  26.993  -3.763  0.00  0.00     0.250 A 
HETATM    3  O   UNK N   1      26.353  27.342  -2.672  0.00  0.00    -0.268 OA
HETATM    4  C   UNK N   1      25.217  27.856  -4.717  0.00  0.00     0.080 A 
HETATM    5  C   UNK N   1      24.930  27.082  -5.778  0.00  0.00     0.080 A 
HETATM    6  C   UNK N   1      25.466  25.747  -5.471  0.00  0.00     0.250 A 
HETATM    7  O   UNK N   1      25.394  24.776  -6.207  0.00  0.00    -0.268 OA
ENDROOT
BRANCH   1   8
HETATM    8  C   UNK N   1      26.712  24.669  -3.538  0.00  0.00     0.131 C 
HETATM    9  C   UNK N   1      28.152  24.412  -3.954  0.00  0.00     0.027 C 
ENDBRANCH   1   8
TORSDOF 1
ENDMDL
MODEL 3
REMARK VINA RESULT:      -4.0     19.316     20.534
REMARK  1 active torsions:
REMARK  status: ('A' for Active; 'I' for Inactive)
REMARK    1  A    between atoms: C_2  and  N_3 
ROOT
HETATM    1  N   UNK N   1      23.265  12.151   9.887  0.00  0.00    -0.282 N 
HETATM    2  C   UNK N   1      23.579  12.037  11.185  0.00  0.00     0.250 A 
HETATM    3  O   UNK N   1      24.719  11.899  11.603  0.00  0.00    -0.268 OA
HETATM    4  C   UNK N   1      22.368  12.102  12.015  0.00  0.00     0.080 A 
HETATM    5  C   UNK N   1      21.340  12.257  11.164  0.00  0.00     0.080 A 
HETATM    6  C   UNK N   1      21.924  12.286   9.814  0.00  0.00     0.250 A 
HETATM    7  O   UNK N   1      21.291  12.414   8.778  0.00  0.00    -0.268 OA
ENDROOT
BRANCH   1   8
HETATM    8  C   UNK N   1      24.255  12.123   8.818  0.00  0.00     0.131 C 
HETATM    9  C   UNK N   1      24.851  13.475   8.463  0.00  0.00     0.027 C 
ENDBRANCH   1   8
TORSDOF 1
ENDMDL
MODEL 4
REMARK VINA RESULT:      -3.9     14.205     15.646
REMARK  1 active torsions:
REMARK  status: ('A' for Active; 'I' for Inactive)
REMARK    1  A    between atoms: C_2  and  N_3 
ROOT
HETATM    1  N   UNK N   1      32.348  17.092   6.307  0.00  0.00    -0.282 N 
HETATM    2  C   UNK N   1      31.304  17.132   7.147  0.00  0.00     0.250 A 
HETATM    3  O   UNK N   1      30.198  16.688   6.884  0.00  0.00    -0.268 OA
HETATM    4  C   UNK N   1      31.686  17.780   8.409  0.00  0.00     0.080 A 
HETATM    5  C   UNK N   1      32.981  18.116   8.281  0.00  0.00     0.080 A 
HETATM    6  C   UNK N   1      33.390  17.672   6.939  0.00  0.00     0.250 A 
HETATM    7  O   UNK N   1      34.507  17.808   6.466  0.00  0.00    -0.268 OA
ENDROOT
BRANCH   1   8
HETATM    8  C   UNK N   1      32.281  16.509   4.973  0.00  0.00     0.131 C 
HETATM    9  C   UNK N   1      32.181  17.516   3.839  0.00  0.00     0.027 C 
ENDBRANCH   1   8
TORSDOF 1
ENDMDL
MODEL 5
REMARK VINA RESULT:      -3.9     14.208     15.710
REMARK  1 active torsions:
REMARK  status: ('A' for Active; 'I' for Inactive)
REMARK    1  A    between atoms: C_2  and  N_3 
ROOT
HETATM    1  N   UNK N   1      32.379  17.089   6.311  0.00  0.00    -0.282 N 
HETATM    2  C   UNK N   1      33.398  17.678   6.954  0.00  0.00     0.250 A 
HETATM    3  O   UNK N   1      34.515  17.818   6.482  0.00  0.00    -0.268 OA
HETATM    4  C   UNK N   1      32.975  18.120   8.290  0.00  0.00     0.080 A 
HETATM    5  C   UNK N   1      31.681  17.773   8.407  0.00  0.00     0.080 A 
HETATM    6  C   UNK N   1      31.316  17.118   7.141  0.00  0.00     0.250 A 
HETATM    7  O   UNK N   1      30.212  16.667   6.879  0.00  0.00    -0.268 OA
ENDROOT
BRANCH   1   8
HETATM    8  C   UNK N   1      32.491  16.546   4.963  0.00  0.00     0.131 C 
HETATM    9  C   UNK N   1      32.185  17.533   3.848  0.00  0.00     0.027 C 
ENDBRANCH   1   8
TORSDOF 1
ENDMDL
MODEL 6
REMARK VINA RESULT:      -3.9     19.293     20.531
REMARK  1 active torsions:
REMARK  status: ('A' for Active; 'I' for Inactive)
REMARK    1  A    between atoms: C_2  and  N_3 
ROOT
HETATM    1  N   UNK N   1      22.174  12.780  10.097  0.00  0.00    -0.282 N 
HETATM    2  C   UNK N   1      23.513  12.764  10.046  0.00  0.00     0.250 A 
HETATM    3  O   UNK N   1      24.167  13.194   9.108  0.00  0.00    -0.268 OA
HETATM    4  C   UNK N   1      24.066  12.161  11.266  0.00  0.00     0.080 A 
HETATM    5  C   UNK N   1      23.011  11.827  12.029  0.00  0.00     0.080 A 
HETATM    6  C   UNK N   1      21.814  12.227  11.274  0.00  0.00     0.250 A 
HETATM    7  O   UNK N   1      20.663  12.079  11.654  0.00  0.00    -0.268 OA
ENDROOT
BRANCH   1   8
HETATM    8  C   UNK N   1      21.338  13.318   9.030  0.00  0.00     0.131 C 
HETATM    9  C   UNK N   1      20.783  14.709   9.292  0.00  0.00     0.027 C 
ENDBRANCH   1   8
TORSDOF 1
ENDMDL
MODEL 7
REMARK VINA RESULT:      -3.9     23.574     25.196
REMARK  1 active torsions:
REMARK  status: ('A' for Active; 'I' for Inactive)
REMARK    1  A    between atoms: C_2  and  N_3 
ROOT
HETATM    1  N   UNK N   1      36.024  13.591  14.673  0.00  0.00    -0.282 N 
HETATM    2  C   UNK N   1      34.948  12.898  15.070  0.00  0.00     0.250 A 
HETATM    3  O   UNK N   1      34.228  12.261  14.317  0.00  0.00    -0.268 OA
HETATM    4  C   UNK N   1      34.768  13.018  16.523  0.00  0.00     0.080 A 
HETATM    5  C   UNK N   1      35.770  13.800  16.961  0.00  0.00     0.080 A 
HETATM    6  C   UNK N   1      36.561  14.158  15.774  0.00  0.00     0.250 A 
HETATM    7  O   UNK N   1      37.557  14.863  15.781  0.00  0.00    -0.268 OA
ENDROOT
BRANCH   1   8
HETATM    8  C   UNK N   1      36.462  13.664  13.284  0.00  0.00     0.131 C 
HETATM    9  C   UNK N   1      35.949  14.871  12.515  0.00  0.00     0.027 C 
ENDBRANCH   1   8
TORSDOF 1
ENDMDL
MODEL 8
REMARK VINA RESULT:      -3.8     26.281     27.618
REMARK  1 active torsions:
REMARK  status: ('A' for Active; 'I' for Inactive)
REMARK    1  A    between atoms: C_2  and  N_3 
ROOT
HETATM    1  N   UNK N   1      35.301  12.793  17.265  0.00  0.00    -0.282 N 
HETATM    2  C   UNK N   1      35.313  11.497  17.609  0.00  0.00     0.250 A 
HETATM    3  O   UNK N   1      35.340  10.577  16.807  0.00  0.00    -0.268 OA
HETATM    4  C   UNK N   1      35.289  11.354  19.071  0.00  0.00     0.080 A 
HETATM    5  C   UNK N   1      35.262  12.602  19.569  0.00  0.00     0.080 A 
HETATM    6  C   UNK N   1      35.270  13.507  18.409  0.00  0.00     0.250 A 
HETATM    7  O   UNK N   1      35.252  14.726  18.471  0.00  0.00    -0.268 OA
ENDROOT
BRANCH   1   8
HETATM    8  C   UNK N   1      35.319  13.254  15.882  0.00  0.00     0.131 C 
HETATM    9  C   UNK N   1      36.689  13.662  15.363  0.00  0.00     0.027 C 
ENDBRANCH   1   8
TORSDOF 1
ENDMDL
MODEL 9
REMARK VINA RESULT:      -3.8     18.762     19.973
REMARK  1 active torsions:
REMARK  status: ('A' for Active; 'I' for Inactive)
REMARK    1  A    between atoms: C_2  and  N_3 
ROOT
HETATM    1  N   UNK N   1      21.972  13.439   9.650  0.00  0.00    -0.282 N 
HETATM    2  C   UNK N   1      20.980  12.951  10.408  0.00  0.00     0.250 A 
HETATM    3  O   UNK N   1      19.797  13.193  10.225  0.00  0.00    -0.268 OA
HETATM    4  C   UNK N   1      21.521  12.094  11.472  0.00  0.00     0.080 A 
HETATM    5  C   UNK N   1      22.855  12.098  11.313  0.00  0.00     0.080 A 
HETATM    6  C   UNK N   1      23.129  12.957  10.151  0.00  0.00     0.250 A 
HETATM    7  O   UNK N   1      24.238  13.199   9.703  0.00  0.00    -0.268 OA
ENDROOT
BRANCH   1   8
HETATM    8  C   UNK N   1      21.750  14.323   8.512  0.00  0.00     0.131 C 
HETATM    9  C   UNK N   1      21.511  13.614   7.189  0.00  0.00     0.027 C 
ENDBRANCH   1   8
TORSDOF 1
ENDMDL
