REMARK  4 active torsions:
REMARK  status: ('A' for Active; 'I' for Inactive)
REMARK    1  A    between atoms: O_1  and  C_2 
REMARK    2  A    between atoms: C_2  and  C_3 
REMARK    3  A    between atoms: C_3  and  C_4 
REMARK    4  A    between atoms: C_4  and  O_5 
ROOT
HETATM    1  C   UNK N   1       1.190  -0.825   0.000  0.00  0.00     0.052 C 
ENDROOT
BRANCH   1   2
HETATM    2  C   UNK N   1       2.704  -0.786   0.000  0.00  0.00     0.166 C 
BRANCH   2   3
HETATM    3  O   UNK N   1       3.208  -2.084  -0.000  0.00  0.00    -0.401 OA
HETATM    4  H   UNK N   1       2.600  -2.841  -0.000  0.00  0.00     0.209 HD
ENDBRANCH   2   3
ENDBRANCH   1   2
BRANCH   1   5
HETATM    5  C   UNK N   1       0.667   0.596  -0.000  0.00  0.00     0.166 C 
BRANCH   5   6
HETATM    6  O   UNK N   1      -0.726   0.585   0.000  0.00  0.00    -0.401 OA
HETATM    7  H   UNK N   1      -1.218   1.421   0.000  0.00  0.00     0.209 HD
ENDBRANCH   5   6
ENDBRANCH   1   5
TORSDOF 4
