MODEL 1
REMARK VINA RESULT:      -6.7      0.000      0.000
REMARK  28 active torsions:
REMARK  status: ('A' for Active; 'I' for Inactive)
REMARK    1  A    between atoms: C_2  and  C_3 
REMARK    2  A    between atoms: C_3  and  C_4 
REMARK    3  A    between atoms: C_4  and  O_5 
REMARK    4  A    between atoms: C_10  and  C_11 
REMARK    5  A    between atoms: C_11  and  C_12 
REMARK    6  A    between atoms: C_12  and  C_13 
REMARK    7  A    between atoms: C_13  and  O_14 
REMARK    8  A    between atoms: C_16  and  C_18 
REMARK    9  A    between atoms: C_18  and  C_19 
REMARK   10  A    between atoms: C_19  and  O_20 
REMARK   11  A    between atoms: C_25  and  C_26 
REMARK   12  A    between atoms: C_26  and  C_27 
REMARK   13  A    between atoms: C_27  and  O_28 
REMARK   14  A    between atoms: C_30  and  C_31 
REMARK   15  A    between atoms: C_31  and  C_32 
REMARK   16  A    between atoms: C_32  and  C_33 
REMARK   17  A    between atoms: C_33  and  O_34 
REMARK   18  A    between atoms: C_47  and  C_48 
REMARK   19  A    between atoms: C_48  and  C_49 
REMARK   20  A    between atoms: C_49  and  C_50 
REMARK   21  A    between atoms: C_50  and  O_51 
REMARK   22  A    between atoms: C_53  and  C_54 
REMARK   23  A    between atoms: C_54  and  C_55 
REMARK   24  A    between atoms: C_55  and  O_56 
REMARK   25  A    between atoms: C_58  and  C_59 
REMARK   26  A    between atoms: C_59  and  C_60 
REMARK   27  A    between atoms: C_60  and  C_61 
REMARK   28  A    between atoms: C_61  and  O_62 
ROOT
HETATM    1  C   UNK N   1      29.845  15.503   6.300  0.00  0.00     0.027 C 
HETATM    2  C   UNK N   1      29.584  16.101   4.914  0.00  0.00     0.036 A 
HETATM    3  C   UNK N   1      28.762  15.135   4.189  0.00  0.00     0.050 A 
HETATM    4  C   UNK N   1      29.190  13.946   3.917  0.00  0.00     0.060 C 
HETATM    5  C   UNK N   1      28.461  13.031   3.129  0.00  0.00     0.062 C 
HETATM    6  C   UNK N   1      29.000  11.929   2.681  0.00  0.00    -0.036 C 
HETATM    7  C   UNK N   1      28.171  11.298   1.620  0.00  0.00     0.036 C 
HETATM    8  C   UNK N   1      28.904  11.574   0.304  0.00  0.00     0.027 C 
HETATM    9  C   UNK N   1      26.971  12.183   1.742  0.00  0.00     0.050 C 
HETATM   10  C   UNK N   1      25.862  12.022   1.068  0.00  0.00     0.060 C 
HETATM   11  C   UNK N   1      24.679  12.809   1.335  0.00  0.00     0.067 A 
HETATM   12  C   UNK N   1      23.475  12.602   0.743  0.00  0.00    -0.011 A 
HETATM   13  C   UNK N   1      22.629  13.538   1.302  0.00  0.00    -0.020 A 
HETATM   14  C   UNK N   1      23.336  14.254   2.185  0.00  0.00     0.066 A 
HETATM   15  C   UNK N   1      22.780  15.399   2.889  0.00  0.00     0.064 C 
HETATM   16  C   UNK N   1      23.512  16.366   3.371  0.00  0.00     0.066 C 
HETATM   17  N   UNK N   1      24.844  16.313   3.464  0.00  0.00    -0.248 N 
HETATM   18  C   UNK N   1      25.222  17.520   3.889  0.00  0.00     0.067 C 
HETATM   19  C   UNK N   1      26.422  17.867   4.234  0.00  0.00     0.064 C 
HETATM   20  C   UNK N   1      27.497  16.934   4.348  0.00  0.00     0.063 A 
HETATM   21  N   UNK N   1      27.505  15.642   3.895  0.00  0.00    -0.252 N 
HETATM   22 Fe   UNK N   1      26.026  14.754   3.035  0.00  0.00     0.000 Fe
HETATM   23  N   UNK N   1      27.201  13.232   2.622  0.00  0.00    -0.252 N 
HETATM   24  N   UNK N   1      24.591  13.848   2.176  0.00  0.00    -0.248 N 
HETATM   25  C   UNK N   1      28.614  17.236   4.940  0.00  0.00    -0.036 A 
HETATM   26  C   UNK N   1      24.170  18.372   3.957  0.00  0.00    -0.011 C 
HETATM   27  C   UNK N   1      23.041  17.614   3.758  0.00  0.00    -0.020 C 
ENDROOT
BRANCH   2  28
HETATM   28  C   UNK N   1      30.795  16.479   4.058  0.00  0.00     0.130 C 
BRANCH  28  29
HETATM   29  C   UNK N   1      32.027  16.460   4.868  0.00  0.00     0.140 C 
HETATM   30  O   UNK N   1      32.389  17.472   5.440  0.00  0.00    -0.650 OA
BRANCH  29  31
HETATM   31  O   UNK N   1      32.853  15.404   4.776  0.00  0.00    -0.776 OA
HETATM   32  H   UNK N   1      33.491  15.291   4.100  0.00  0.00     0.167 HD
ENDBRANCH  29  31
ENDBRANCH  28  29
ENDBRANCH   2  28
BRANCH  25  33
HETATM   33  C   UNK N   1      28.845  18.571   5.470  0.00  0.00     0.048 C 
BRANCH  33  34
HETATM   34  C   UNK N   1      29.088  18.540   6.931  0.00  0.00     0.114 C 
BRANCH  34  35
HETATM   35  C   UNK N   1      27.977  19.372   7.399  0.00  0.00     0.139 C 
HETATM   36  O   UNK N   1      27.482  20.194   6.652  0.00  0.00    -0.650 OA
BRANCH  35  37
HETATM   37  O   UNK N   1      27.397  19.091   8.581  0.00  0.00    -0.776 OA
HETATM   38  H   UNK N   1      26.570  18.691   8.760  0.00  0.00     0.167 HD
ENDBRANCH  35  37
ENDBRANCH  34  35
ENDBRANCH  33  34
ENDBRANCH  25  33
BRANCH   6  39
HETATM   39  C   UNK N   1      30.344  11.491   3.071  0.00  0.00     0.048 C 
BRANCH  39  40
HETATM   40  C   UNK N   1      31.300  11.970   2.017  0.00  0.00     0.114 C 
BRANCH  40  41
HETATM   41  C   UNK N   1      32.251  12.808   2.732  0.00  0.00     0.139 C 
HETATM   42  O   UNK N   1      32.553  12.531   3.881  0.00  0.00    -0.650 OA
BRANCH  41  43
HETATM   43  O   UNK N   1      32.705  13.931   2.158  0.00  0.00    -0.776 OA
HETATM   44  H   UNK N   1      33.285  13.902   1.423  0.00  0.00     0.167 HD
ENDBRANCH  41  43
ENDBRANCH  40  41
ENDBRANCH  39  40
ENDBRANCH   6  39
BRANCH   7  45
HETATM   45  C   UNK N   1      27.888   9.825   1.917  0.00  0.00     0.130 C 
BRANCH  45  46
HETATM   46  C   UNK N   1      27.946   9.038   0.651  0.00  0.00     0.140 C 
HETATM   47  O   UNK N   1      28.913   8.337   0.408  0.00  0.00    -0.650 OA
BRANCH  46  48
HETATM   48  O   UNK N   1      26.823   8.904  -0.078  0.00  0.00    -0.776 OA
HETATM   49  H   UNK N   1      26.368   8.092  -0.186  0.00  0.00     0.167 HD
ENDBRANCH  46  48
ENDBRANCH  45  46
ENDBRANCH   7  45
BRANCH  26  50
HETATM   50  C   UNK N   1      24.318  19.843   4.166  0.00  0.00     0.151 C 
BRANCH  50  51
HETATM   51  C   UNK N   1      24.111  20.642   2.957  0.00  0.00     0.143 C 
HETATM   52  O   UNK N   1      24.907  20.560   2.037  0.00  0.00    -0.650 OA
BRANCH  51  53
HETATM   53  O   UNK N   1      23.017  21.409   2.842  0.00  0.00    -0.776 OA
HETATM   54  H   UNK N   1      22.813  22.215   3.274  0.00  0.00     0.167 HD
ENDBRANCH  51  53
ENDBRANCH  50  51
ENDBRANCH  26  50
BRANCH  27  55
HETATM   55  C   UNK N   1      21.625  18.089   3.966  0.00  0.00     0.052 C 
BRANCH  55  56
HETATM   56  C   UNK N   1      20.783  18.456   2.763  0.00  0.00     0.115 C 
BRANCH  56  57
HETATM   57  C   UNK N   1      20.456  19.899   2.712  0.00  0.00     0.139 C 
HETATM   58  O   UNK N   1      20.312  20.545   3.740  0.00  0.00    -0.650 OA
BRANCH  57  59
HETATM   59  O   UNK N   1      20.254  20.475   1.514  0.00  0.00    -0.776 OA
HETATM   60  H   UNK N   1      20.558  21.192   0.992  0.00  0.00     0.167 HD
ENDBRANCH  57  59
ENDBRANCH  56  57
ENDBRANCH  55  56
ENDBRANCH  27  55
BRANCH  12  61
HETATM   61  C   UNK N   1      23.213  11.637  -0.371  0.00  0.00     0.151 C 
BRANCH  61  62
HETATM   62  C   UNK N   1      22.987  10.222   0.080  0.00  0.00     0.143 C 
HETATM   63  O   UNK N   1      22.030   9.972   0.787  0.00  0.00    -0.650 OA
BRANCH  62  64
HETATM   64  O   UNK N   1      23.823   9.225  -0.267  0.00  0.00    -0.776 OA
HETATM   65  H   UNK N   1      24.582   8.865   0.147  0.00  0.00     0.167 HD
ENDBRANCH  62  64
ENDBRANCH  61  62
ENDBRANCH  12  61
BRANCH  13  66
HETATM   66  C   UNK N   1      21.271  13.904   0.966  0.00  0.00     0.052 C 
BRANCH  66  67
HETATM   67  C   UNK N   1      20.298  12.971   1.558  0.00  0.00     0.115 C 
BRANCH  67  68
HETATM   68  C   UNK N   1      19.290  13.933   1.983  0.00  0.00     0.139 C 
HETATM   69  O   UNK N   1      18.783  13.815   3.085  0.00  0.00    -0.650 OA
BRANCH  68  70
HETATM   70  O   UNK N   1      19.188  15.096   1.313  0.00  0.00    -0.776 OA
HETATM   71  H   UNK N   1      18.529  15.762   1.341  0.00  0.00     0.167 HD
ENDBRANCH  68  70
ENDBRANCH  67  68
ENDBRANCH  66  67
ENDBRANCH  13  66
TORSDOF 28
ENDMDL
MODEL 2
REMARK VINA RESULT:      -6.6      1.638      7.650
REMARK  28 active torsions:
REMARK  status: ('A' for Active; 'I' for Inactive)
REMARK    1  A    between atoms: C_2  and  C_3 
REMARK    2  A    between atoms: C_3  and  C_4 
REMARK    3  A    between atoms: C_4  and  O_5 
REMARK    4  A    between atoms: C_10  and  C_11 
REMARK    5  A    between atoms: C_11  and  C_12 
REMARK    6  A    between atoms: C_12  and  C_13 
REMARK    7  A    between atoms: C_13  and  O_14 
REMARK    8  A    between atoms: C_16  and  C_18 
REMARK    9  A    between atoms: C_18  and  C_19 
REMARK   10  A    between atoms: C_19  and  O_20 
REMARK   11  A    between atoms: C_25  and  C_26 
REMARK   12  A    between atoms: C_26  and  C_27 
REMARK   13  A    between atoms: C_27  and  O_28 
REMARK   14  A    between atoms: C_30  and  C_31 
REMARK   15  A    between atoms: C_31  and  C_32 
REMARK   16  A    between atoms: C_32  and  C_33 
REMARK   17  A    between atoms: C_33  and  O_34 
REMARK   18  A    between atoms: C_47  and  C_48 
REMARK   19  A    between atoms: C_48  and  C_49 
REMARK   20  A    between atoms: C_49  and  C_50 
REMARK   21  A    between atoms: C_50  and  O_51 
REMARK   22  A    between atoms: C_53  and  C_54 
REMARK   23  A    between atoms: C_54  and  C_55 
REMARK   24  A    between atoms: C_55  and  O_56 
REMARK   25  A    between atoms: C_58  and  C_59 
REMARK   26  A    between atoms: C_59  and  C_60 
REMARK   27  A    between atoms: C_60  and  C_61 
REMARK   28  A    between atoms: C_61  and  O_62 
ROOT
HETATM    1  C   UNK N   1      23.475  11.587  -0.228  0.00  0.00     0.027 C 
HETATM    2  C   UNK N   1      23.339  11.634   1.297  0.00  0.00     0.036 A 
HETATM    3  C   UNK N   1      24.397  12.516   1.785  0.00  0.00     0.050 A 
HETATM    4  C   UNK N   1      25.648  12.237   1.612  0.00  0.00     0.060 C 
HETATM    5  C   UNK N   1      26.689  13.015   2.162  0.00  0.00     0.062 C 
HETATM    6  C   UNK N   1      27.927  12.598   2.167  0.00  0.00    -0.036 C 
HETATM    7  C   UNK N   1      28.780  13.409   3.077  0.00  0.00     0.036 C 
HETATM    8  C   UNK N   1      29.028  12.528   4.305  0.00  0.00     0.027 C 
HETATM    9  C   UNK N   1      27.783  14.478   3.397  0.00  0.00     0.050 C 
HETATM   10  C   UNK N   1      28.039  15.533   4.126  0.00  0.00     0.060 C 
HETATM   11  C   UNK N   1      27.089  16.613   4.276  0.00  0.00     0.067 A 
HETATM   12  C   UNK N   1      27.351  17.775   4.925  0.00  0.00    -0.011 A 
HETATM   13  C   UNK N   1      26.200  18.528   4.803  0.00  0.00    -0.020 A 
HETATM   14  C   UNK N   1      25.312  17.809   4.104  0.00  0.00     0.066 A 
HETATM   15  C   UNK N   1      23.948  18.258   3.873  0.00  0.00     0.064 C 
HETATM   16  C   UNK N   1      22.959  17.443   3.627  0.00  0.00     0.066 C 
HETATM   17  N   UNK N   1      23.118  16.147   3.348  0.00  0.00    -0.248 N 
HETATM   18  C   UNK N   1      21.885  15.641   3.277  0.00  0.00     0.067 C 
HETATM   19  C   UNK N   1      21.572  14.440   2.904  0.00  0.00     0.064 C 
HETATM   20  C   UNK N   1      22.523  13.523   2.363  0.00  0.00     0.063 A 
HETATM   21  N   UNK N   1      23.886  13.656   2.384  0.00  0.00    -0.252 N 
HETATM   22 Fe   UNK N   1      24.846  15.163   3.109  0.00  0.00     0.000 Fe
HETATM   23  N   UNK N   1      26.534  14.182   2.867  0.00  0.00    -0.252 N 
HETATM   24  N   UNK N   1      25.828  16.628   3.821  0.00  0.00    -0.248 N 
HETATM   25  C   UNK N   1      22.163  12.433   1.755  0.00  0.00    -0.036 A 
HETATM   26  C   UNK N   1      20.952  16.565   3.617  0.00  0.00    -0.011 C 
HETATM   27  C   UNK N   1      21.612  17.766   3.715  0.00  0.00    -0.020 C 
ENDROOT
BRANCH   2  28
HETATM   28  C   UNK N   1      23.391  10.310   2.062  0.00  0.00     0.130 C 
BRANCH  28  29
HETATM   29  C   UNK N   1      23.212   9.172   1.140  0.00  0.00     0.140 C 
HETATM   30  O   UNK N   1      24.186   8.652   0.628  0.00  0.00    -0.650 OA
BRANCH  29  31
HETATM   31  O   UNK N   1      21.978   8.879   0.698  0.00  0.00    -0.776 OA
HETATM   32  H   UNK N   1      21.191   9.049   1.177  0.00  0.00     0.167 HD
ENDBRANCH  29  31
ENDBRANCH  28  29
ENDBRANCH   2  28
BRANCH  25  33
HETATM   33  C   UNK N   1      20.760  12.063   1.644  0.00  0.00     0.048 C 
BRANCH  33  34
HETATM   34  C   UNK N   1      20.118  12.714   0.479  0.00  0.00     0.114 C 
BRANCH  34  35
HETATM   35  C   UNK N   1      18.775  12.945   1.014  0.00  0.00     0.139 C 
HETATM   36  O   UNK N   1      18.117  12.007   1.422  0.00  0.00    -0.650 OA
BRANCH  35  37
HETATM   37  O   UNK N   1      18.357  14.209   1.221  0.00  0.00    -0.776 OA
HETATM   38  H   UNK N   1      18.858  14.986   1.370  0.00  0.00     0.167 HD
ENDBRANCH  35  37
ENDBRANCH  34  35
ENDBRANCH  33  34
ENDBRANCH  25  33
BRANCH   6  39
HETATM   39  C   UNK N   1      28.351  11.370   1.488  0.00  0.00     0.048 C 
BRANCH  39  40
HETATM   40  C   UNK N   1      29.115  11.771   0.260  0.00  0.00     0.114 C 
BRANCH  40  41
HETATM   41  C   UNK N   1      30.279  10.897   0.246  0.00  0.00     0.139 C 
HETATM   42  O   UNK N   1      30.640  10.392  -0.804  0.00  0.00    -0.650 OA
BRANCH  41  43
HETATM   43  O   UNK N   1      30.879  10.576   1.401  0.00  0.00    -0.776 OA
HETATM   44  H   UNK N   1      31.809  10.629   1.498  0.00  0.00     0.167 HD
ENDBRANCH  41  43
ENDBRANCH  40  41
ENDBRANCH  39  40
ENDBRANCH   6  39
BRANCH   7  45
HETATM   45  C   UNK N   1      30.036  13.923   2.373  0.00  0.00     0.130 C 
BRANCH  45  46
HETATM   46  C   UNK N   1      31.231  13.668   3.230  0.00  0.00     0.140 C 
HETATM   47  O   UNK N   1      32.002  12.765   2.954  0.00  0.00    -0.650 OA
BRANCH  46  48
HETATM   48  O   UNK N   1      31.585  14.596   4.138  0.00  0.00    -0.776 OA
HETATM   49  H   UNK N   1      30.969  15.112   4.619  0.00  0.00     0.167 HD
ENDBRANCH  46  48
ENDBRANCH  45  46
ENDBRANCH   7  45
BRANCH  26  50
HETATM   50  C   UNK N   1      19.518  16.229   3.862  0.00  0.00     0.151 C 
BRANCH  50  51
HETATM   51  C   UNK N   1      19.176  16.060   5.276  0.00  0.00     0.143 C 
HETATM   52  O   UNK N   1      20.053  16.135   6.120  0.00  0.00    -0.650 OA
BRANCH  51  53
HETATM   53  O   UNK N   1      17.897  15.889   5.638  0.00  0.00    -0.776 OA
HETATM   54  H   UNK N   1      17.520  15.218   6.172  0.00  0.00     0.167 HD
ENDBRANCH  51  53
ENDBRANCH  50  51
ENDBRANCH  26  50
BRANCH  27  55
HETATM   55  C   UNK N   1      20.949  19.114   3.853  0.00  0.00     0.052 C 
BRANCH  55  56
HETATM   56  C   UNK N   1      20.104  19.643   2.715  0.00  0.00     0.115 C 
BRANCH  56  57
HETATM   57  C   UNK N   1      20.863  20.527   1.802  0.00  0.00     0.139 C 
HETATM   58  O   UNK N   1      21.993  20.898   2.084  0.00  0.00    -0.650 OA
BRANCH  57  59
HETATM   59  O   UNK N   1      20.264  20.970   0.681  0.00  0.00    -0.776 OA
HETATM   60  H   UNK N   1      19.966  21.763   0.282  0.00  0.00     0.167 HD
ENDBRANCH  57  59
ENDBRANCH  56  57
ENDBRANCH  55  56
ENDBRANCH  27  55
BRANCH  12  61
HETATM   61  C   UNK N   1      28.593  18.069   5.705  0.00  0.00     0.151 C 
BRANCH  61  62
HETATM   62  C   UNK N   1      28.521  17.672   7.153  0.00  0.00     0.143 C 
HETATM   63  O   UNK N   1      29.280  16.819   7.571  0.00  0.00    -0.650 OA
BRANCH  62  64
HETATM   64  O   UNK N   1      27.631  18.226   7.997  0.00  0.00    -0.776 OA
HETATM   65  H   UNK N   1      26.813  17.924   8.338  0.00  0.00     0.167 HD
ENDBRANCH  62  64
ENDBRANCH  61  62
ENDBRANCH  12  61
BRANCH  13  66
HETATM   66  C   UNK N   1      25.824  19.784   5.412  0.00  0.00     0.052 C 
BRANCH  66  67
HETATM   67  C   UNK N   1      26.753  20.864   5.039  0.00  0.00     0.115 C 
BRANCH  67  68
HETATM   68  C   UNK N   1      27.171  21.275   6.373  0.00  0.00     0.139 C 
HETATM   69  O   UNK N   1      27.975  22.182   6.491  0.00  0.00    -0.650 OA
BRANCH  68  70
HETATM   70  O   UNK N   1      26.429  20.888   7.427  0.00  0.00    -0.776 OA
HETATM   71  H   UNK N   1      25.510  20.973   7.592  0.00  0.00     0.167 HD
ENDBRANCH  68  70
ENDBRANCH  67  68
ENDBRANCH  66  67
ENDBRANCH  13  66
TORSDOF 28
ENDMDL
MODEL 3
REMARK VINA RESULT:      -6.3      2.632      8.824
REMARK  28 active torsions:
REMARK  status: ('A' for Active; 'I' for Inactive)
REMARK    1  A    between atoms: C_2  and  C_3 
REMARK    2  A    between atoms: C_3  and  C_4 
REMARK    3  A    between atoms: C_4  and  O_5 
REMARK    4  A    between atoms: C_10  and  C_11 
REMARK    5  A    between atoms: C_11  and  C_12 
REMARK    6  A    between atoms: C_12  and  C_13 
REMARK    7  A    between atoms: C_13  and  O_14 
REMARK    8  A    between atoms: C_16  and  C_18 
REMARK    9  A    between atoms: C_18  and  C_19 
REMARK   10  A    between atoms: C_19  and  O_20 
REMARK   11  A    between atoms: C_25  and  C_26 
REMARK   12  A    between atoms: C_26  and  C_27 
REMARK   13  A    between atoms: C_27  and  O_28 
REMARK   14  A    between atoms: C_30  and  C_31 
REMARK   15  A    between atoms: C_31  and  C_32 
REMARK   16  A    between atoms: C_32  and  C_33 
REMARK   17  A    between atoms: C_33  and  O_34 
REMARK   18  A    between atoms: C_47  and  C_48 
REMARK   19  A    between atoms: C_48  and  C_49 
REMARK   20  A    between atoms: C_49  and  C_50 
REMARK   21  A    between atoms: C_50  and  O_51 
REMARK   22  A    between atoms: C_53  and  C_54 
REMARK   23  A    between atoms: C_54  and  C_55 
REMARK   24  A    between atoms: C_55  and  O_56 
REMARK   25  A    between atoms: C_58  and  C_59 
REMARK   26  A    between atoms: C_59  and  C_60 
REMARK   27  A    between atoms: C_60  and  C_61 
REMARK   28  A    between atoms: C_61  and  O_62 
ROOT
HETATM    1  C   UNK N   1      29.641  18.611   6.824  0.00  0.00     0.027 C 
HETATM    2  C   UNK N   1      29.616  17.150   7.286  0.00  0.00     0.036 A 
HETATM    3  C   UNK N   1      29.010  16.378   6.203  0.00  0.00     0.050 A 
HETATM    4  C   UNK N   1      27.793  16.585   5.821  0.00  0.00     0.060 C 
HETATM    5  C   UNK N   1      27.149  15.785   4.852  0.00  0.00     0.062 C 
HETATM    6  C   UNK N   1      25.862  15.865   4.642  0.00  0.00    -0.036 C 
HETATM    7  C   UNK N   1      25.362  14.721   3.834  0.00  0.00     0.036 C 
HETATM    8  C   UNK N   1      24.617  13.814   4.819  0.00  0.00     0.027 C 
HETATM    9  C   UNK N   1      26.686  14.124   3.478  0.00  0.00     0.050 C 
HETATM   10  C   UNK N   1      26.845  13.098   2.683  0.00  0.00     0.060 C 
HETATM   11  C   UNK N   1      28.151  12.657   2.248  0.00  0.00     0.067 A 
HETATM   12  C   UNK N   1      28.360  11.674   1.337  0.00  0.00    -0.011 A 
HETATM   13  C   UNK N   1      29.731  11.599   1.189  0.00  0.00    -0.020 A 
HETATM   14  C   UNK N   1      30.280  12.516   1.996  0.00  0.00     0.066 A 
HETATM   15  C   UNK N   1      31.719  12.646   2.170  0.00  0.00     0.064 C 
HETATM   16  C   UNK N   1      32.266  13.165   3.234  0.00  0.00     0.066 C 
HETATM   17  N   UNK N   1      31.582  13.822   4.175  0.00  0.00    -0.248 N 
HETATM   18  C   UNK N   1      32.464  14.089   5.140  0.00  0.00     0.067 C 
HETATM   19  C   UNK N   1      32.254  14.823   6.187  0.00  0.00     0.064 C 
HETATM   20  C   UNK N   1      31.060  15.585   6.373  0.00  0.00     0.063 A 
HETATM   21  N   UNK N   1      29.904  15.476   5.647  0.00  0.00    -0.252 N 
HETATM   22 Fe   UNK N   1      29.635  14.291   4.151  0.00  0.00     0.000 Fe
HETATM   23  N   UNK N   1      27.725  14.762   4.142  0.00  0.00    -0.252 N 
HETATM   24  N   UNK N   1      29.331  13.130   2.676  0.00  0.00    -0.248 N 
HETATM   25  C   UNK N   1      30.966  16.511   7.279  0.00  0.00    -0.036 A 
HETATM   26  C   UNK N   1      33.666  13.514   4.884  0.00  0.00    -0.011 C 
HETATM   27  C   UNK N   1      33.599  13.030   3.600  0.00  0.00    -0.020 C 
ENDROOT
BRANCH   2  28
HETATM   28  C   UNK N   1      28.901  16.827   8.600  0.00  0.00     0.130 C 
BRANCH  28  29
HETATM   29  C   UNK N   1      28.577  18.067   9.331  0.00  0.00     0.140 C 
HETATM   30  O   UNK N   1      29.384  18.531  10.116  0.00  0.00    -0.650 OA
BRANCH  29  31
HETATM   31  O   UNK N   1      27.318  18.533   9.299  0.00  0.00    -0.776 OA
HETATM   32  H   UNK N   1      26.745  18.456   8.562  0.00  0.00     0.167 HD
ENDBRANCH  29  31
ENDBRANCH  28  29
ENDBRANCH   2  28
BRANCH  25  33
HETATM   33  C   UNK N   1      32.064  16.780   8.195  0.00  0.00     0.048 C 
BRANCH  33  34
HETATM   34  C   UNK N   1      32.452  18.209   8.173  0.00  0.00     0.114 C 
BRANCH  34  35
HETATM   35  C   UNK N   1      33.895  18.085   7.957  0.00  0.00     0.139 C 
HETATM   36  O   UNK N   1      34.637  17.926   8.908  0.00  0.00    -0.650 OA
BRANCH  35  37
HETATM   37  O   UNK N   1      34.364  17.965   6.700  0.00  0.00    -0.776 OA
HETATM   38  H   UNK N   1      35.124  18.346   6.308  0.00  0.00     0.167 HD
ENDBRANCH  35  37
ENDBRANCH  34  35
ENDBRANCH  33  34
ENDBRANCH  25  33
BRANCH   6  39
HETATM   39  C   UNK N   1      25.016  16.873   5.289  0.00  0.00     0.048 C 
BRANCH  39  40
HETATM   40  C   UNK N   1      24.996  18.084   4.403  0.00  0.00     0.114 C 
BRANCH  40  41
HETATM   41  C   UNK N   1      23.587  18.425   4.273  0.00  0.00     0.139 C 
HETATM   42  O   UNK N   1      23.264  19.432   3.666  0.00  0.00    -0.650 OA
BRANCH  41  43
HETATM   43  O   UNK N   1      22.666  17.685   4.908  0.00  0.00    -0.776 OA
HETATM   44  H   UNK N   1      22.817  17.357   5.772  0.00  0.00     0.167 HD
ENDBRANCH  41  43
ENDBRANCH  40  41
ENDBRANCH  39  40
ENDBRANCH   6  39
BRANCH   7  45
HETATM   45  C   UNK N   1      24.547  15.188   2.627  0.00  0.00     0.130 C 
BRANCH  45  46
HETATM   46  C   UNK N   1      23.157  14.653   2.723  0.00  0.00     0.140 C 
HETATM   47  O   UNK N   1      22.262  15.348   3.171  0.00  0.00    -0.650 OA
BRANCH  46  48
HETATM   48  O   UNK N   1      22.858  13.514   2.073  0.00  0.00    -0.776 OA
HETATM   49  H   UNK N   1      22.031  13.353   1.663  0.00  0.00     0.167 HD
ENDBRANCH  46  48
ENDBRANCH  45  46
ENDBRANCH   7  45
BRANCH  26  50
HETATM   50  C   UNK N   1      34.768  13.435   5.888  0.00  0.00     0.151 C 
BRANCH  50  51
HETATM   51  C   UNK N   1      35.825  14.429   5.695  0.00  0.00     0.143 C 
HETATM   52  O   UNK N   1      35.590  15.606   5.906  0.00  0.00    -0.650 OA
BRANCH  51  53
HETATM   53  O   UNK N   1      37.059  14.033   5.350  0.00  0.00    -0.776 OA
HETATM   54  H   UNK N   1      37.727  14.510   4.898  0.00  0.00     0.167 HD
ENDBRANCH  51  53
ENDBRANCH  50  51
ENDBRANCH  26  50
BRANCH  27  55
HETATM   55  C   UNK N   1      34.770  12.508   2.804  0.00  0.00     0.052 C 
BRANCH  55  56
HETATM   56  C   UNK N   1      35.706  13.490   2.135  0.00  0.00     0.115 C 
BRANCH  56  57
HETATM   57  C   UNK N   1      35.230  13.916   0.799  0.00  0.00     0.139 C 
HETATM   58  O   UNK N   1      35.514  15.019   0.355  0.00  0.00    -0.650 OA
BRANCH  57  59
HETATM   59  O   UNK N   1      34.424  13.092   0.105  0.00  0.00    -0.776 OA
HETATM   60  H   UNK N   1      33.636  12.595   0.203  0.00  0.00     0.167 HD
ENDBRANCH  57  59
ENDBRANCH  56  57
ENDBRANCH  55  56
ENDBRANCH  27  55
BRANCH  12  61
HETATM   61  C   UNK N   1      27.299  10.798   0.750  0.00  0.00     0.151 C 
BRANCH  61  62
HETATM   62  C   UNK N   1      27.142   9.472   1.440  0.00  0.00     0.143 C 
HETATM   63  O   UNK N   1      26.391   9.387   2.393  0.00  0.00    -0.650 OA
BRANCH  62  64
HETATM   64  O   UNK N   1      27.819   8.380   1.041  0.00  0.00    -0.776 OA
HETATM   65  H   UNK N   1      28.392   8.223   0.317  0.00  0.00     0.167 HD
ENDBRANCH  62  64
ENDBRANCH  61  62
ENDBRANCH  12  61
BRANCH  13  66
HETATM   66  C   UNK N   1      30.554  10.648   0.477  0.00  0.00     0.052 C 
BRANCH  66  67
HETATM   67  C   UNK N   1      30.382  10.770  -0.981  0.00  0.00     0.115 C 
BRANCH  67  68
HETATM   68  C   UNK N   1      31.679  11.342  -1.316  0.00  0.00     0.139 C 
HETATM   69  O   UNK N   1      32.677  10.922  -0.757  0.00  0.00    -0.650 OA
BRANCH  68  70
HETATM   70  O   UNK N   1      31.791  12.062  -2.448  0.00  0.00    -0.776 OA
HETATM   71  H   UNK N   1      31.688  12.981  -2.600  0.00  0.00     0.167 HD
ENDBRANCH  68  70
ENDBRANCH  67  68
ENDBRANCH  66  67
ENDBRANCH  13  66
TORSDOF 28
ENDMDL
MODEL 4
REMARK VINA RESULT:      -6.3      4.067      7.726
REMARK  28 active torsions:
REMARK  status: ('A' for Active; 'I' for Inactive)
REMARK    1  A    between atoms: C_2  and  C_3 
REMARK    2  A    between atoms: C_3  and  C_4 
REMARK    3  A    between atoms: C_4  and  O_5 
REMARK    4  A    between atoms: C_10  and  C_11 
REMARK    5  A    between atoms: C_11  and  C_12 
REMARK    6  A    between atoms: C_12  and  C_13 
REMARK    7  A    between atoms: C_13  and  O_14 
REMARK    8  A    between atoms: C_16  and  C_18 
REMARK    9  A    between atoms: C_18  and  C_19 
REMARK   10  A    between atoms: C_19  and  O_20 
REMARK   11  A    between atoms: C_25  and  C_26 
REMARK   12  A    between atoms: C_26  and  C_27 
REMARK   13  A    between atoms: C_27  and  O_28 
REMARK   14  A    between atoms: C_30  and  C_31 
REMARK   15  A    between atoms: C_31  and  C_32 
REMARK   16  A    between atoms: C_32  and  C_33 
REMARK   17  A    between atoms: C_33  and  O_34 
REMARK   18  A    between atoms: C_47  and  C_48 
REMARK   19  A    between atoms: C_48  and  C_49 
REMARK   20  A    between atoms: C_49  and  C_50 
REMARK   21  A    between atoms: C_50  and  O_51 
REMARK   22  A    between atoms: C_53  and  C_54 
REMARK   23  A    between atoms: C_54  and  C_55 
REMARK   24  A    between atoms: C_55  and  O_56 
REMARK   25  A    between atoms: C_58  and  C_59 
REMARK   26  A    between atoms: C_59  and  C_60 
REMARK   27  A    between atoms: C_60  and  C_61 
REMARK   28  A    between atoms: C_61  and  O_62 
ROOT
HETATM    1  C   UNK N   1      34.071  10.250   8.453  0.00  0.00     0.027 C 
HETATM    2  C   UNK N   1      34.527  11.303   7.437  0.00  0.00     0.036 A 
HETATM    3  C   UNK N   1      33.392  11.552   6.553  0.00  0.00     0.050 A 
HETATM    4  C   UNK N   1      32.896  10.621   5.805  0.00  0.00     0.060 C 
HETATM    5  C   UNK N   1      31.870  10.859   4.865  0.00  0.00     0.062 C 
HETATM    6  C   UNK N   1      31.540   9.967   3.970  0.00  0.00    -0.036 C 
HETATM    7  C   UNK N   1      30.688  10.548   2.899  0.00  0.00     0.036 C 
HETATM    8  C   UNK N   1      31.597  10.679   1.673  0.00  0.00     0.027 C 
HETATM    9  C   UNK N   1      30.457  11.889   3.521  0.00  0.00     0.050 C 
HETATM   10  C   UNK N   1      29.681  12.813   3.020  0.00  0.00     0.060 C 
HETATM   11  C   UNK N   1      29.371  14.029   3.738  0.00  0.00     0.067 A 
HETATM   12  C   UNK N   1      28.483  14.962   3.310  0.00  0.00    -0.011 A 
HETATM   13  C   UNK N   1      28.466  15.928   4.297  0.00  0.00    -0.020 A 
HETATM   14  C   UNK N   1      29.322  15.549   5.255  0.00  0.00     0.066 A 
HETATM   15  C   UNK N   1      29.630  16.386   6.405  0.00  0.00     0.064 C 
HETATM   16  C   UNK N   1      30.742  16.289   7.080  0.00  0.00     0.066 C 
HETATM   17  N   UNK N   1      31.614  15.288   6.935  0.00  0.00    -0.248 N 
HETATM   18  C   UNK N   1      32.659  15.607   7.702  0.00  0.00     0.067 C 
HETATM   19  C   UNK N   1      33.681  14.852   7.954  0.00  0.00     0.064 C 
HETATM   20  C   UNK N   1      33.754  13.484   7.551  0.00  0.00     0.063 A 
HETATM   21  N   UNK N   1      32.922  12.851   6.666  0.00  0.00    -0.252 N 
HETATM   22 Fe   UNK N   1      31.406  13.659   5.790  0.00  0.00     0.000 Fe
HETATM   23  N   UNK N   1      31.217  12.050   4.673  0.00  0.00    -0.252 N 
HETATM   24  N   UNK N   1      29.909  14.422   4.901  0.00  0.00    -0.248 N 
HETATM   25  C   UNK N   1      34.648  12.670   8.027  0.00  0.00    -0.036 A 
HETATM   26  C   UNK N   1      32.517  16.844   8.241  0.00  0.00    -0.011 C 
HETATM   27  C   UNK N   1      31.232  17.244   7.962  0.00  0.00    -0.020 C 
ENDROOT
BRANCH   2  28
HETATM   28  C   UNK N   1      35.768  10.995   6.596  0.00  0.00     0.130 C 
BRANCH  28  29
HETATM   29  C   UNK N   1      36.565   9.923   7.222  0.00  0.00     0.140 C 
HETATM   30  O   UNK N   1      37.424  10.209   8.037  0.00  0.00    -0.650 OA
BRANCH  29  31
HETATM   31  O   UNK N   1      36.497   8.680   6.719  0.00  0.00    -0.776 OA
HETATM   32  H   UNK N   1      36.554   8.476   5.806  0.00  0.00     0.167 HD
ENDBRANCH  29  31
ENDBRANCH  28  29
ENDBRANCH   2  28
BRANCH  25  33
HETATM   33  C   UNK N   1      35.664  13.133   8.960  0.00  0.00     0.048 C 
BRANCH  33  34
HETATM   34  C   UNK N   1      35.415  12.625  10.328  0.00  0.00     0.114 C 
BRANCH  34  35
HETATM   35  C   UNK N   1      35.273  13.888  11.055  0.00  0.00     0.139 C 
HETATM   36  O   UNK N   1      36.146  14.731  10.978  0.00  0.00    -0.650 OA
BRANCH  35  37
HETATM   37  O   UNK N   1      34.098  14.177  11.648  0.00  0.00    -0.776 OA
HETATM   38  H   UNK N   1      33.643  14.994  11.702  0.00  0.00     0.167 HD
ENDBRANCH  35  37
ENDBRANCH  34  35
ENDBRANCH  33  34
ENDBRANCH  25  33
BRANCH   6  39
HETATM   39  C   UNK N   1      32.104   8.614   3.956  0.00  0.00     0.048 C 
BRANCH  39  40
HETATM   40  C   UNK N   1      31.036   7.672   4.428  0.00  0.00     0.114 C 
BRANCH  40  41
HETATM   41  C   UNK N   1      31.165   6.504   3.568  0.00  0.00     0.139 C 
HETATM   42  O   UNK N   1      31.408   5.416   4.063  0.00  0.00    -0.650 OA
BRANCH  41  43
HETATM   43  O   UNK N   1      31.117   6.655   2.237  0.00  0.00    -0.776 OA
HETATM   44  H   UNK N   1      31.689   6.175   1.672  0.00  0.00     0.167 HD
ENDBRANCH  41  43
ENDBRANCH  40  41
ENDBRANCH  39  40
ENDBRANCH   6  39
BRANCH   7  45
HETATM   45  C   UNK N   1      29.409   9.736   2.684  0.00  0.00     0.130 C 
BRANCH  45  46
HETATM   46  C   UNK N   1      29.159   9.573   1.222  0.00  0.00     0.140 C 
HETATM   47  O   UNK N   1      29.305   8.485   0.693  0.00  0.00    -0.650 OA
BRANCH  46  48
HETATM   48  O   UNK N   1      28.524  10.558   0.561  0.00  0.00    -0.776 OA
HETATM   49  H   UNK N   1      27.933  10.408  -0.150  0.00  0.00     0.167 HD
ENDBRANCH  46  48
ENDBRANCH  45  46
ENDBRANCH   7  45
BRANCH  26  50
HETATM   50  C   UNK N   1      33.620  17.565   8.941  0.00  0.00     0.151 C 
BRANCH  50  51
HETATM   51  C   UNK N   1      34.478  18.352   8.053  0.00  0.00     0.143 C 
HETATM   52  O   UNK N   1      35.248  19.169   8.529  0.00  0.00    -0.650 OA
BRANCH  51  53
HETATM   53  O   UNK N   1      34.458  18.127   6.732  0.00  0.00    -0.776 OA
HETATM   54  H   UNK N   1      35.140  17.801   6.178  0.00  0.00     0.167 HD
ENDBRANCH  51  53
ENDBRANCH  50  51
ENDBRANCH  26  50
BRANCH  27  55
HETATM   55  C   UNK N   1      30.550  18.454   8.551  0.00  0.00     0.052 C 
BRANCH  55  56
HETATM   56  C   UNK N   1      29.622  18.278   9.733  0.00  0.00     0.115 C 
BRANCH  56  57
HETATM   57  C   UNK N   1      28.213  18.073   9.329  0.00  0.00     0.139 C 
HETATM   58  O   UNK N   1      27.644  17.016   9.556  0.00  0.00    -0.650 OA
BRANCH  57  59
HETATM   59  O   UNK N   1      27.585  19.050   8.649  0.00  0.00    -0.776 OA
HETATM   60  H   UNK N   1      27.639  19.523   7.843  0.00  0.00     0.167 HD
ENDBRANCH  57  59
ENDBRANCH  56  57
ENDBRANCH  55  56
ENDBRANCH  27  55
BRANCH  12  61
HETATM   61  C   UNK N   1      27.798  14.959   1.981  0.00  0.00     0.151 C 
BRANCH  61  62
HETATM   62  C   UNK N   1      26.386  14.446   2.016  0.00  0.00     0.143 C 
HETATM   63  O   UNK N   1      26.181  13.302   2.371  0.00  0.00    -0.650 OA
BRANCH  62  64
HETATM   64  O   UNK N   1      25.342  15.215   1.652  0.00  0.00    -0.776 OA
HETATM   65  H   UNK N   1      25.090  15.588   0.831  0.00  0.00     0.167 HD
ENDBRANCH  62  64
ENDBRANCH  61  62
ENDBRANCH  12  61
BRANCH  13  66
HETATM   66  C   UNK N   1      27.833  17.227   4.337  0.00  0.00     0.052 C 
BRANCH  66  67
HETATM   67  C   UNK N   1      26.398  17.120   4.644  0.00  0.00     0.115 C 
BRANCH  67  68
HETATM   68  C   UNK N   1      26.123  18.520   4.940  0.00  0.00     0.139 C 
HETATM   69  O   UNK N   1      25.239  19.094   4.330  0.00  0.00    -0.650 OA
BRANCH  68  70
HETATM   70  O   UNK N   1      26.604  19.042   6.083  0.00  0.00    -0.776 OA
HETATM   71  H   UNK N   1      26.437  19.866   6.497  0.00  0.00     0.167 HD
ENDBRANCH  68  70
ENDBRANCH  67  68
ENDBRANCH  66  67
ENDBRANCH  13  66
TORSDOF 28
ENDMDL
MODEL 5
REMARK VINA RESULT:      -6.2      1.638      7.888
REMARK  28 active torsions:
REMARK  status: ('A' for Active; 'I' for Inactive)
REMARK    1  A    between atoms: C_2  and  C_3 
REMARK    2  A    between atoms: C_3  and  C_4 
REMARK    3  A    between atoms: C_4  and  O_5 
REMARK    4  A    between atoms: C_10  and  C_11 
REMARK    5  A    between atoms: C_11  and  C_12 
REMARK    6  A    between atoms: C_12  and  C_13 
REMARK    7  A    between atoms: C_13  and  O_14 
REMARK    8  A    between atoms: C_16  and  C_18 
REMARK    9  A    between atoms: C_18  and  C_19 
REMARK   10  A    between atoms: C_19  and  O_20 
REMARK   11  A    between atoms: C_25  and  C_26 
REMARK   12  A    between atoms: C_26  and  C_27 
REMARK   13  A    between atoms: C_27  and  O_28 
REMARK   14  A    between atoms: C_30  and  C_31 
REMARK   15  A    between atoms: C_31  and  C_32 
REMARK   16  A    between atoms: C_32  and  C_33 
REMARK   17  A    between atoms: C_33  and  O_34 
REMARK   18  A    between atoms: C_47  and  C_48 
REMARK   19  A    between atoms: C_48  and  C_49 
REMARK   20  A    between atoms: C_49  and  C_50 
REMARK   21  A    between atoms: C_50  and  O_51 
REMARK   22  A    between atoms: C_53  and  C_54 
REMARK   23  A    between atoms: C_54  and  C_55 
REMARK   24  A    between atoms: C_55  and  O_56 
REMARK   25  A    between atoms: C_58  and  C_59 
REMARK   26  A    between atoms: C_59  and  C_60 
REMARK   27  A    between atoms: C_60  and  C_61 
REMARK   28  A    between atoms: C_61  and  O_62 
ROOT
HETATM    1  C   UNK N   1      27.806  19.727   3.727  0.00  0.00     0.027 C 
HETATM    2  C   UNK N   1      27.737  18.557   4.714  0.00  0.00     0.036 A 
HETATM    3  C   UNK N   1      26.676  17.672   4.240  0.00  0.00     0.050 A 
HETATM    4  C   UNK N   1      25.446  18.064   4.165  0.00  0.00     0.060 C 
HETATM    5  C   UNK N   1      24.387  17.200   3.813  0.00  0.00     0.062 C 
HETATM    6  C   UNK N   1      23.138  17.552   3.959  0.00  0.00    -0.036 C 
HETATM    7  C   UNK N   1      22.218  16.388   3.844  0.00  0.00     0.036 C 
HETATM    8  C   UNK N   1      21.755  16.084   5.272  0.00  0.00     0.027 C 
HETATM    9  C   UNK N   1      23.223  15.375   3.395  0.00  0.00     0.050 C 
HETATM   10  C   UNK N   1      22.933  14.145   3.059  0.00  0.00     0.060 C 
HETATM   11  C   UNK N   1      23.915  13.253   2.485  0.00  0.00     0.067 A 
HETATM   12  C   UNK N   1      23.636  12.010   2.017  0.00  0.00    -0.011 A 
HETATM   13  C   UNK N   1      24.834  11.525   1.533  0.00  0.00    -0.020 A 
HETATM   14  C   UNK N   1      25.765  12.469   1.724  0.00  0.00     0.066 A 
HETATM   15  C   UNK N   1      27.172  12.255   1.421  0.00  0.00     0.064 C 
HETATM   16  C   UNK N   1      28.135  12.921   1.994  0.00  0.00     0.066 C 
HETATM   17  N   UNK N   1      27.940  14.005   2.750  0.00  0.00    -0.248 N 
HETATM   18  C   UNK N   1      29.141  14.320   3.243  0.00  0.00     0.067 C 
HETATM   19  C   UNK N   1      29.431  15.380   3.929  0.00  0.00     0.064 C 
HETATM   20  C   UNK N   1      28.510  16.454   4.125  0.00  0.00     0.063 A 
HETATM   21  N   UNK N   1      27.167  16.433   3.858  0.00  0.00    -0.252 N 
HETATM   22 Fe   UNK N   1      26.207  14.947   3.091  0.00  0.00     0.000 Fe
HETATM   23  N   UNK N   1      24.513  15.888   3.433  0.00  0.00    -0.252 N 
HETATM   24  N   UNK N   1      25.225  13.501   2.343  0.00  0.00    -0.248 N 
HETATM   25  C   UNK N   1      28.885  17.611   4.580  0.00  0.00    -0.036 A 
HETATM   26  C   UNK N   1      30.071  13.392   2.907  0.00  0.00    -0.011 C 
HETATM   27  C   UNK N   1      29.475  12.557   1.993  0.00  0.00    -0.020 C 
ENDROOT
BRANCH   2  28
HETATM   28  C   UNK N   1      27.506  18.881   6.191  0.00  0.00     0.130 C 
BRANCH  28  29
HETATM   29  C   UNK N   1      27.075  20.282   6.353  0.00  0.00     0.140 C 
HETATM   30  O   UNK N   1      27.911  21.159   6.472  0.00  0.00    -0.650 OA
BRANCH  29  31
HETATM   31  O   UNK N   1      25.781  20.543   6.601  0.00  0.00    -0.776 OA
HETATM   32  H   UNK N   1      25.095  20.457   5.969  0.00  0.00     0.167 HD
ENDBRANCH  29  31
ENDBRANCH  28  29
ENDBRANCH   2  28
BRANCH  25  33
HETATM   33  C   UNK N   1      30.267  17.854   4.968  0.00  0.00     0.048 C 
BRANCH  33  34
HETATM   34  C   UNK N   1      30.565  17.278   6.300  0.00  0.00     0.114 C 
BRANCH  34  35
HETATM   35  C   UNK N   1      32.022  17.168   6.217  0.00  0.00     0.139 C 
HETATM   36  O   UNK N   1      32.701  17.382   7.203  0.00  0.00    -0.650 OA
BRANCH  35  37
HETATM   37  O   UNK N   1      32.582  16.652   5.105  0.00  0.00    -0.776 OA
HETATM   38  H   UNK N   1      33.464  16.716   4.797  0.00  0.00     0.167 HD
ENDBRANCH  35  37
ENDBRANCH  34  35
ENDBRANCH  33  34
ENDBRANCH  25  33
BRANCH   6  39
HETATM   39  C   UNK N   1      22.739  18.903   4.365  0.00  0.00     0.048 C 
BRANCH  39  40
HETATM   40  C   UNK N   1      22.874  19.796   3.167  0.00  0.00     0.114 C 
BRANCH  40  41
HETATM   41  C   UNK N   1      21.533  20.312   2.935  0.00  0.00     0.139 C 
HETATM   42  O   UNK N   1      21.264  20.833   1.866  0.00  0.00    -0.650 OA
BRANCH  41  43
HETATM   43  O   UNK N   1      20.638  20.300   3.934  0.00  0.00    -0.776 OA
HETATM   44  H   UNK N   1      20.009  19.611   4.016  0.00  0.00     0.167 HD
ENDBRANCH  41  43
ENDBRANCH  40  41
ENDBRANCH  39  40
ENDBRANCH   6  39
BRANCH   7  45
HETATM   45  C   UNK N   1      21.100  16.644   2.832  0.00  0.00     0.130 C 
BRANCH  45  46
HETATM   46  C   UNK N   1      19.791  16.726   3.542  0.00  0.00     0.140 C 
HETATM   47  O   UNK N   1      19.201  17.789   3.619  0.00  0.00    -0.650 OA
BRANCH  46  48
HETATM   48  O   UNK N   1      19.154  15.583   3.855  0.00  0.00    -0.776 OA
HETATM   49  H   UNK N   1      19.475  14.965   4.482  0.00  0.00     0.167 HD
ENDBRANCH  46  48
ENDBRANCH  45  46
ENDBRANCH   7  45
BRANCH  26  50
HETATM   50  C   UNK N   1      31.437  13.346   3.508  0.00  0.00     0.151 C 
BRANCH  50  51
HETATM   51  C   UNK N   1      32.483  13.917   2.658  0.00  0.00     0.143 C 
HETATM   52  O   UNK N   1      33.154  13.182   1.954  0.00  0.00    -0.650 OA
BRANCH  51  53
HETATM   53  O   UNK N   1      32.654  15.246   2.611  0.00  0.00    -0.776 OA
HETATM   54  H   UNK N   1      33.417  15.751   2.812  0.00  0.00     0.167 HD
ENDBRANCH  51  53
ENDBRANCH  50  51
ENDBRANCH  26  50
BRANCH  27  55
HETATM   55  C   UNK N   1      30.190  11.511   1.174  0.00  0.00     0.052 C 
BRANCH  55  56
HETATM   56  C   UNK N   1      30.697  11.871  -0.205  0.00  0.00     0.115 C 
BRANCH  56  57
HETATM   57  C   UNK N   1      30.009  11.124  -1.282  0.00  0.00     0.139 C 
HETATM   58  O   UNK N   1      29.444  10.065  -1.047  0.00  0.00    -0.650 OA
BRANCH  57  59
HETATM   59  O   UNK N   1      30.069  11.596  -2.540  0.00  0.00    -0.776 OA
HETATM   60  H   UNK N   1      29.694  12.259  -3.086  0.00  0.00     0.167 HD
ENDBRANCH  57  59
ENDBRANCH  56  57
ENDBRANCH  55  56
ENDBRANCH  27  55
BRANCH  12  61
HETATM   61  C   UNK N   1      22.318  11.313   2.146  0.00  0.00     0.151 C 
BRANCH  61  62
HETATM   62  C   UNK N   1      21.432  11.440   0.939  0.00  0.00     0.143 C 
HETATM   63  O   UNK N   1      21.145  12.549   0.531  0.00  0.00    -0.650 OA
BRANCH  62  64
HETATM   64  O   UNK N   1      20.936  10.361   0.306  0.00  0.00    -0.776 OA
HETATM   65  H   UNK N   1      20.300   9.721   0.555  0.00  0.00     0.167 HD
ENDBRANCH  62  64
ENDBRANCH  61  62
ENDBRANCH  12  61
BRANCH  13  66
HETATM   66  C   UNK N   1      25.197  10.211   1.053  0.00  0.00     0.052 C 
BRANCH  66  67
HETATM   67  C   UNK N   1      24.598   9.932  -0.264  0.00  0.00     0.115 C 
BRANCH  67  68
HETATM   68  C   UNK N   1      23.957   8.661   0.043  0.00  0.00     0.139 C 
HETATM   69  O   UNK N   1      24.262   8.072   1.064  0.00  0.00    -0.650 OA
BRANCH  68  70
HETATM   70  O   UNK N   1      22.827   8.336  -0.613  0.00  0.00    -0.776 OA
HETATM   71  H   UNK N   1      22.642   7.629  -1.200  0.00  0.00     0.167 HD
ENDBRANCH  68  70
ENDBRANCH  67  68
ENDBRANCH  66  67
ENDBRANCH  13  66
TORSDOF 28
ENDMDL
MODEL 6
REMARK VINA RESULT:      -6.2      1.658      2.960
REMARK  28 active torsions:
REMARK  status: ('A' for Active; 'I' for Inactive)
REMARK    1  A    between atoms: C_2  and  C_3 
REMARK    2  A    between atoms: C_3  and  C_4 
REMARK    3  A    between atoms: C_4  and  O_5 
REMARK    4  A    between atoms: C_10  and  C_11 
REMARK    5  A    between atoms: C_11  and  C_12 
REMARK    6  A    between atoms: C_12  and  C_13 
REMARK    7  A    between atoms: C_13  and  O_14 
REMARK    8  A    between atoms: C_16  and  C_18 
REMARK    9  A    between atoms: C_18  and  C_19 
REMARK   10  A    between atoms: C_19  and  O_20 
REMARK   11  A    between atoms: C_25  and  C_26 
REMARK   12  A    between atoms: C_26  and  C_27 
REMARK   13  A    between atoms: C_27  and  O_28 
REMARK   14  A    between atoms: C_30  and  C_31 
REMARK   15  A    between atoms: C_31  and  C_32 
REMARK   16  A    between atoms: C_32  and  C_33 
REMARK   17  A    between atoms: C_33  and  O_34 
REMARK   18  A    between atoms: C_47  and  C_48 
REMARK   19  A    between atoms: C_48  and  C_49 
REMARK   20  A    between atoms: C_49  and  C_50 
REMARK   21  A    between atoms: C_50  and  O_51 
REMARK   22  A    between atoms: C_53  and  C_54 
REMARK   23  A    between atoms: C_54  and  C_55 
REMARK   24  A    between atoms: C_55  and  O_56 
REMARK   25  A    between atoms: C_58  and  C_59 
REMARK   26  A    between atoms: C_59  and  C_60 
REMARK   27  A    between atoms: C_60  and  C_61 
REMARK   28  A    between atoms: C_61  and  O_62 
ROOT
HETATM    1  C   UNK N   1      31.883  14.085   5.985  0.00  0.00     0.027 C 
HETATM    2  C   UNK N   1      31.652  14.738   4.618  0.00  0.00     0.036 A 
HETATM    3  C   UNK N   1      30.498  14.068   4.023  0.00  0.00     0.050 A 
HETATM    4  C   UNK N   1      30.515  12.806   3.744  0.00  0.00     0.060 C 
HETATM    5  C   UNK N   1      29.456  12.156   3.073  0.00  0.00     0.062 C 
HETATM    6  C   UNK N   1      29.583  10.944   2.604  0.00  0.00    -0.036 C 
HETATM    7  C   UNK N   1      28.483  10.597   1.665  0.00  0.00     0.036 C 
HETATM    8  C   UNK N   1      29.105  10.642   0.266  0.00  0.00     0.027 C 
HETATM    9  C   UNK N   1      27.628  11.803   1.892  0.00  0.00     0.050 C 
HETATM   10  C   UNK N   1      26.450  11.987   1.354  0.00  0.00     0.060 C 
HETATM   11  C   UNK N   1      25.598  13.093   1.727  0.00  0.00     0.067 A 
HETATM   12  C   UNK N   1      24.328  13.262   1.282  0.00  0.00    -0.011 A 
HETATM   13  C   UNK N   1      23.873  14.408   1.903  0.00  0.00    -0.020 A 
HETATM   14  C   UNK N   1      24.862  14.875   2.676  0.00  0.00     0.066 A 
HETATM   15  C   UNK N   1      24.763  16.132   3.401  0.00  0.00     0.064 C 
HETATM   16  C   UNK N   1      25.804  16.831   3.764  0.00  0.00     0.066 C 
HETATM   17  N   UNK N   1      27.059  16.377   3.708  0.00  0.00    -0.248 N 
HETATM   18  C   UNK N   1      27.830  17.413   4.047  0.00  0.00     0.067 C 
HETATM   19  C   UNK N   1      29.111  17.380   4.243  0.00  0.00     0.064 C 
HETATM   20  C   UNK N   1      29.861  16.165   4.265  0.00  0.00     0.063 A 
HETATM   21  N   UNK N   1      29.427  14.932   3.857  0.00  0.00    -0.252 N 
HETATM   22 Fe   UNK N   1      27.658  14.536   3.199  0.00  0.00     0.000 Fe
HETATM   23  N   UNK N   1      28.265  12.731   2.706  0.00  0.00    -0.252 N 
HETATM   24  N   UNK N   1      25.927  14.108   2.539  0.00  0.00    -0.248 N 
HETATM   25  C   UNK N   1      31.078  16.114   4.717  0.00  0.00    -0.036 A 
HETATM   26  C   UNK N   1      27.098  18.543   4.206  0.00  0.00    -0.011 C 
HETATM   27  C   UNK N   1      25.779  18.161   4.161  0.00  0.00    -0.020 C 
ENDROOT
BRANCH   2  28
HETATM   28  C   UNK N   1      32.812  14.735   3.619  0.00  0.00     0.130 C 
BRANCH  28  29
HETATM   29  C   UNK N   1      33.960  13.984   4.160  0.00  0.00     0.140 C 
HETATM   30  O   UNK N   1      34.882  14.584   4.679  0.00  0.00    -0.650 OA
BRANCH  29  31
HETATM   31  O   UNK N   1      34.082  12.678   3.867  0.00  0.00    -0.776 OA
HETATM   32  H   UNK N   1      34.828  12.156   4.086  0.00  0.00     0.167 HD
ENDBRANCH  29  31
ENDBRANCH  28  29
ENDBRANCH   2  28
BRANCH  25  33
HETATM   33  C   UNK N   1      31.762  17.315   5.173  0.00  0.00     0.048 C 
BRANCH  33  34
HETATM   34  C   UNK N   1      32.029  17.266   6.629  0.00  0.00     0.114 C 
BRANCH  34  35
HETATM   35  C   UNK N   1      33.418  17.727   6.656  0.00  0.00     0.139 C 
HETATM   36  O   UNK N   1      34.122  17.583   5.674  0.00  0.00    -0.650 OA
BRANCH  35  37
HETATM   37  O   UNK N   1      33.846  18.470   7.695  0.00  0.00    -0.776 OA
HETATM   38  H   UNK N   1      33.354  18.994   8.295  0.00  0.00     0.167 HD
ENDBRANCH  35  37
ENDBRANCH  34  35
ENDBRANCH  33  34
ENDBRANCH  25  33
BRANCH   6  39
HETATM   39  C   UNK N   1      30.769  10.120   2.853  0.00  0.00     0.048 C 
BRANCH  39  40
HETATM   40  C   UNK N   1      30.386   9.061   3.846  0.00  0.00     0.114 C 
BRANCH  40  41
HETATM   41  C   UNK N   1      30.981   9.498   5.101  0.00  0.00     0.139 C 
HETATM   42  O   UNK N   1      32.177   9.726   5.153  0.00  0.00    -0.650 OA
BRANCH  41  43
HETATM   43  O   UNK N   1      30.226   9.546   6.208  0.00  0.00    -0.776 OA
HETATM   44  H   UNK N   1      30.592   9.787   7.036  0.00  0.00     0.167 HD
ENDBRANCH  41  43
ENDBRANCH  40  41
ENDBRANCH  39  40
ENDBRANCH   6  39
BRANCH   7  45
HETATM   45  C   UNK N   1      27.808   9.277   2.040  0.00  0.00     0.130 C 
BRANCH  45  46
HETATM   46  C   UNK N   1      27.618   8.445   0.816  0.00  0.00     0.140 C 
HETATM   47  O   UNK N   1      28.323   7.469   0.623  0.00  0.00    -0.650 OA
BRANCH  46  48
HETATM   48  O   UNK N   1      26.507   8.624   0.079  0.00  0.00    -0.776 OA
HETATM   49  H   UNK N   1      25.947   9.372   0.158  0.00  0.00     0.167 HD
ENDBRANCH  46  48
ENDBRANCH  45  46
ENDBRANCH   7  45
BRANCH  26  50
HETATM   50  C   UNK N   1      27.705  19.899   4.348  0.00  0.00     0.151 C 
BRANCH  50  51
HETATM   51  C   UNK N   1      27.585  20.470   5.691  0.00  0.00     0.143 C 
HETATM   52  O   UNK N   1      27.919  19.807   6.659  0.00  0.00    -0.650 OA
BRANCH  51  53
HETATM   53  O   UNK N   1      27.172  21.736   5.844  0.00  0.00    -0.776 OA
HETATM   54  H   UNK N   1      27.058  22.402   5.195  0.00  0.00     0.167 HD
ENDBRANCH  51  53
ENDBRANCH  50  51
ENDBRANCH  26  50
BRANCH  27  55
HETATM   55  C   UNK N   1      24.605  19.042   4.513  0.00  0.00     0.052 C 
BRANCH  55  56
HETATM   56  C   UNK N   1      23.961  19.883   3.432  0.00  0.00     0.115 C 
BRANCH  56  57
HETATM   57  C   UNK N   1      22.503  19.652   3.320  0.00  0.00     0.139 C 
HETATM   58  O   UNK N   1      21.727  20.591   3.219  0.00  0.00    -0.650 OA
BRANCH  57  59
HETATM   59  O   UNK N   1      22.039  18.392   3.394  0.00  0.00    -0.776 OA
HETATM   60  H   UNK N   1      21.749  17.692   2.844  0.00  0.00     0.167 HD
ENDBRANCH  57  59
ENDBRANCH  56  57
ENDBRANCH  55  56
ENDBRANCH  27  55
BRANCH  12  61
HETATM   61  C   UNK N   1      23.659  12.425   0.238  0.00  0.00     0.151 C 
BRANCH  61  62
HETATM   62  C   UNK N   1      22.684  11.420   0.784  0.00  0.00     0.143 C 
HETATM   63  O   UNK N   1      23.072  10.599   1.594  0.00  0.00    -0.650 OA
BRANCH  62  64
HETATM   64  O   UNK N   1      21.397  11.394   0.393  0.00  0.00    -0.776 OA
HETATM   65  H   UNK N   1      20.955  10.934  -0.292  0.00  0.00     0.167 HD
ENDBRANCH  62  64
ENDBRANCH  61  62
ENDBRANCH  12  61
BRANCH  13  66
HETATM   66  C   UNK N   1      22.659  15.169   1.711  0.00  0.00     0.052 C 
BRANCH  66  67
HETATM   67  C   UNK N   1      21.504  14.511   2.346  0.00  0.00     0.115 C 
BRANCH  67  68
HETATM   68  C   UNK N   1      20.433  15.187   1.624  0.00  0.00     0.139 C 
HETATM   69  O   UNK N   1      20.696  15.793   0.602  0.00  0.00    -0.650 OA
BRANCH  68  70
HETATM   70  O   UNK N   1      19.160  14.853   1.905  0.00  0.00    -0.776 OA
HETATM   71  H   UNK N   1      18.380  14.934   1.392  0.00  0.00     0.167 HD
ENDBRANCH  68  70
ENDBRANCH  67  68
ENDBRANCH  66  67
ENDBRANCH  13  66
TORSDOF 28
ENDMDL
MODEL 7
REMARK VINA RESULT:      -6.2      1.444      7.620
REMARK  28 active torsions:
REMARK  status: ('A' for Active; 'I' for Inactive)
REMARK    1  A    between atoms: C_2  and  C_3 
REMARK    2  A    between atoms: C_3  and  C_4 
REMARK    3  A    between atoms: C_4  and  O_5 
REMARK    4  A    between atoms: C_10  and  C_11 
REMARK    5  A    between atoms: C_11  and  C_12 
REMARK    6  A    between atoms: C_12  and  C_13 
REMARK    7  A    between atoms: C_13  and  O_14 
REMARK    8  A    between atoms: C_16  and  C_18 
REMARK    9  A    between atoms: C_18  and  C_19 
REMARK   10  A    between atoms: C_19  and  O_20 
REMARK   11  A    between atoms: C_25  and  C_26 
REMARK   12  A    between atoms: C_26  and  C_27 
REMARK   13  A    between atoms: C_27  and  O_28 
REMARK   14  A    between atoms: C_30  and  C_31 
REMARK   15  A    between atoms: C_31  and  C_32 
REMARK   16  A    between atoms: C_32  and  C_33 
REMARK   17  A    between atoms: C_33  and  O_34 
REMARK   18  A    between atoms: C_47  and  C_48 
REMARK   19  A    between atoms: C_48  and  C_49 
REMARK   20  A    between atoms: C_49  and  C_50 
REMARK   21  A    between atoms: C_50  and  O_51 
REMARK   22  A    between atoms: C_53  and  C_54 
REMARK   23  A    between atoms: C_54  and  C_55 
REMARK   24  A    between atoms: C_55  and  O_56 
REMARK   25  A    between atoms: C_58  and  C_59 
REMARK   26  A    between atoms: C_59  and  C_60 
REMARK   27  A    between atoms: C_60  and  C_61 
REMARK   28  A    between atoms: C_61  and  O_62 
ROOT
HETATM    1  C   UNK N   1      23.613  12.304  -0.203  0.00  0.00     0.027 C 
HETATM    2  C   UNK N   1      23.520  12.167   1.320  0.00  0.00     0.036 A 
HETATM    3  C   UNK N   1      24.858  12.427   1.846  0.00  0.00     0.050 A 
HETATM    4  C   UNK N   1      25.865  11.673   1.546  0.00  0.00     0.060 C 
HETATM    5  C   UNK N   1      27.143  11.837   2.122  0.00  0.00     0.062 C 
HETATM    6  C   UNK N   1      28.080  10.939   1.980  0.00  0.00    -0.036 C 
HETATM    7  C   UNK N   1      29.204  11.157   2.929  0.00  0.00     0.036 C 
HETATM    8  C   UNK N   1      29.055  10.075   4.002  0.00  0.00     0.027 C 
HETATM    9  C   UNK N   1      28.769  12.484   3.464  0.00  0.00     0.050 C 
HETATM   10  C   UNK N   1      29.459  13.203   4.311  0.00  0.00     0.060 C 
HETATM   11  C   UNK N   1      29.068  14.546   4.677  0.00  0.00     0.067 A 
HETATM   12  C   UNK N   1      29.810  15.369   5.461  0.00  0.00    -0.011 A 
HETATM   13  C   UNK N   1      29.096  16.549   5.528  0.00  0.00    -0.020 A 
HETATM   14  C   UNK N   1      27.981  16.394   4.802  0.00  0.00     0.066 A 
HETATM   15  C   UNK N   1      26.943  17.411   4.735  0.00  0.00     0.064 C 
HETATM   16  C   UNK N   1      25.698  17.144   4.451  0.00  0.00     0.066 C 
HETATM   17  N   UNK N   1      25.280  15.964   3.985  0.00  0.00    -0.248 N 
HETATM   18  C   UNK N   1      23.949  16.049   3.934  0.00  0.00     0.067 C 
HETATM   19  C   UNK N   1      23.146  15.170   3.423  0.00  0.00     0.064 C 
HETATM   20  C   UNK N   1      23.605  14.031   2.693  0.00  0.00     0.063 A 
HETATM   21  N   UNK N   1      24.892  13.567   2.633  0.00  0.00    -0.252 N 
HETATM   22 Fe   UNK N   1      26.413  14.389   3.488  0.00  0.00     0.000 Fe
HETATM   23  N   UNK N   1      27.511  12.834   2.991  0.00  0.00    -0.252 N 
HETATM   24  N   UNK N   1      27.935  15.166   4.321  0.00  0.00    -0.248 N 
HETATM   25  C   UNK N   1      22.806  13.308   1.967  0.00  0.00    -0.036 A 
HETATM   26  C   UNK N   1      23.508  17.216   4.465  0.00  0.00    -0.011 C 
HETATM   27  C   UNK N   1      24.622  17.991   4.680  0.00  0.00    -0.020 C 
ENDROOT
BRANCH   2  28
HETATM   28  C   UNK N   1      23.000  10.845   1.888  0.00  0.00     0.130 C 
BRANCH  28  29
HETATM   29  C   UNK N   1      22.284  10.080   0.849  0.00  0.00     0.140 C 
HETATM   30  O   UNK N   1      22.882   9.242   0.199  0.00  0.00    -0.650 OA
BRANCH  29  31
HETATM   31  O   UNK N   1      21.057  10.477   0.476  0.00  0.00    -0.776 OA
HETATM   32  H   UNK N   1      20.606  10.156  -0.280  0.00  0.00     0.167 HD
ENDBRANCH  29  31
ENDBRANCH  28  29
ENDBRANCH   2  28
BRANCH  25  33
HETATM   33  C   UNK N   1      21.380  13.592   1.908  0.00  0.00     0.048 C 
BRANCH  33  34
HETATM   34  C   UNK N   1      21.025  14.327   0.672  0.00  0.00     0.114 C 
BRANCH  34  35
HETATM   35  C   UNK N   1      19.618  13.944   0.536  0.00  0.00     0.139 C 
HETATM   36  O   UNK N   1      19.330  12.861   0.062  0.00  0.00    -0.650 OA
BRANCH  35  37
HETATM   37  O   UNK N   1      18.669  14.712   1.103  0.00  0.00    -0.776 OA
HETATM   38  H   UNK N   1      18.759  15.435   1.692  0.00  0.00     0.167 HD
ENDBRANCH  35  37
ENDBRANCH  34  35
ENDBRANCH  33  34
ENDBRANCH  25  33
BRANCH   6  39
HETATM   39  C   UNK N   1      27.929   9.770   1.109  0.00  0.00     0.048 C 
BRANCH  39  40
HETATM   40  C   UNK N   1      28.650  10.063  -0.174  0.00  0.00     0.114 C 
BRANCH  40  41
HETATM   41  C   UNK N   1      29.121   8.766  -0.640  0.00  0.00     0.139 C 
HETATM   42  O   UNK N   1      28.393   8.074  -1.331  0.00  0.00    -0.650 OA
BRANCH  41  43
HETATM   43  O   UNK N   1      30.307   8.304  -0.220  0.00  0.00    -0.776 OA
HETATM   44  H   UNK N   1      30.428   7.998   0.657  0.00  0.00     0.167 HD
ENDBRANCH  41  43
ENDBRANCH  40  41
ENDBRANCH  39  40
ENDBRANCH   6  39
BRANCH   7  45
HETATM   45  C   UNK N   1      30.556  11.190   2.213  0.00  0.00     0.130 C 
BRANCH  45  46
HETATM   46  C   UNK N   1      31.449  10.138   2.780  0.00  0.00     0.140 C 
HETATM   47  O   UNK N   1      31.554   9.058   2.224  0.00  0.00    -0.650 OA
BRANCH  46  48
HETATM   48  O   UNK N   1      32.324  10.483   3.742  0.00  0.00    -0.776 OA
HETATM   49  H   UNK N   1      33.177  10.829   3.566  0.00  0.00     0.167 HD
ENDBRANCH  46  48
ENDBRANCH  45  46
ENDBRANCH   7  45
BRANCH  26  50
HETATM   50  C   UNK N   1      22.071  17.489   4.765  0.00  0.00     0.151 C 
BRANCH  50  51
HETATM   51  C   UNK N   1      21.746  17.484   6.192  0.00  0.00     0.143 C 
HETATM   52  O   UNK N   1      21.822  16.443   6.823  0.00  0.00    -0.650 OA
BRANCH  51  53
HETATM   53  O   UNK N   1      21.431  18.631   6.810  0.00  0.00    -0.776 OA
HETATM   54  H   UNK N   1      20.586  18.962   7.044  0.00  0.00     0.167 HD
ENDBRANCH  51  53
ENDBRANCH  50  51
ENDBRANCH  26  50
BRANCH  27  55
HETATM   55  C   UNK N   1      24.607  19.454   5.051  0.00  0.00     0.052 C 
BRANCH  55  56
HETATM   56  C   UNK N   1      25.234  20.461   4.112  0.00  0.00     0.115 C 
BRANCH  56  57
HETATM   57  C   UNK N   1      24.450  20.652   2.871  0.00  0.00     0.139 C 
HETATM   58  O   UNK N   1      24.985  20.573   1.774  0.00  0.00    -0.650 OA
BRANCH  57  59
HETATM   59  O   UNK N   1      23.149  20.979   2.969  0.00  0.00    -0.776 OA
HETATM   60  H   UNK N   1      22.526  21.301   3.591  0.00  0.00     0.167 HD
ENDBRANCH  57  59
ENDBRANCH  56  57
ENDBRANCH  55  56
ENDBRANCH  27  55
BRANCH  12  61
HETATM   61  C   UNK N   1      31.062  14.981   6.181  0.00  0.00     0.151 C 
BRANCH  61  62
HETATM   62  C   UNK N   1      32.316  15.573   5.601  0.00  0.00     0.143 C 
HETATM   63  O   UNK N   1      33.021  14.884   4.889  0.00  0.00    -0.650 OA
BRANCH  62  64
HETATM   64  O   UNK N   1      32.686  16.841   5.858  0.00  0.00    -0.776 OA
HETATM   65  H   UNK N   1      32.201  17.602   6.108  0.00  0.00     0.167 HD
ENDBRANCH  62  64
ENDBRANCH  61  62
ENDBRANCH  12  61
BRANCH  13  66
HETATM   66  C   UNK N   1      29.302  17.734   6.329  0.00  0.00     0.052 C 
BRANCH  66  67
HETATM   67  C   UNK N   1      29.223  17.433   7.768  0.00  0.00     0.115 C 
BRANCH  67  68
HETATM   68  C   UNK N   1      28.293  18.480   8.169  0.00  0.00     0.139 C 
HETATM   69  O   UNK N   1      28.051  19.388   7.394  0.00  0.00    -0.650 OA
BRANCH  68  70
HETATM   70  O   UNK N   1      27.483  18.253   9.219  0.00  0.00    -0.776 OA
HETATM   71  H   UNK N   1      27.314  17.468   9.702  0.00  0.00     0.167 HD
ENDBRANCH  68  70
ENDBRANCH  67  68
ENDBRANCH  66  67
ENDBRANCH  13  66
TORSDOF 28
ENDMDL
MODEL 8
REMARK VINA RESULT:      -6.0      2.105      7.427
REMARK  28 active torsions:
REMARK  status: ('A' for Active; 'I' for Inactive)
REMARK    1  A    between atoms: C_2  and  C_3 
REMARK    2  A    between atoms: C_3  and  C_4 
REMARK    3  A    between atoms: C_4  and  O_5 
REMARK    4  A    between atoms: C_10  and  C_11 
REMARK    5  A    between atoms: C_11  and  C_12 
REMARK    6  A    between atoms: C_12  and  C_13 
REMARK    7  A    between atoms: C_13  and  O_14 
REMARK    8  A    between atoms: C_16  and  C_18 
REMARK    9  A    between atoms: C_18  and  C_19 
REMARK   10  A    between atoms: C_19  and  O_20 
REMARK   11  A    between atoms: C_25  and  C_26 
REMARK   12  A    between atoms: C_26  and  C_27 
REMARK   13  A    between atoms: C_27  and  O_28 
REMARK   14  A    between atoms: C_30  and  C_31 
REMARK   15  A    between atoms: C_31  and  C_32 
REMARK   16  A    between atoms: C_32  and  C_33 
REMARK   17  A    between atoms: C_33  and  O_34 
REMARK   18  A    between atoms: C_47  and  C_48 
REMARK   19  A    between atoms: C_48  and  C_49 
REMARK   20  A    between atoms: C_49  and  C_50 
REMARK   21  A    between atoms: C_50  and  O_51 
REMARK   22  A    between atoms: C_53  and  C_54 
REMARK   23  A    between atoms: C_54  and  C_55 
REMARK   24  A    between atoms: C_55  and  O_56 
REMARK   25  A    between atoms: C_58  and  C_59 
REMARK   26  A    between atoms: C_59  and  C_60 
REMARK   27  A    between atoms: C_60  and  C_61 
REMARK   28  A    between atoms: C_61  and  O_62 
ROOT
HETATM    1  C   UNK N   1      26.911  18.042   6.457  0.00  0.00     0.027 C 
HETATM    2  C   UNK N   1      27.232  18.129   4.961  0.00  0.00     0.036 A 
HETATM    3  C   UNK N   1      28.241  17.108   4.689  0.00  0.00     0.050 A 
HETATM    4  C   UNK N   1      29.410  17.143   5.242  0.00  0.00     0.060 C 
HETATM    5  C   UNK N   1      30.438  16.232   4.918  0.00  0.00     0.062 C 
HETATM    6  C   UNK N   1      31.669  16.417   5.314  0.00  0.00    -0.036 C 
HETATM    7  C   UNK N   1      32.621  15.533   4.591  0.00  0.00     0.036 C 
HETATM    8  C   UNK N   1      33.357  16.440   3.600  0.00  0.00     0.027 C 
HETATM    9  C   UNK N   1      31.616  14.687   3.875  0.00  0.00     0.050 C 
HETATM   10  C   UNK N   1      31.915  13.659   3.125  0.00  0.00     0.060 C 
HETATM   11  C   UNK N   1      30.902  12.782   2.583  0.00  0.00     0.067 A 
HETATM   12  C   UNK N   1      31.167  11.642   1.897  0.00  0.00    -0.011 A 
HETATM   13  C   UNK N   1      29.932  11.102   1.596  0.00  0.00    -0.020 A 
HETATM   14  C   UNK N   1      28.996  11.918   2.098  0.00  0.00     0.066 A 
HETATM   15  C   UNK N   1      27.573  11.706   1.877  0.00  0.00     0.064 C 
HETATM   16  C   UNK N   1      26.692  12.667   1.930  0.00  0.00     0.066 C 
HETATM   17  N   UNK N   1      26.955  13.890   2.398  0.00  0.00    -0.248 N 
HETATM   18  C   UNK N   1      25.848  14.604   2.179  0.00  0.00     0.067 C 
HETATM   19  C   UNK N   1      25.623  15.811   2.591  0.00  0.00     0.064 C 
HETATM   20  C   UNK N   1      26.497  16.501   3.486  0.00  0.00     0.063 A 
HETATM   21  N   UNK N   1      27.766  16.125   3.836  0.00  0.00    -0.252 N 
HETATM   22 Fe   UNK N   1      28.660  14.525   3.234  0.00  0.00     0.000 Fe
HETATM   23  N   UNK N   1      30.326  15.166   4.061  0.00  0.00    -0.252 N 
HETATM   24  N   UNK N   1      29.575  12.962   2.657  0.00  0.00    -0.248 N 
HETATM   25  C   UNK N   1      26.140  17.591   4.096  0.00  0.00    -0.036 A 
HETATM   26  C   UNK N   1      24.931  13.890   1.478  0.00  0.00    -0.011 C 
HETATM   27  C   UNK N   1      25.400  12.600   1.426  0.00  0.00    -0.020 C 
ENDROOT
BRANCH   2  28
HETATM   28  C   UNK N   1      27.711  19.474   4.409  0.00  0.00     0.130 C 
BRANCH  28  29
HETATM   29  C   UNK N   1      27.263  20.579   5.278  0.00  0.00     0.140 C 
HETATM   30  O   UNK N   1      28.014  21.017   6.130  0.00  0.00    -0.650 OA
BRANCH  29  31
HETATM   31  O   UNK N   1      25.965  20.925   5.277  0.00  0.00    -0.776 OA
HETATM   32  H   UNK N   1      25.590  21.564   4.704  0.00  0.00     0.167 HD
ENDBRANCH  29  31
ENDBRANCH  28  29
ENDBRANCH   2  28
BRANCH  25  33
HETATM   33  C   UNK N   1      24.841  18.199   3.849  0.00  0.00     0.048 C 
BRANCH  33  34
HETATM   34  C   UNK N   1      23.827  17.720   4.816  0.00  0.00     0.114 C 
BRANCH  34  35
HETATM   35  C   UNK N   1      22.613  17.846   4.006  0.00  0.00     0.139 C 
HETATM   36  O   UNK N   1      21.889  16.882   3.849  0.00  0.00    -0.650 OA
BRANCH  35  37
HETATM   37  O   UNK N   1      22.217  19.068   3.599  0.00  0.00    -0.776 OA
HETATM   38  H   UNK N   1      21.364  19.368   3.359  0.00  0.00     0.167 HD
ENDBRANCH  35  37
ENDBRANCH  34  35
ENDBRANCH  33  34
ENDBRANCH  25  33
BRANCH   6  39
HETATM   39  C   UNK N   1      32.051  17.497   6.229  0.00  0.00     0.048 C 
BRANCH  39  40
HETATM   40  C   UNK N   1      32.300  16.882   7.576  0.00  0.00     0.114 C 
BRANCH  40  41
HETATM   41  C   UNK N   1      33.483  17.566   8.081  0.00  0.00     0.139 C 
HETATM   42  O   UNK N   1      34.200  18.179   7.308  0.00  0.00    -0.650 OA
BRANCH  41  43
HETATM   43  O   UNK N   1      33.826  17.428   9.369  0.00  0.00    -0.776 OA
HETATM   44  H   UNK N   1      34.661  17.085   9.617  0.00  0.00     0.167 HD
ENDBRANCH  41  43
ENDBRANCH  40  41
ENDBRANCH  39  40
ENDBRANCH   6  39
BRANCH   7  45
HETATM   45  C   UNK N   1      33.516  14.751   5.554  0.00  0.00     0.130 C 
BRANCH  45  46
HETATM   46  C   UNK N   1      34.942  14.886   5.134  0.00  0.00     0.140 C 
HETATM   47  O   UNK N   1      35.709  15.577   5.781  0.00  0.00    -0.650 OA
BRANCH  46  48
HETATM   48  O   UNK N   1      35.424  14.039   4.206  0.00  0.00    -0.776 OA
HETATM   49  H   UNK N   1      35.578  14.280   3.314  0.00  0.00     0.167 HD
ENDBRANCH  46  48
ENDBRANCH  45  46
ENDBRANCH   7  45
BRANCH  26  50
HETATM   50  C   UNK N   1      23.705  14.496   0.881  0.00  0.00     0.151 C 
BRANCH  50  51
HETATM   51  C   UNK N   1      22.488  14.280   1.666  0.00  0.00     0.143 C 
HETATM   52  O   UNK N   1      21.410  14.218   1.100  0.00  0.00    -0.650 OA
BRANCH  51  53
HETATM   53  O   UNK N   1      22.573  14.087   2.990  0.00  0.00    -0.776 OA
HETATM   54  H   UNK N   1      23.331  13.919   3.514  0.00  0.00     0.167 HD
ENDBRANCH  51  53
ENDBRANCH  50  51
ENDBRANCH  26  50
BRANCH  27  55
HETATM   55  C   UNK N   1      24.613  11.407   0.943  0.00  0.00     0.052 C 
BRANCH  55  56
HETATM   56  C   UNK N   1      23.828  10.585   1.942  0.00  0.00     0.115 C 
BRANCH  56  57
HETATM   57  C   UNK N   1      22.364  10.749   1.795  0.00  0.00     0.139 C 
HETATM   58  O   UNK N   1      21.830  10.646   0.701  0.00  0.00    -0.650 OA
BRANCH  57  59
HETATM   59  O   UNK N   1      21.637  11.078   2.878  0.00  0.00    -0.776 OA
HETATM   60  H   UNK N   1      21.739  11.288   3.785  0.00  0.00     0.167 HD
ENDBRANCH  57  59
ENDBRANCH  56  57
ENDBRANCH  55  56
ENDBRANCH  27  55
BRANCH  12  61
HETATM   61  C   UNK N   1      32.526  11.184   1.471  0.00  0.00     0.151 C 
BRANCH  61  62
HETATM   62  C   UNK N   1      33.056  11.880   0.249  0.00  0.00     0.143 C 
HETATM   63  O   UNK N   1      33.753  12.867   0.386  0.00  0.00    -0.650 OA
BRANCH  62  64
HETATM   64  O   UNK N   1      32.769  11.449  -0.994  0.00  0.00    -0.776 OA
HETATM   65  H   UNK N   1      33.227  11.522  -1.807  0.00  0.00     0.167 HD
ENDBRANCH  62  64
ENDBRANCH  61  62
ENDBRANCH  12  61
BRANCH  13  66
HETATM   66  C   UNK N   1      29.570   9.981   0.758  0.00  0.00     0.052 C 
BRANCH  66  67
HETATM   67  C   UNK N   1      29.580  10.348  -0.668  0.00  0.00     0.115 C 
BRANCH  67  68
HETATM   68  C   UNK N   1      30.131   9.115  -1.216  0.00  0.00     0.139 C 
HETATM   69  O   UNK N   1      29.489   8.493  -2.043  0.00  0.00    -0.650 OA
BRANCH  68  70
HETATM   70  O   UNK N   1      31.446   8.874  -1.059  0.00  0.00    -0.776 OA
HETATM   71  H   UNK N   1      31.943   8.090  -1.191  0.00  0.00     0.167 HD
ENDBRANCH  68  70
ENDBRANCH  67  68
ENDBRANCH  66  67
ENDBRANCH  13  66
TORSDOF 28
ENDMDL
MODEL 9
REMARK VINA RESULT:      -6.0      2.075      7.803
REMARK  28 active torsions:
REMARK  status: ('A' for Active; 'I' for Inactive)
REMARK    1  A    between atoms: C_2  and  C_3 
REMARK    2  A    between atoms: C_3  and  C_4 
REMARK    3  A    between atoms: C_4  and  O_5 
REMARK    4  A    between atoms: C_10  and  C_11 
REMARK    5  A    between atoms: C_11  and  C_12 
REMARK    6  A    between atoms: C_12  and  C_13 
REMARK    7  A    between atoms: C_13  and  O_14 
REMARK    8  A    between atoms: C_16  and  C_18 
REMARK    9  A    between atoms: C_18  and  C_19 
REMARK   10  A    between atoms: C_19  and  O_20 
REMARK   11  A    between atoms: C_25  and  C_26 
REMARK   12  A    between atoms: C_26  and  C_27 
REMARK   13  A    between atoms: C_27  and  O_28 
REMARK   14  A    between atoms: C_30  and  C_31 
REMARK   15  A    between atoms: C_31  and  C_32 
REMARK   16  A    between atoms: C_32  and  C_33 
REMARK   17  A    between atoms: C_33  and  O_34 
REMARK   18  A    between atoms: C_47  and  C_48 
REMARK   19  A    between atoms: C_48  and  C_49 
REMARK   20  A    between atoms: C_49  and  C_50 
REMARK   21  A    between atoms: C_50  and  O_51 
REMARK   22  A    between atoms: C_53  and  C_54 
REMARK   23  A    between atoms: C_54  and  C_55 
REMARK   24  A    between atoms: C_55  and  O_56 
REMARK   25  A    between atoms: C_58  and  C_59 
REMARK   26  A    between atoms: C_59  and  C_60 
REMARK   27  A    between atoms: C_60  and  C_61 
REMARK   28  A    between atoms: C_61  and  O_62 
ROOT
HETATM    1  C   UNK N   1      29.428  12.179   0.151  0.00  0.00     0.027 C 
HETATM    2  C   UNK N   1      28.918  11.840   1.556  0.00  0.00     0.036 A 
HETATM    3  C   UNK N   1      29.496  12.830   2.461  0.00  0.00     0.050 A 
HETATM    4  C   UNK N   1      30.773  12.932   2.632  0.00  0.00     0.060 C 
HETATM    5  C   UNK N   1      31.353  13.806   3.577  0.00  0.00     0.062 C 
HETATM    6  C   UNK N   1      32.619  13.734   3.891  0.00  0.00    -0.036 C 
HETATM    7  C   UNK N   1      32.927  14.508   5.123  0.00  0.00     0.036 C 
HETATM    8  C   UNK N   1      33.132  13.465   6.226  0.00  0.00     0.027 C 
HETATM    9  C   UNK N   1      31.600  15.181   5.283  0.00  0.00     0.050 C 
HETATM   10  C   UNK N   1      31.328  16.070   6.202  0.00  0.00     0.060 C 
HETATM   11  C   UNK N   1      30.081  16.803   6.217  0.00  0.00     0.067 A 
HETATM   12  C   UNK N   1      29.801  17.813   7.079  0.00  0.00    -0.011 A 
HETATM   13  C   UNK N   1      28.538  18.249   6.730  0.00  0.00    -0.020 A 
HETATM   14  C   UNK N   1      28.118  17.504   5.700  0.00  0.00     0.066 A 
HETATM   15  C   UNK N   1      26.781  17.626   5.139  0.00  0.00     0.064 C 
HETATM   16  C   UNK N   1      26.188  16.661   4.492  0.00  0.00     0.066 C 
HETATM   17  N   UNK N   1      26.807  15.549   4.086  0.00  0.00    -0.248 N 
HETATM   18  C   UNK N   1      25.849  14.771   3.575  0.00  0.00     0.067 C 
HETATM   19  C   UNK N   1      26.028  13.649   2.954  0.00  0.00     0.064 C 
HETATM   20  C   UNK N   1      27.320  13.157   2.594  0.00  0.00     0.063 A 
HETATM   21  N   UNK N   1      28.524  13.631   3.041  0.00  0.00    -0.252 N 
HETATM   22 Fe   UNK N   1      28.759  15.128   4.233  0.00  0.00     0.000 Fe
HETATM   23  N   UNK N   1      30.674  14.700   4.366  0.00  0.00    -0.252 N 
HETATM   24  N   UNK N   1      29.029  16.594   5.413  0.00  0.00    -0.248 N 
HETATM   25  C   UNK N   1      27.477  12.180   1.752  0.00  0.00    -0.036 A 
HETATM   26  C   UNK N   1      24.621  15.318   3.753  0.00  0.00    -0.011 C 
HETATM   27  C   UNK N   1      24.828  16.594   4.219  0.00  0.00    -0.020 C 
ENDROOT
BRANCH   2  28
HETATM   28  C   UNK N   1      29.194  10.436   2.097  0.00  0.00     0.130 C 
BRANCH  28  29
HETATM   29  C   UNK N   1      29.941   9.637   1.108  0.00  0.00     0.140 C 
HETATM   30  O   UNK N   1      29.346   8.852   0.393  0.00  0.00    -0.650 OA
BRANCH  29  31
HETATM   31  O   UNK N   1      31.283   9.612   1.169  0.00  0.00    -0.776 OA
HETATM   32  H   UNK N   1      31.823   9.028   0.674  0.00  0.00     0.167 HD
ENDBRANCH  29  31
ENDBRANCH  28  29
ENDBRANCH   2  28
BRANCH  25  33
HETATM   33  C   UNK N   1      26.331  11.495   1.173  0.00  0.00     0.048 C 
BRANCH  33  34
HETATM   34  C   UNK N   1      25.809  10.449   2.081  0.00  0.00     0.114 C 
BRANCH  34  35
HETATM   35  C   UNK N   1      24.406  10.416   1.665  0.00  0.00     0.139 C 
HETATM   36  O   UNK N   1      23.752   9.403   1.824  0.00  0.00    -0.650 OA
BRANCH  35  37
HETATM   37  O   UNK N   1      23.806  11.560   1.284  0.00  0.00    -0.776 OA
HETATM   38  H   UNK N   1      23.103  11.692   0.680  0.00  0.00     0.167 HD
ENDBRANCH  35  37
ENDBRANCH  34  35
ENDBRANCH  33  34
ENDBRANCH  25  33
BRANCH   6  39
HETATM   39  C   UNK N   1      33.557  12.847   3.197  0.00  0.00     0.048 C 
BRANCH  39  40
HETATM   40  C   UNK N   1      34.115  13.602   2.027  0.00  0.00     0.114 C 
BRANCH  40  41
HETATM   41  C   UNK N   1      33.958  12.700   0.895  0.00  0.00     0.139 C 
HETATM   42  O   UNK N   1      33.630  11.542   1.089  0.00  0.00    -0.650 OA
BRANCH  41  43
HETATM   43  O   UNK N   1      34.274  13.124  -0.337  0.00  0.00    -0.776 OA
HETATM   44  H   UNK N   1      35.165  13.243  -0.597  0.00  0.00     0.167 HD
ENDBRANCH  41  43
ENDBRANCH  40  41
ENDBRANCH  39  40
ENDBRANCH   6  39
BRANCH   7  45
HETATM   45  C   UNK N   1      34.091  15.477   4.911  0.00  0.00     0.130 C 
BRANCH  45  46
HETATM   46  C   UNK N   1      34.972  15.473   6.116  0.00  0.00     0.140 C 
HETATM   47  O   UNK N   1      36.087  14.985   6.059  0.00  0.00    -0.650 OA
BRANCH  46  48
HETATM   48  O   UNK N   1      34.630  16.240   7.168  0.00  0.00    -0.776 OA
HETATM   49  H   UNK N   1      33.864  16.779   7.189  0.00  0.00     0.167 HD
ENDBRANCH  46  48
ENDBRANCH  45  46
ENDBRANCH   7  45
BRANCH  26  50
HETATM   50  C   UNK N   1      23.350  14.577   3.505  0.00  0.00     0.151 C 
BRANCH  50  51
HETATM   51  C   UNK N   1      22.686  14.930   2.249  0.00  0.00     0.143 C 
HETATM   52  O   UNK N   1      21.727  15.683   2.266  0.00  0.00    -0.650 OA
BRANCH  51  53
HETATM   53  O   UNK N   1      23.175  14.478   1.085  0.00  0.00    -0.776 OA
HETATM   54  H   UNK N   1      22.895  13.744   0.573  0.00  0.00     0.167 HD
ENDBRANCH  51  53
ENDBRANCH  50  51
ENDBRANCH  26  50
BRANCH  27  55
HETATM   55  C   UNK N   1      23.764  17.657   4.349  0.00  0.00     0.052 C 
BRANCH  55  56
HETATM   56  C   UNK N   1      24.013  19.029   3.762  0.00  0.00     0.115 C 
BRANCH  56  57
HETATM   57  C   UNK N   1      22.768  19.703   3.332  0.00  0.00     0.139 C 
HETATM   58  O   UNK N   1      21.684  19.148   3.445  0.00  0.00    -0.650 OA
BRANCH  57  59
HETATM   59  O   UNK N   1      22.853  20.914   2.753  0.00  0.00    -0.776 OA
HETATM   60  H   UNK N   1      22.459  21.764   2.786  0.00  0.00     0.167 HD
ENDBRANCH  57  59
ENDBRANCH  56  57
ENDBRANCH  55  56
ENDBRANCH  27  55
BRANCH  12  61
HETATM   61  C   UNK N   1      30.661  18.233   8.229  0.00  0.00     0.151 C 
BRANCH  61  62
HETATM   62  C   UNK N   1      30.060  17.959   9.580  0.00  0.00     0.143 C 
HETATM   63  O   UNK N   1      29.652  18.891  10.245  0.00  0.00    -0.650 OA
BRANCH  62  64
HETATM   64  O   UNK N   1      29.974  16.711  10.078  0.00  0.00    -0.776 OA
HETATM   65  H   UNK N   1      30.450  16.266  10.750  0.00  0.00     0.167 HD
ENDBRANCH  62  64
ENDBRANCH  61  62
ENDBRANCH  12  61
BRANCH  13  66
HETATM   66  C   UNK N   1      27.653  19.192   7.376  0.00  0.00     0.052 C 
BRANCH  66  67
HETATM   67  C   UNK N   1      27.888  20.566   6.901  0.00  0.00     0.115 C 
BRANCH  67  68
HETATM   68  C   UNK N   1      26.504  21.011   6.799  0.00  0.00     0.139 C 
HETATM   69  O   UNK N   1      25.935  21.415   7.796  0.00  0.00    -0.650 OA
BRANCH  68  70
HETATM   70  O   UNK N   1      26.005  21.280   5.579  0.00  0.00    -0.776 OA
HETATM   71  H   UNK N   1      26.210  21.964   4.971  0.00  0.00     0.167 HD
ENDBRANCH  68  70
ENDBRANCH  67  68
ENDBRANCH  66  67
ENDBRANCH  13  66
TORSDOF 28
ENDMDL
