REMARK  2 active torsions:
REMARK  status: ('A' for Active; 'I' for Inactive)
REMARK    1  A    between atoms: S_2  and  S_3 
REMARK    2  A    between atoms: S_3  and  S_4 
ROOT
HETATM    1  S   UNK N   1       0.998  -1.062   0.000  0.00  0.00     0.000 SA
ENDROOT
BRANCH   1   2
HETATM    2  S   UNK N   1       3.009  -0.375  -0.000  0.00  0.00     0.000 SA
HETATM    3  S   UNK N   1       3.789  -2.352   0.000  0.00  0.00     0.000 SA
ENDBRANCH   1   2
BRANCH   1   4
HETATM    4  S   UNK N   1       0.266   0.934   0.000  0.00  0.00     0.000 SA
HETATM    5  S   UNK N   1      -1.762   0.296  -0.000  0.00  0.00     0.000 SA
ENDBRANCH   1   4
TORSDOF 2
