MODEL 1
REMARK VINA RESULT:      -4.5      0.000      0.000
REMARK  0 active torsions:
REMARK  status: ('A' for Active; 'I' for Inactive)
ROOT
HETATM    1  C   UNK N   1      20.132  13.119  10.451  0.00  0.00     0.002 A 
HETATM    2  C   UNK N   1      20.771  13.980   9.526  0.00  0.00     0.002 A 
HETATM    3  C   UNK N   1      20.891  12.252  11.262  0.00  0.00     0.032 A 
HETATM    4  C   UNK N   1      22.174  13.980   9.404  0.00  0.00     0.032 A 
HETATM    5  C   UNK N   1      24.376  11.977  11.238  0.00  0.00     0.181 A 
HETATM    6  C   UNK N   1      22.271  12.285  11.109  0.00  0.00     0.060 A 
HETATM    7  C   UNK N   1      22.885  13.109  10.222  0.00  0.00     0.060 A 
HETATM    8  N   UNK N   1      23.192  11.562  11.760  0.00  0.00    -0.351 N 
ATOM      9  HN  UNK N   1      23.039  10.860  12.483  1.00  0.00     0.166 HD
HETATM   10  N   UNK N   1      24.209  12.934  10.285  0.00  0.00    -0.351 N 
HETATM   11  H   UNK N   1      24.905  13.392   9.761  0.00  0.00     0.166 HD
ENDROOT
TORSDOF 0
ENDMDL
MODEL 2
REMARK VINA RESULT:      -4.4      1.097      2.256
REMARK  0 active torsions:
REMARK  status: ('A' for Active; 'I' for Inactive)
ROOT
HETATM    1  C   UNK N   1      20.831  12.741  10.594  0.00  0.00     0.002 A 
HETATM    2  C   UNK N   1      21.310  12.052  11.734  0.00  0.00     0.002 A 
HETATM    3  C   UNK N   1      21.732  13.282   9.656  0.00  0.00     0.032 A 
HETATM    4  C   UNK N   1      22.694  11.899  11.947  0.00  0.00     0.032 A 
HETATM    5  C   UNK N   1      25.218  13.102   9.848  0.00  0.00     0.181 A 
HETATM    6  C   UNK N   1      23.087  13.109   9.904  0.00  0.00     0.060 A 
HETATM    7  C   UNK N   1      23.549  12.449  10.997  0.00  0.00     0.060 A 
HETATM    8  N   UNK N   1      24.123  13.529   9.166  0.00  0.00    -0.351 N 
ATOM      9  HN  UNK N   1      24.095  14.052   8.290  1.00  0.00     0.166 HD
HETATM   10  N   UNK N   1      24.885  12.431  10.983  0.00  0.00    -0.351 N 
HETATM   11  H   UNK N   1      25.491  12.025  11.645  0.00  0.00     0.166 HD
ENDROOT
TORSDOF 0
ENDMDL
MODEL 3
REMARK VINA RESULT:      -4.4     19.777     20.602
REMARK  0 active torsions:
REMARK  status: ('A' for Active; 'I' for Inactive)
ROOT
HETATM    1  C   UNK N   1      25.995  27.523  -3.522  0.00  0.00     0.002 A 
HETATM    2  C   UNK N   1      25.259  27.929  -4.661  0.00  0.00     0.002 A 
HETATM    3  C   UNK N   1      26.463  26.199  -3.409  0.00  0.00     0.032 A 
HETATM    4  C   UNK N   1      24.984  27.015  -5.696  0.00  0.00     0.032 A 
HETATM    5  C   UNK N   1      25.977  23.663  -5.765  0.00  0.00     0.181 A 
HETATM    6  C   UNK N   1      26.169  25.331  -4.452  0.00  0.00     0.060 A 
HETATM    7  C   UNK N   1      25.464  25.718  -5.544  0.00  0.00     0.060 A 
HETATM    8  N   UNK N   1      26.503  24.039  -4.570  0.00  0.00    -0.351 N 
ATOM      9  HN  UNK N   1      27.032  23.466  -3.911  1.00  0.00     0.166 HD
HETATM   10  N   UNK N   1      25.330  24.687  -6.384  0.00  0.00    -0.351 N 
HETATM   11  H   UNK N   1      24.868  24.672  -7.254  0.00  0.00     0.166 HD
ENDROOT
TORSDOF 0
ENDMDL
MODEL 4
REMARK VINA RESULT:      -4.4      1.561      2.934
REMARK  0 active torsions:
REMARK  status: ('A' for Active; 'I' for Inactive)
ROOT
HETATM    1  C   UNK N   1      24.803  12.382  10.530  0.00  0.00     0.002 A 
HETATM    2  C   UNK N   1      24.360  13.141   9.420  0.00  0.00     0.002 A 
HETATM    3  C   UNK N   1      23.877  11.873  11.462  0.00  0.00     0.032 A 
HETATM    4  C   UNK N   1      22.988  13.398   9.233  0.00  0.00     0.032 A 
HETATM    5  C   UNK N   1      20.410  12.303  11.327  0.00  0.00     0.181 A 
HETATM    6  C   UNK N   1      22.535  12.149  11.239  0.00  0.00     0.060 A 
HETATM    7  C   UNK N   1      22.108  12.877  10.176  0.00  0.00     0.060 A 
HETATM    8  N   UNK N   1      21.481  11.777  11.978  0.00  0.00    -0.351 N 
ATOM      9  HN  UNK N   1      21.482  11.224  12.836  1.00  0.00     0.166 HD
HETATM   10  N   UNK N   1      20.777  12.987  10.209  0.00  0.00    -0.351 N 
HETATM   11  H   UNK N   1      20.193  13.457   9.571  0.00  0.00     0.166 HD
ENDROOT
TORSDOF 0
ENDMDL
MODEL 5
REMARK VINA RESULT:      -4.3      1.207      2.275
REMARK  0 active torsions:
REMARK  status: ('A' for Active; 'I' for Inactive)
ROOT
HETATM    1  C   UNK N   1      22.873  13.409   8.442  0.00  0.00     0.002 A 
HETATM    2  C   UNK N   1      21.504  13.213   8.750  0.00  0.00     0.002 A 
HETATM    3  C   UNK N   1      23.869  13.091   9.385  0.00  0.00     0.032 A 
HETATM    4  C   UNK N   1      21.122  12.697  10.003  0.00  0.00     0.032 A 
HETATM    5  C   UNK N   1      23.304  11.795  12.582  0.00  0.00     0.181 A 
HETATM    6  C   UNK N   1      23.448  12.584  10.607  0.00  0.00     0.060 A 
HETATM    7  C   UNK N   1      22.138  12.395  10.904  0.00  0.00     0.060 A 
HETATM    8  N   UNK N   1      24.201  12.212  11.651  0.00  0.00    -0.351 N 
ATOM      9  HN  UNK N   1      25.219  12.237  11.729  1.00  0.00     0.166 HD
HETATM   10  N   UNK N   1      22.021  11.900  12.140  0.00  0.00    -0.351 N 
HETATM   11  H   UNK N   1      21.196  11.665  12.622  0.00  0.00     0.166 HD
ENDROOT
TORSDOF 0
ENDMDL
MODEL 6
REMARK VINA RESULT:      -4.2      8.452      9.609
REMARK  0 active torsions:
REMARK  status: ('A' for Active; 'I' for Inactive)
ROOT
HETATM    1  C   UNK N   1      27.707  20.004   4.460  0.00  0.00     0.002 A 
HETATM    2  C   UNK N   1      27.141  20.971   5.326  0.00  0.00     0.002 A 
HETATM    3  C   UNK N   1      28.229  18.802   4.976  0.00  0.00     0.032 A 
HETATM    4  C   UNK N   1      27.093  20.743   6.715  0.00  0.00     0.032 A 
HETATM    5  C   UNK N   1      28.284  17.892   8.351  0.00  0.00     0.181 A 
HETATM    6  C   UNK N   1      28.161  18.618   6.351  0.00  0.00     0.060 A 
HETATM    7  C   UNK N   1      27.619  19.543   7.183  0.00  0.00     0.060 A 
HETATM    8  N   UNK N   1      28.587  17.569   7.065  0.00  0.00    -0.351 N 
ATOM      9  HN  UNK N   1      29.036  16.719   6.723  1.00  0.00     0.166 HD
HETATM   10  N   UNK N   1      27.685  19.110   8.445  0.00  0.00    -0.351 N 
HETATM   11  H   UNK N   1      27.372  19.567   9.259  0.00  0.00     0.166 HD
ENDROOT
TORSDOF 0
ENDMDL
MODEL 7
REMARK VINA RESULT:      -4.2     14.462     15.254
REMARK  0 active torsions:
REMARK  status: ('A' for Active; 'I' for Inactive)
ROOT
HETATM    1  C   UNK N   1      36.547  15.405  17.594  0.00  0.00     0.002 A 
HETATM    2  C   UNK N   1      35.583  14.448  17.996  0.00  0.00     0.002 A 
HETATM    3  C   UNK N   1      37.149  15.321  16.323  0.00  0.00     0.032 A 
HETATM    4  C   UNK N   1      35.214  13.401  17.130  0.00  0.00     0.032 A 
HETATM    5  C   UNK N   1      36.486  12.874  13.916  0.00  0.00     0.181 A 
HETATM    6  C   UNK N   1      36.755  14.273  15.501  0.00  0.00     0.060 A 
HETATM    7  C   UNK N   1      35.832  13.356  15.885  0.00  0.00     0.060 A 
HETATM    8  N   UNK N   1      37.181  13.989  14.264  0.00  0.00    -0.351 N 
ATOM      9  HN  UNK N   1      37.871  14.495  13.708  1.00  0.00     0.166 HD
HETATM   10  N   UNK N   1      35.646  12.466  14.905  0.00  0.00    -0.351 N 
HETATM   11  H   UNK N   1      35.039  11.690  14.899  0.00  0.00     0.166 HD
ENDROOT
TORSDOF 0
ENDMDL
MODEL 8
REMARK VINA RESULT:      -4.2     21.573     22.570
REMARK  0 active torsions:
REMARK  status: ('A' for Active; 'I' for Inactive)
ROOT
HETATM    1  C   UNK N   1      26.683  27.124  -7.170  0.00  0.00     0.002 A 
HETATM    2  C   UNK N   1      25.537  26.557  -6.562  0.00  0.00     0.002 A 
HETATM    3  C   UNK N   1      27.390  28.162  -6.532  0.00  0.00     0.032 A 
HETATM    4  C   UNK N   1      25.088  27.025  -5.312  0.00  0.00     0.032 A 
HETATM    5  C   UNK N   1      26.579  29.573  -3.439  0.00  0.00     0.181 A 
HETATM    6  C   UNK N   1      26.914  28.592  -5.301  0.00  0.00     0.060 A 
HETATM    7  C   UNK N   1      25.815  28.051  -4.717  0.00  0.00     0.060 A 
HETATM    8  N   UNK N   1      27.412  29.554  -4.513  0.00  0.00    -0.351 N 
ATOM      9  HN  UNK N   1      28.230  30.139  -4.680  1.00  0.00     0.166 HD
HETATM   10  N   UNK N   1      25.584  28.651  -3.545  0.00  0.00    -0.351 N 
HETATM   11  H   UNK N   1      24.860  28.468  -2.904  0.00  0.00     0.166 HD
ENDROOT
TORSDOF 0
ENDMDL
MODEL 9
REMARK VINA RESULT:      -4.2     21.644     22.569
REMARK  0 active torsions:
REMARK  status: ('A' for Active; 'I' for Inactive)
ROOT
HETATM    1  C   UNK N   1      25.582  26.685  -6.489  0.00  0.00     0.002 A 
HETATM    2  C   UNK N   1      26.734  27.224  -7.111  0.00  0.00     0.002 A 
HETATM    3  C   UNK N   1      25.145  27.178  -5.244  0.00  0.00     0.032 A 
HETATM    4  C   UNK N   1      27.460  28.260  -6.492  0.00  0.00     0.032 A 
HETATM    5  C   UNK N   1      26.683  29.731  -3.416  0.00  0.00     0.181 A 
HETATM    6  C   UNK N   1      25.890  28.200  -4.670  0.00  0.00     0.060 A 
HETATM    7  C   UNK N   1      26.995  28.717  -5.263  0.00  0.00     0.060 A 
HETATM    8  N   UNK N   1      25.675  28.823  -3.504  0.00  0.00    -0.351 N 
ATOM      9  HN  UNK N   1      24.924  28.656  -2.833  1.00  0.00     0.166 HD
HETATM   10  N   UNK N   1      27.511  29.681  -4.495  0.00  0.00    -0.351 N 
HETATM   11  H   UNK N   1      28.309  30.231  -4.669  0.00  0.00     0.166 HD
ENDROOT
TORSDOF 0
ENDMDL
