MODEL 1
REMARK VINA RESULT:      -4.7      0.000      0.000
REMARK  3 active torsions:
REMARK  status: ('A' for Active; 'I' for Inactive)
REMARK    1  A    between atoms: C_2  and  C_3 
REMARK    2  A    between atoms: C_3  and  C_4 
REMARK    3  A    between atoms: C_9  and  N_10 
ROOT
HETATM    1  C   UNK N   1      35.337  12.668  17.242  0.00  0.00    -0.032 A 
HETATM    2  C   UNK N   1      35.379  11.268  17.234  0.00  0.00     0.009 A 
HETATM    3  C   UNK N   1      35.349  10.541  18.426  0.00  0.00     0.001 A 
HETATM    4  C   UNK N   1      35.276  11.208  19.647  0.00  0.00     0.002 A 
HETATM    5  C   UNK N   1      35.234  12.602  19.679  0.00  0.00     0.029 A 
HETATM    6  C   UNK N   1      35.263  13.342  18.494  0.00  0.00     0.032 A 
ENDROOT
BRANCH   1   7
HETATM    7  C   UNK N   1      35.375  13.346  15.891  0.00  0.00     0.040 C 
BRANCH   7   8
HETATM    8  C   UNK N   1      36.748  13.604  15.295  0.00  0.00     0.000 C 
HETATM    9  C   UNK N   1      37.219  14.996  15.649  0.00  0.00     0.005 C 
ENDBRANCH   7   8
ENDBRANCH   1   7
BRANCH   6  10
HETATM   10  N   UNK N   1      35.218  14.747  18.587  0.00  0.00    -0.399 N 
HETATM   11  H   UNK N   1      34.970  15.177  19.438  0.00  0.00     0.156 HD
HETATM   12  H   UNK N   1      35.434  15.300  17.801  0.00  0.00     0.156 HD
ENDBRANCH   6  10
TORSDOF 3
ENDMDL
MODEL 2
REMARK VINA RESULT:      -4.6     14.499     15.434
REMARK  3 active torsions:
REMARK  status: ('A' for Active; 'I' for Inactive)
REMARK    1  A    between atoms: C_2  and  C_3 
REMARK    2  A    between atoms: C_3  and  C_4 
REMARK    3  A    between atoms: C_9  and  N_10 
ROOT
HETATM    1  C   UNK N   1      22.218  12.866   9.858  0.00  0.00    -0.032 A 
HETATM    2  C   UNK N   1      23.480  13.140   9.315  0.00  0.00     0.009 A 
HETATM    3  C   UNK N   1      24.647  12.772   9.987  0.00  0.00     0.001 A 
HETATM    4  C   UNK N   1      24.567  12.121  11.217  0.00  0.00     0.002 A 
HETATM    5  C   UNK N   1      23.322  11.839  11.777  0.00  0.00     0.029 A 
HETATM    6  C   UNK N   1      22.145  12.201  11.116  0.00  0.00     0.032 A 
ENDROOT
BRANCH   1   7
HETATM    7  C   UNK N   1      21.026  13.311   9.042  0.00  0.00     0.040 C 
BRANCH   7   8
HETATM    8  C   UNK N   1      20.323  14.579   9.495  0.00  0.00     0.000 C 
HETATM    9  C   UNK N   1      20.759  15.750   8.645  0.00  0.00     0.005 C 
ENDBRANCH   7   8
ENDBRANCH   1   7
BRANCH   6  10
HETATM   10  N   UNK N   1      20.916  11.890  11.729  0.00  0.00    -0.399 N 
HETATM   11  H   UNK N   1      20.532  10.988  11.632  0.00  0.00     0.156 HD
HETATM   12  H   UNK N   1      20.440  12.574  12.254  0.00  0.00     0.156 HD
ENDBRANCH   6  10
TORSDOF 3
ENDMDL
MODEL 3
REMARK VINA RESULT:      -4.6     25.221     27.142
REMARK  3 active torsions:
REMARK  status: ('A' for Active; 'I' for Inactive)
REMARK    1  A    between atoms: C_2  and  C_3 
REMARK    2  A    between atoms: C_3  and  C_4 
REMARK    3  A    between atoms: C_9  and  N_10 
ROOT
HETATM    1  C   UNK N   1      26.339  25.330  -3.989  0.00  0.00    -0.032 A 
HETATM    2  C   UNK N   1      26.407  26.557  -3.316  0.00  0.00     0.009 A 
HETATM    3  C   UNK N   1      25.802  27.700  -3.842  0.00  0.00     0.001 A 
HETATM    4  C   UNK N   1      25.119  27.632  -5.055  0.00  0.00     0.002 A 
HETATM    5  C   UNK N   1      25.039  26.422  -5.742  0.00  0.00     0.029 A 
HETATM    6  C   UNK N   1      25.639  25.269  -5.228  0.00  0.00     0.032 A 
ENDROOT
BRANCH   1   7
HETATM    7  C   UNK N   1      27.031  24.162  -3.325  0.00  0.00     0.040 C 
BRANCH   7   8
HETATM    8  C   UNK N   1      28.511  23.988  -3.617  0.00  0.00     0.000 C 
HETATM    9  C   UNK N   1      29.169  23.182  -2.520  0.00  0.00     0.005 C 
ENDBRANCH   7   8
ENDBRANCH   1   7
BRANCH   6  10
HETATM   10  N   UNK N   1      25.525  24.074  -5.966  0.00  0.00    -0.399 N 
HETATM   11  H   UNK N   1      26.336  23.587  -6.241  0.00  0.00     0.156 HD
HETATM   12  H   UNK N   1      24.636  23.727  -6.207  0.00  0.00     0.156 HD
ENDBRANCH   6  10
TORSDOF 3
ENDMDL
MODEL 4
REMARK VINA RESULT:      -4.5     26.983     29.013
REMARK  3 active torsions:
REMARK  status: ('A' for Active; 'I' for Inactive)
REMARK    1  A    between atoms: C_2  and  C_3 
REMARK    2  A    between atoms: C_3  and  C_4 
REMARK    3  A    between atoms: C_9  and  N_10 
ROOT
HETATM    1  C   UNK N   1      26.125  27.574  -5.655  0.00  0.00    -0.032 A 
HETATM    2  C   UNK N   1      26.905  27.577  -6.819  0.00  0.00     0.009 A 
HETATM    3  C   UNK N   1      27.900  28.537  -7.016  0.00  0.00     0.001 A 
HETATM    4  C   UNK N   1      28.129  29.511  -6.047  0.00  0.00     0.002 A 
HETATM    5  C   UNK N   1      27.365  29.528  -4.881  0.00  0.00     0.029 A 
HETATM    6  C   UNK N   1      26.366  28.573  -4.670  0.00  0.00     0.032 A 
ENDROOT
BRANCH   1   7
HETATM    7  C   UNK N   1      25.080  26.487  -5.553  0.00  0.00     0.040 C 
BRANCH   7   8
HETATM    8  C   UNK N   1      25.586  25.069  -5.348  0.00  0.00     0.000 C 
HETATM    9  C   UNK N   1      26.338  24.966  -4.041  0.00  0.00     0.005 C 
ENDBRANCH   7   8
ENDBRANCH   1   7
BRANCH   6  10
HETATM   10  N   UNK N   1      25.626  28.639  -3.473  0.00  0.00    -0.399 N 
HETATM   11  H   UNK N   1      25.121  29.455  -3.250  0.00  0.00     0.156 HD
HETATM   12  H   UNK N   1      25.612  27.869  -2.860  0.00  0.00     0.156 HD
ENDBRANCH   6  10
TORSDOF 3
ENDMDL
MODEL 5
REMARK VINA RESULT:      -4.5      1.555      4.103
REMARK  3 active torsions:
REMARK  status: ('A' for Active; 'I' for Inactive)
REMARK    1  A    between atoms: C_2  and  C_3 
REMARK    2  A    between atoms: C_3  and  C_4 
REMARK    3  A    between atoms: C_9  and  N_10 
ROOT
HETATM    1  C   UNK N   1      35.251  11.425  18.544  0.00  0.00    -0.032 A 
HETATM    2  C   UNK N   1      35.493  11.243  17.176  0.00  0.00     0.009 A 
HETATM    3  C   UNK N   1      35.628  12.337  16.319  0.00  0.00     0.001 A 
HETATM    4  C   UNK N   1      35.523  13.633  16.821  0.00  0.00     0.002 A 
HETATM    5  C   UNK N   1      35.283  13.837  18.179  0.00  0.00     0.029 A 
HETATM    6  C   UNK N   1      35.145  12.752  19.049  0.00  0.00     0.032 A 
ENDROOT
BRANCH   1   7
HETATM    7  C   UNK N   1      35.123  10.168  19.374  0.00  0.00     0.040 C 
BRANCH   7   8
HETATM    8  C   UNK N   1      34.330   9.024  18.764  0.00  0.00     0.000 C 
HETATM    9  C   UNK N   1      33.081   8.764  19.575  0.00  0.00     0.005 C 
ENDBRANCH   7   8
ENDBRANCH   1   7
BRANCH   6  10
HETATM   10  N   UNK N   1      34.903  13.019  20.411  0.00  0.00    -0.399 N 
HETATM   11  H   UNK N   1      35.612  13.415  20.969  0.00  0.00     0.156 HD
HETATM   12  H   UNK N   1      34.026  12.809  20.806  0.00  0.00     0.156 HD
ENDBRANCH   6  10
TORSDOF 3
ENDMDL
MODEL 6
REMARK VINA RESULT:      -4.4      2.452      3.329
REMARK  3 active torsions:
REMARK  status: ('A' for Active; 'I' for Inactive)
REMARK    1  A    between atoms: C_2  and  C_3 
REMARK    2  A    between atoms: C_3  and  C_4 
REMARK    3  A    between atoms: C_9  and  N_10 
ROOT
HETATM    1  C   UNK N   1      35.175  11.823  16.745  0.00  0.00    -0.032 A 
HETATM    2  C   UNK N   1      35.073  13.191  17.032  0.00  0.00     0.009 A 
HETATM    3  C   UNK N   1      35.125  13.655  18.347  0.00  0.00     0.001 A 
HETATM    4  C   UNK N   1      35.281  12.754  19.399  0.00  0.00     0.002 A 
HETATM    5  C   UNK N   1      35.384  11.389  19.137  0.00  0.00     0.029 A 
HETATM    6  C   UNK N   1      35.334  10.909  17.826  0.00  0.00     0.032 A 
ENDROOT
BRANCH   1   7
HETATM    7  C   UNK N   1      35.106  11.438  15.285  0.00  0.00     0.040 C 
BRANCH   7   8
HETATM    8  C   UNK N   1      33.755  10.980  14.763  0.00  0.00     0.000 C 
HETATM    9  C   UNK N   1      33.895  10.431  13.361  0.00  0.00     0.005 C 
ENDBRANCH   7   8
ENDBRANCH   1   7
BRANCH   6  10
HETATM   10  N   UNK N   1      35.444   9.519  17.621  0.00  0.00    -0.399 N 
HETATM   11  H   UNK N   1      35.269   8.897  18.364  0.00  0.00     0.156 HD
HETATM   12  H   UNK N   1      35.695   9.170  16.736  0.00  0.00     0.156 HD
ENDBRANCH   6  10
TORSDOF 3
ENDMDL
MODEL 7
REMARK VINA RESULT:      -4.3      1.930      2.966
REMARK  3 active torsions:
REMARK  status: ('A' for Active; 'I' for Inactive)
REMARK    1  A    between atoms: C_2  and  C_3 
REMARK    2  A    between atoms: C_3  and  C_4 
REMARK    3  A    between atoms: C_9  and  N_10 
ROOT
HETATM    1  C   UNK N   1      35.719  11.582  16.624  0.00  0.00    -0.032 A 
HETATM    2  C   UNK N   1      35.589  10.980  17.883  0.00  0.00     0.009 A 
HETATM    3  C   UNK N   1      35.315  11.743  19.020  0.00  0.00     0.001 A 
HETATM    4  C   UNK N   1      35.168  13.125  18.913  0.00  0.00     0.002 A 
HETATM    5  C   UNK N   1      35.293  13.746  17.671  0.00  0.00     0.029 A 
HETATM    6  C   UNK N   1      35.567  12.995  16.524  0.00  0.00     0.032 A 
ENDROOT
BRANCH   1   7
HETATM    7  C   UNK N   1      36.015  10.657  15.467  0.00  0.00     0.040 C 
BRANCH   7   8
HETATM    8  C   UNK N   1      34.862   9.810  14.956  0.00  0.00     0.000 C 
HETATM    9  C   UNK N   1      33.683  10.689  14.606  0.00  0.00     0.005 C 
ENDBRANCH   7   8
ENDBRANCH   1   7
BRANCH   6  10
HETATM   10  N   UNK N   1      35.683  13.676  15.296  0.00  0.00    -0.399 N 
HETATM   11  H   UNK N   1      36.461  13.512  14.714  0.00  0.00     0.156 HD
HETATM   12  H   UNK N   1      34.987  14.314  15.019  0.00  0.00     0.156 HD
ENDBRANCH   6  10
TORSDOF 3
ENDMDL
MODEL 8
REMARK VINA RESULT:      -4.3      1.619      2.224
REMARK  3 active torsions:
REMARK  status: ('A' for Active; 'I' for Inactive)
REMARK    1  A    between atoms: C_2  and  C_3 
REMARK    2  A    between atoms: C_3  and  C_4 
REMARK    3  A    between atoms: C_9  and  N_10 
ROOT
HETATM    1  C   UNK N   1      35.309  12.505  17.216  0.00  0.00    -0.032 A 
HETATM    2  C   UNK N   1      35.216  13.312  18.358  0.00  0.00     0.009 A 
HETATM    3  C   UNK N   1      35.188  12.749  19.635  0.00  0.00     0.001 A 
HETATM    4  C   UNK N   1      35.253  11.365  19.789  0.00  0.00     0.002 A 
HETATM    5  C   UNK N   1      35.346  10.543  18.667  0.00  0.00     0.029 A 
HETATM    6  C   UNK N   1      35.375  11.092  17.382  0.00  0.00     0.032 A 
ENDROOT
BRANCH   1   7
HETATM    7  C   UNK N   1      35.331  13.226  15.887  0.00  0.00     0.040 C 
BRANCH   7   8
HETATM    8  C   UNK N   1      36.697  13.504  15.284  0.00  0.00     0.000 C 
HETATM    9  C   UNK N   1      37.153  14.899  15.645  0.00  0.00     0.005 C 
ENDBRANCH   7   8
ENDBRANCH   1   7
BRANCH   6  10
HETATM   10  N   UNK N   1      35.470  10.213  16.285  0.00  0.00    -0.399 N 
HETATM   11  H   UNK N   1      35.671   9.261  16.433  0.00  0.00     0.156 HD
HETATM   12  H   UNK N   1      35.335  10.551  15.370  0.00  0.00     0.156 HD
ENDBRANCH   6  10
TORSDOF 3
ENDMDL
MODEL 9
REMARK VINA RESULT:      -4.3     14.440     15.382
REMARK  3 active torsions:
REMARK  status: ('A' for Active; 'I' for Inactive)
REMARK    1  A    between atoms: C_2  and  C_3 
REMARK    2  A    between atoms: C_3  and  C_4 
REMARK    3  A    between atoms: C_9  and  N_10 
ROOT
HETATM    1  C   UNK N   1      22.325  12.927   9.702  0.00  0.00    -0.032 A 
HETATM    2  C   UNK N   1      22.032  12.364  10.951  0.00  0.00     0.009 A 
HETATM    3  C   UNK N   1      23.051  11.929  11.800  0.00  0.00     0.001 A 
HETATM    4  C   UNK N   1      24.384  12.052  11.410  0.00  0.00     0.002 A 
HETATM    5  C   UNK N   1      24.699  12.609  10.171  0.00  0.00     0.029 A 
HETATM    6  C   UNK N   1      23.690  13.049   9.311  0.00  0.00     0.032 A 
ENDROOT
BRANCH   1   7
HETATM    7  C   UNK N   1      21.141  13.362   8.868  0.00  0.00     0.040 C 
BRANCH   7   8
HETATM    8  C   UNK N   1      20.285  14.483   9.431  0.00  0.00     0.000 C 
HETATM    9  C   UNK N   1      20.642  15.795   8.771  0.00  0.00     0.005 C 
ENDBRANCH   7   8
ENDBRANCH   1   7
BRANCH   6  10
HETATM   10  N   UNK N   1      24.067  13.604   8.072  0.00  0.00    -0.399 N 
HETATM   11  H   UNK N   1      24.808  14.251   8.027  0.00  0.00     0.156 HD
HETATM   12  H   UNK N   1      23.590  13.345   7.250  0.00  0.00     0.156 HD
ENDBRANCH   6  10
TORSDOF 3
ENDMDL
