MODEL 1
REMARK VINA RESULT:      -5.6      0.000      0.000
REMARK  7 active torsions:
REMARK  status: ('A' for Active; 'I' for Inactive)
REMARK    1  A    between atoms: O_1  and  P_2 
REMARK    2  A    between atoms: P_2  and  O_3 
REMARK    3  A    between atoms: P_2  and  C_5 
REMARK    4  A    between atoms: C_5  and  C_6 
REMARK    5  A    between atoms: C_5  and  P_12 
REMARK    6  A    between atoms: P_12  and  O_13 
REMARK    7  A    between atoms: P_12  and  O_14 
ROOT
HETATM    1  C   UNK N   1      32.634  16.220   7.567  0.00  0.00     0.241 C 
ENDROOT
BRANCH   1   2
HETATM    2  P   UNK N   1      33.837  17.016   6.377  0.00  0.00     0.256 P 
HETATM    3  O   UNK N   1      34.512  18.237   7.058  0.00  0.00    -0.653 OA
BRANCH   2   4
HETATM    4  O   UNK N   1      33.150  17.678   4.926  0.00  0.00    -0.328 OA
HETATM    5  H   UNK N   1      32.869  18.245   4.191  0.00  0.00     0.220 HD
ENDBRANCH   2   4
BRANCH   2   6
HETATM    6  O   UNK N   1      35.180  16.024   5.903  0.00  0.00    -0.328 OA
HETATM    7  H   UNK N   1      35.509  15.268   6.415  0.00  0.00     0.220 HD
ENDBRANCH   2   6
ENDBRANCH   1   2
BRANCH   1   8
HETATM    8  C   UNK N   1      31.386  17.054   7.762  0.00  0.00    -0.031 A 
HETATM    9  C   UNK N   1      31.283  18.005   8.795  0.00  0.00     0.009 A 
HETATM   10  C   UNK N   1      30.095  18.717   8.987  0.00  0.00     0.001 A 
HETATM   11  C   UNK N   1      29.000  18.490   8.151  0.00  0.00     0.000 A 
HETATM   12  C   UNK N   1      29.092  17.549   7.122  0.00  0.00     0.001 A 
HETATM   13  C   UNK N   1      30.277  16.829   6.936  0.00  0.00     0.009 A 
ENDBRANCH   1   8
BRANCH   1  14
HETATM   14  P   UNK N   1      33.538  15.808   9.159  0.00  0.00     0.256 P 
HETATM   15  O   UNK N   1      34.677  14.788   8.892  0.00  0.00    -0.653 OA
BRANCH  14  16
HETATM   16  O   UNK N   1      32.568  15.043  10.377  0.00  0.00    -0.328 OA
HETATM   17  H   UNK N   1      32.157  15.523  11.112  0.00  0.00     0.220 HD
ENDBRANCH  14  16
BRANCH  14  18
HETATM   18  O   UNK N   1      34.342  17.145   9.921  0.00  0.00    -0.328 OA
HETATM   19  H   UNK N   1      33.867  17.724  10.537  0.00  0.00     0.220 HD
ENDBRANCH  14  18
ENDBRANCH   1  14
TORSDOF 7
ENDMDL
MODEL 2
REMARK VINA RESULT:      -5.2      0.370      2.042
REMARK  7 active torsions:
REMARK  status: ('A' for Active; 'I' for Inactive)
REMARK    1  A    between atoms: O_1  and  P_2 
REMARK    2  A    between atoms: P_2  and  O_3 
REMARK    3  A    between atoms: P_2  and  C_5 
REMARK    4  A    between atoms: C_5  and  C_6 
REMARK    5  A    between atoms: C_5  and  P_12 
REMARK    6  A    between atoms: P_12  and  O_13 
REMARK    7  A    between atoms: P_12  and  O_14 
ROOT
HETATM    1  C   UNK N   1      32.532  16.090   7.525  0.00  0.00     0.241 C 
ENDROOT
BRANCH   1   2
HETATM    2  P   UNK N   1      33.811  17.018   6.524  0.00  0.00     0.256 P 
HETATM    3  O   UNK N   1      33.128  17.697   5.307  0.00  0.00    -0.653 OA
BRANCH   2   4
HETATM    4  O   UNK N   1      35.068  16.057   5.811  0.00  0.00    -0.328 OA
HETATM    5  H   UNK N   1      35.732  15.658   5.227  0.00  0.00     0.220 HD
ENDBRANCH   2   4
BRANCH   2   6
HETATM    6  O   UNK N   1      34.579  18.341   7.345  0.00  0.00    -0.328 OA
HETATM    7  H   UNK N   1      34.821  19.181   6.923  0.00  0.00     0.220 HD
ENDBRANCH   2   6
ENDBRANCH   1   2
BRANCH   1   8
HETATM    8  C   UNK N   1      31.295  16.922   7.783  0.00  0.00    -0.031 A 
HETATM    9  C   UNK N   1      30.113  16.748   7.037  0.00  0.00     0.009 A 
HETATM   10  C   UNK N   1      29.008  17.573   7.258  0.00  0.00     0.001 A 
HETATM   11  C   UNK N   1      29.066  18.578   8.226  0.00  0.00     0.000 A 
HETATM   12  C   UNK N   1      30.233  18.760   8.973  0.00  0.00     0.001 A 
HETATM   13  C   UNK N   1      31.343  17.941   8.744  0.00  0.00     0.009 A 
ENDBRANCH   1   8
BRANCH   1  14
HETATM   14  P   UNK N   1      33.346  15.419   9.077  0.00  0.00     0.256 P 
HETATM   15  O   UNK N   1      34.341  16.455   9.663  0.00  0.00    -0.653 OA
BRANCH  14  16
HETATM   16  O   UNK N   1      34.311  13.997   8.843  0.00  0.00    -0.328 OA
HETATM   17  H   UNK N   1      33.978  13.188   8.424  0.00  0.00     0.220 HD
ENDBRANCH  14  16
BRANCH  14  18
HETATM   18  O   UNK N   1      32.264  15.084  10.393  0.00  0.00    -0.328 OA
HETATM   19  H   UNK N   1      32.066  15.762  11.057  0.00  0.00     0.220 HD
ENDBRANCH  14  18
ENDBRANCH   1  14
TORSDOF 7
ENDMDL
MODEL 3
REMARK VINA RESULT:      -5.0      0.990      3.202
REMARK  7 active torsions:
REMARK  status: ('A' for Active; 'I' for Inactive)
REMARK    1  A    between atoms: O_1  and  P_2 
REMARK    2  A    between atoms: P_2  and  O_3 
REMARK    3  A    between atoms: P_2  and  C_5 
REMARK    4  A    between atoms: C_5  and  C_6 
REMARK    5  A    between atoms: C_5  and  P_12 
REMARK    6  A    between atoms: P_12  and  O_13 
REMARK    7  A    between atoms: P_12  and  O_14 
ROOT
HETATM    1  C   UNK N   1      32.678  17.186   8.540  0.00  0.00     0.241 C 
ENDROOT
BRANCH   1   2
HETATM    2  P   UNK N   1      32.824  15.424   9.147  0.00  0.00     0.256 P 
HETATM    3  O   UNK N   1      34.227  15.203   9.773  0.00  0.00    -0.653 OA
BRANCH   2   4
HETATM    4  O   UNK N   1      32.711  14.186   7.935  0.00  0.00    -0.328 OA
HETATM    5  H   UNK N   1      32.418  13.538   7.275  0.00  0.00     0.220 HD
ENDBRANCH   2   4
BRANCH   2   6
HETATM    6  O   UNK N   1      31.737  14.987  10.429  0.00  0.00    -0.328 OA
HETATM    7  H   UNK N   1      31.382  15.611  11.081  0.00  0.00     0.220 HD
ENDBRANCH   2   6
ENDBRANCH   1   2
BRANCH   1   8
HETATM    8  C   UNK N   1      31.263  17.535   8.134  0.00  0.00    -0.031 A 
HETATM    9  C   UNK N   1      30.483  18.448   8.871  0.00  0.00     0.009 A 
HETATM   10  C   UNK N   1      29.158  18.704   8.507  0.00  0.00     0.001 A 
HETATM   11  C   UNK N   1      28.597  18.056   7.405  0.00  0.00     0.000 A 
HETATM   12  C   UNK N   1      29.362  17.149   6.666  0.00  0.00     0.001 A 
HETATM   13  C   UNK N   1      30.684  16.885   7.036  0.00  0.00     0.009 A 
ENDBRANCH   1   8
BRANCH   1  14
HETATM   14  P   UNK N   1      33.955  17.472   7.195  0.00  0.00     0.256 P 
HETATM   15  O   UNK N   1      34.923  18.618   7.596  0.00  0.00    -0.653 OA
BRANCH  14  16
HETATM   16  O   UNK N   1      33.311  17.983   5.668  0.00  0.00    -0.328 OA
HETATM   17  H   UNK N   1      32.825  17.394   5.069  0.00  0.00     0.220 HD
ENDBRANCH  14  16
BRANCH  14  18
HETATM   18  O   UNK N   1      35.007  16.129   6.875  0.00  0.00    -0.328 OA
HETATM   19  H   UNK N   1      34.790  15.241   7.201  0.00  0.00     0.220 HD
ENDBRANCH  14  18
ENDBRANCH   1  14
TORSDOF 7
ENDMDL
MODEL 4
REMARK VINA RESULT:      -5.0      3.020      3.923
REMARK  7 active torsions:
REMARK  status: ('A' for Active; 'I' for Inactive)
REMARK    1  A    between atoms: O_1  and  P_2 
REMARK    2  A    between atoms: P_2  and  O_3 
REMARK    3  A    between atoms: P_2  and  C_5 
REMARK    4  A    between atoms: C_5  and  C_6 
REMARK    5  A    between atoms: C_5  and  P_12 
REMARK    6  A    between atoms: P_12  and  O_13 
REMARK    7  A    between atoms: P_12  and  O_14 
ROOT
HETATM    1  C   UNK N   1      34.203  15.955   7.483  0.00  0.00     0.241 C 
ENDROOT
BRANCH   1   2
HETATM    2  P   UNK N   1      34.113  17.513   8.513  0.00  0.00     0.256 P 
HETATM    3  O   UNK N   1      34.768  17.259   9.897  0.00  0.00    -0.653 OA
BRANCH   2   4
HETATM    4  O   UNK N   1      32.520  18.078   8.906  0.00  0.00    -0.328 OA
HETATM    5  H   UNK N   1      31.588  18.166   9.161  0.00  0.00     0.220 HD
ENDBRANCH   2   4
BRANCH   2   6
HETATM    6  O   UNK N   1      35.000  18.869   7.889  0.00  0.00    -0.328 OA
HETATM    7  H   UNK N   1      35.443  19.533   8.440  0.00  0.00     0.220 HD
ENDBRANCH   2   6
ENDBRANCH   1   2
BRANCH   1   8
HETATM    8  C   UNK N   1      33.823  16.203   6.039  0.00  0.00    -0.031 A 
HETATM    9  C   UNK N   1      33.112  17.353   5.645  0.00  0.00     0.009 A 
HETATM   10  C   UNK N   1      32.722  17.524   4.314  0.00  0.00     0.001 A 
HETATM   11  C   UNK N   1      33.040  16.555   3.361  0.00  0.00     0.000 A 
HETATM   12  C   UNK N   1      33.746  15.410   3.740  0.00  0.00     0.001 A 
HETATM   13  C   UNK N   1      34.127  15.233   5.074  0.00  0.00     0.009 A 
ENDBRANCH   1   8
BRANCH   1  14
HETATM   14  P   UNK N   1      33.195  14.613   8.322  0.00  0.00     0.256 P 
HETATM   15  O   UNK N   1      31.936  14.269   7.482  0.00  0.00    -0.653 OA
BRANCH  14  16
HETATM   16  O   UNK N   1      32.557  15.039   9.878  0.00  0.00    -0.328 OA
HETATM   17  H   UNK N   1      33.011  15.632  10.498  0.00  0.00     0.220 HD
ENDBRANCH  14  16
BRANCH  14  18
HETATM   18  O   UNK N   1      34.004  13.088   8.509  0.00  0.00    -0.328 OA
HETATM   19  H   UNK N   1      34.961  13.013   8.369  0.00  0.00     0.220 HD
ENDBRANCH  14  18
ENDBRANCH   1  14
TORSDOF 7
ENDMDL
MODEL 5
REMARK VINA RESULT:      -4.9     11.344     12.883
REMARK  7 active torsions:
REMARK  status: ('A' for Active; 'I' for Inactive)
REMARK    1  A    between atoms: O_1  and  P_2 
REMARK    2  A    between atoms: P_2  and  O_3 
REMARK    3  A    between atoms: P_2  and  C_5 
REMARK    4  A    between atoms: C_5  and  C_6 
REMARK    5  A    between atoms: C_5  and  P_12 
REMARK    6  A    between atoms: P_12  and  O_13 
REMARK    7  A    between atoms: P_12  and  O_14 
ROOT
HETATM    1  C   UNK N   1      21.630  18.615   2.488  0.00  0.00     0.241 C 
ENDROOT
BRANCH   1   2
HETATM    2  P   UNK N   1      20.131  17.817   1.704  0.00  0.00     0.256 P 
HETATM    3  O   UNK N   1      20.006  16.350   2.194  0.00  0.00    -0.653 OA
BRANCH   2   4
HETATM    4  O   UNK N   1      20.159  17.676  -0.026  0.00  0.00    -0.328 OA
HETATM    5  H   UNK N   1      20.199  17.830  -0.983  0.00  0.00     0.220 HD
ENDBRANCH   2   4
BRANCH   2   6
HETATM    6  O   UNK N   1      18.604  18.520   2.137  0.00  0.00    -0.328 OA
HETATM    7  H   UNK N   1      18.411  19.470   2.109  0.00  0.00     0.220 HD
ENDBRANCH   2   6
ENDBRANCH   1   2
BRANCH   1   8
HETATM    8  C   UNK N   1      21.975  17.992   3.823  0.00  0.00    -0.031 A 
HETATM    9  C   UNK N   1      23.082  17.135   3.979  0.00  0.00     0.009 A 
HETATM   10  C   UNK N   1      23.340  16.527   5.211  0.00  0.00     0.001 A 
HETATM   11  C   UNK N   1      22.500  16.767   6.300  0.00  0.00     0.000 A 
HETATM   12  C   UNK N   1      21.399  17.616   6.157  0.00  0.00     0.001 A 
HETATM   13  C   UNK N   1      21.135  18.217   4.922  0.00  0.00     0.009 A 
ENDBRANCH   1   8
BRANCH   1  14
HETATM   14  P   UNK N   1      21.367  20.471   2.551  0.00  0.00     0.256 P 
HETATM   15  O   UNK N   1      22.673  21.194   2.977  0.00  0.00    -0.653 OA
BRANCH  14  16
HETATM   16  O   UNK N   1      20.195  21.007   3.712  0.00  0.00    -0.328 OA
HETATM   17  H   UNK N   1      19.958  21.939   3.841  0.00  0.00     0.220 HD
ENDBRANCH  14  16
BRANCH  14  18
HETATM   18  O   UNK N   1      20.952  21.212   1.037  0.00  0.00    -0.328 OA
HETATM   19  H   UNK N   1      21.576  21.801   0.585  0.00  0.00     0.220 HD
ENDBRANCH  14  18
ENDBRANCH   1  14
TORSDOF 7
ENDMDL
MODEL 6
REMARK VINA RESULT:      -4.8      3.902      5.586
REMARK  7 active torsions:
REMARK  status: ('A' for Active; 'I' for Inactive)
REMARK    1  A    between atoms: O_1  and  P_2 
REMARK    2  A    between atoms: P_2  and  O_3 
REMARK    3  A    between atoms: P_2  and  C_5 
REMARK    4  A    between atoms: C_5  and  C_6 
REMARK    5  A    between atoms: C_5  and  P_12 
REMARK    6  A    between atoms: P_12  and  O_13 
REMARK    7  A    between atoms: P_12  and  O_14 
ROOT
HETATM    1  C   UNK N   1      29.610  17.086   7.574  0.00  0.00     0.241 C 
ENDROOT
BRANCH   1   2
HETATM    2  P   UNK N   1      29.101  17.698   9.267  0.00  0.00     0.256 P 
HETATM    3  O   UNK N   1      29.747  19.083   9.535  0.00  0.00    -0.653 OA
BRANCH   2   4
HETATM    4  O   UNK N   1      29.617  16.733  10.614  0.00  0.00    -0.328 OA
HETATM    5  H   UNK N   1      29.853  16.015  11.223  0.00  0.00     0.220 HD
ENDBRANCH   2   4
BRANCH   2   6
HETATM    6  O   UNK N   1      27.403  17.998   9.469  0.00  0.00    -0.328 OA
HETATM    7  H   UNK N   1      26.730  17.303   9.543  0.00  0.00     0.220 HD
ENDBRANCH   2   6
ENDBRANCH   1   2
BRANCH   1   8
HETATM    8  C   UNK N   1      31.091  17.271   7.322  0.00  0.00    -0.031 A 
HETATM    9  C   UNK N   1      31.943  17.841   8.287  0.00  0.00     0.009 A 
HETATM   10  C   UNK N   1      33.294  18.055   8.001  0.00  0.00     0.001 A 
HETATM   11  C   UNK N   1      33.811  17.702   6.754  0.00  0.00     0.000 A 
HETATM   12  C   UNK N   1      32.974  17.135   5.788  0.00  0.00     0.001 A 
HETATM   13  C   UNK N   1      31.620  16.930   6.070  0.00  0.00     0.009 A 
ENDBRANCH   1   8
BRANCH   1  14
HETATM   14  P   UNK N   1      28.505  17.882   6.284  0.00  0.00     0.256 P 
HETATM   15  O   UNK N   1      27.498  16.848   5.713  0.00  0.00    -0.653 OA
BRANCH  14  16
HETATM   16  O   UNK N   1      29.330  18.482   4.880  0.00  0.00    -0.328 OA
HETATM   17  H   UNK N   1      29.903  17.933   4.322  0.00  0.00     0.220 HD
ENDBRANCH  14  16
BRANCH  14  18
HETATM   18  O   UNK N   1      27.498  19.171   6.865  0.00  0.00    -0.328 OA
HETATM   19  H   UNK N   1      27.092  19.126   7.745  0.00  0.00     0.220 HD
ENDBRANCH  14  18
ENDBRANCH   1  14
TORSDOF 7
ENDMDL
MODEL 7
REMARK VINA RESULT:      -4.7     13.669     15.100
REMARK  7 active torsions:
REMARK  status: ('A' for Active; 'I' for Inactive)
REMARK    1  A    between atoms: O_1  and  P_2 
REMARK    2  A    between atoms: P_2  and  O_3 
REMARK    3  A    between atoms: P_2  and  C_5 
REMARK    4  A    between atoms: C_5  and  C_6 
REMARK    5  A    between atoms: C_5  and  P_12 
REMARK    6  A    between atoms: P_12  and  O_13 
REMARK    7  A    between atoms: P_12  and  O_14 
ROOT
HETATM    1  C   UNK N   1      43.771  22.830   1.952  0.00  0.00     0.241 C 
ENDROOT
BRANCH   1   2
HETATM    2  P   UNK N   1      44.111  22.460   3.753  0.00  0.00     0.256 P 
HETATM    3  O   UNK N   1      43.382  21.153   4.162  0.00  0.00    -0.653 OA
BRANCH   2   4
HETATM    4  O   UNK N   1      43.534  23.632   4.896  0.00  0.00    -0.328 OA
HETATM    5  H   UNK N   1      43.296  24.439   5.377  0.00  0.00     0.220 HD
ENDBRANCH   2   4
BRANCH   2   6
HETATM    6  O   UNK N   1      45.772  22.136   4.143  0.00  0.00    -0.328 OA
HETATM    7  H   UNK N   1      46.528  22.472   3.638  0.00  0.00     0.220 HD
ENDBRANCH   2   6
ENDBRANCH   1   2
BRANCH   1   8
HETATM    8  C   UNK N   1      44.404  24.131   1.506  0.00  0.00    -0.031 A 
HETATM    9  C   UNK N   1      44.010  24.781   0.321  0.00  0.00     0.009 A 
HETATM   10  C   UNK N   1      44.657  25.948  -0.095  0.00  0.00     0.001 A 
HETATM   11  C   UNK N   1      45.699  26.481   0.665  0.00  0.00     0.000 A 
HETATM   12  C   UNK N   1      46.098  25.844   1.843  0.00  0.00     0.001 A 
HETATM   13  C   UNK N   1      45.459  24.671   2.255  0.00  0.00     0.009 A 
ENDBRANCH   1   8
BRANCH   1  14
HETATM   14  P   UNK N   1      41.921  22.735   1.652  0.00  0.00     0.256 P 
HETATM   15  O   UNK N   1      41.625  22.391   0.167  0.00  0.00    -0.653 OA
BRANCH  14  16
HETATM   16  O   UNK N   1      41.057  24.216   1.918  0.00  0.00    -0.328 OA
HETATM   17  H   UNK N   1      40.098  24.257   2.058  0.00  0.00     0.220 HD
ENDBRANCH  14  16
BRANCH  14  18
HETATM   18  O   UNK N   1      41.090  21.499   2.543  0.00  0.00    -0.328 OA
HETATM   19  H   UNK N   1      40.446  20.919   2.106  0.00  0.00     0.220 HD
ENDBRANCH  14  18
ENDBRANCH   1  14
TORSDOF 7
ENDMDL
MODEL 8
REMARK VINA RESULT:      -4.6      2.658      3.586
REMARK  7 active torsions:
REMARK  status: ('A' for Active; 'I' for Inactive)
REMARK    1  A    between atoms: O_1  and  P_2 
REMARK    2  A    between atoms: P_2  and  O_3 
REMARK    3  A    between atoms: P_2  and  C_5 
REMARK    4  A    between atoms: C_5  and  C_6 
REMARK    5  A    between atoms: C_5  and  P_12 
REMARK    6  A    between atoms: P_12  and  O_13 
REMARK    7  A    between atoms: P_12  and  O_14 
ROOT
HETATM    1  C   UNK N   1      34.273  16.577   7.079  0.00  0.00     0.241 C 
ENDROOT
BRANCH   1   2
HETATM    2  P   UNK N   1      34.067  17.732   8.536  0.00  0.00     0.256 P 
HETATM    3  O   UNK N   1      34.921  19.008   8.313  0.00  0.00    -0.653 OA
BRANCH   2   4
HETATM    4  O   UNK N   1      34.615  17.130  10.069  0.00  0.00    -0.328 OA
HETATM    5  H   UNK N   1      34.690  16.779  10.970  0.00  0.00     0.220 HD
ENDBRANCH   2   4
BRANCH   2   6
HETATM    6  O   UNK N   1      32.464  18.353   8.770  0.00  0.00    -0.328 OA
HETATM    7  H   UNK N   1      31.849  18.566   8.051  0.00  0.00     0.220 HD
ENDBRANCH   2   6
ENDBRANCH   1   2
BRANCH   1   8
HETATM    8  C   UNK N   1      33.144  16.711   6.080  0.00  0.00    -0.031 A 
HETATM    9  C   UNK N   1      31.944  15.987   6.215  0.00  0.00     0.009 A 
HETATM   10  C   UNK N   1      30.943  16.085   5.244  0.00  0.00     0.001 A 
HETATM   11  C   UNK N   1      31.127  16.907   4.131  0.00  0.00     0.000 A 
HETATM   12  C   UNK N   1      32.313  17.631   3.987  0.00  0.00     0.001 A 
HETATM   13  C   UNK N   1      33.319  17.525   4.953  0.00  0.00     0.009 A 
ENDBRANCH   1   8
BRANCH   1  14
HETATM   14  P   UNK N   1      34.530  14.832   7.718  0.00  0.00     0.256 P 
HETATM   15  O   UNK N   1      35.925  14.694   8.384  0.00  0.00    -0.653 OA
BRANCH  14  16
HETATM   16  O   UNK N   1      34.524  13.596   6.501  0.00  0.00    -0.328 OA
HETATM   17  H   UNK N   1      35.173  12.876   6.467  0.00  0.00     0.220 HD
ENDBRANCH  14  16
BRANCH  14  18
HETATM   18  O   UNK N   1      33.423  14.327   8.956  0.00  0.00    -0.328 OA
HETATM   19  H   UNK N   1      33.140  14.943   9.650  0.00  0.00     0.220 HD
ENDBRANCH  14  18
ENDBRANCH   1  14
TORSDOF 7
ENDMDL
MODEL 9
REMARK VINA RESULT:      -4.6      3.755      4.667
REMARK  7 active torsions:
REMARK  status: ('A' for Active; 'I' for Inactive)
REMARK    1  A    between atoms: O_1  and  P_2 
REMARK    2  A    between atoms: P_2  and  O_3 
REMARK    3  A    between atoms: P_2  and  C_5 
REMARK    4  A    between atoms: C_5  and  C_6 
REMARK    5  A    between atoms: C_5  and  P_12 
REMARK    6  A    between atoms: P_12  and  O_13 
REMARK    7  A    between atoms: P_12  and  O_14 
ROOT
HETATM    1  C   UNK N   1      35.264  14.393   8.968  0.00  0.00     0.241 C 
ENDROOT
BRANCH   1   2
HETATM    2  P   UNK N   1      35.897  14.723  10.696  0.00  0.00     0.256 P 
HETATM    3  O   UNK N   1      36.830  13.565  11.139  0.00  0.00    -0.653 OA
BRANCH   2   4
HETATM    4  O   UNK N   1      34.697  14.789  11.949  0.00  0.00    -0.328 OA
HETATM    5  H   UNK N   1      34.169  14.991  12.737  0.00  0.00     0.220 HD
ENDBRANCH   2   4
BRANCH   2   6
HETATM    6  O   UNK N   1      36.895  16.133  10.866  0.00  0.00    -0.328 OA
HETATM    7  H   UNK N   1      37.170  16.509  11.717  0.00  0.00     0.220 HD
ENDBRANCH   2   6
ENDBRANCH   1   2
BRANCH   1   8
HETATM    8  C   UNK N   1      34.673  15.631   8.330  0.00  0.00    -0.031 A 
HETATM    9  C   UNK N   1      34.015  16.617   9.091  0.00  0.00     0.009 A 
HETATM   10  C   UNK N   1      33.426  17.719   8.466  0.00  0.00     0.001 A 
HETATM   11  C   UNK N   1      33.489  17.854   7.078  0.00  0.00     0.000 A 
HETATM   12  C   UNK N   1      34.140  16.882   6.313  0.00  0.00     0.001 A 
HETATM   13  C   UNK N   1      34.720  15.774   6.937  0.00  0.00     0.009 A 
ENDBRANCH   1   8
BRANCH   1  14
HETATM   14  P   UNK N   1      34.098  12.924   9.018  0.00  0.00     0.256 P 
HETATM   15  O   UNK N   1      34.540  11.840   7.999  0.00  0.00    -0.653 OA
BRANCH  14  16
HETATM   16  O   UNK N   1      32.458  13.273   8.572  0.00  0.00    -0.328 OA
HETATM   17  H   UNK N   1      32.158  13.341   7.652  0.00  0.00     0.220 HD
ENDBRANCH  14  16
BRANCH  14  18
HETATM   18  O   UNK N   1      34.039  12.077  10.533  0.00  0.00    -0.328 OA
HETATM   19  H   UNK N   1      34.377  12.488  11.344  0.00  0.00     0.220 HD
ENDBRANCH  14  18
ENDBRANCH   1  14
TORSDOF 7
ENDMDL
