MODEL 1
REMARK VINA RESULT:      -4.2      0.000      0.000
REMARK  8 active torsions:
REMARK  status: ('A' for Active; 'I' for Inactive)
REMARK    1  A    between atoms: O_1  and  C_2 
REMARK    2  A    between atoms: C_2  and  C_3 
REMARK    3  A    between atoms: C_3  and  O_4 
REMARK    4  A    between atoms: C_3  and  C_5 
REMARK    5  A    between atoms: C_5  and  O_6 
REMARK    6  A    between atoms: O_6  and  P_7 
REMARK    7  A    between atoms: P_7  and  O_8 
REMARK    8  A    between atoms: P_7  and  O_9 
ROOT
HETATM    1  C   UNK N   1      21.149  19.443   2.672  0.00  0.00     0.214 C 
ENDROOT
BRANCH   1   2
HETATM    2  C   UNK N   1      20.951  20.903   2.317  0.00  0.00     0.166 C 
BRANCH   2   3
HETATM    3  C   UNK N   1      20.754  21.024   0.818  0.00  0.00     0.198 C 
BRANCH   3   4
HETATM    4  O   UNK N   1      20.578  19.760   0.255  0.00  0.00    -0.398 OA
HETATM    5  H   UNK N   1      21.090  19.350  -0.459  0.00  0.00     0.209 HD
ENDBRANCH   3   4
ENDBRANCH   2   3
BRANCH   2   6
HETATM    6  O   UNK N   1      22.077  21.631   2.707  0.00  0.00    -0.391 OA
HETATM    7  H   UNK N   1      22.876  21.181   3.024  0.00  0.00     0.210 HD
ENDBRANCH   2   6
ENDBRANCH   1   2
BRANCH   1   8
HETATM    8  O   UNK N   1      20.155  19.021   3.561  0.00  0.00    -0.294 OA
BRANCH   8   9
HETATM    9  P   UNK N   1      19.638  17.472   2.954  0.00  0.00     0.390 P 
HETATM   10  O   UNK N   1      20.978  17.654   2.191  0.00  0.00    -0.632 OA
BRANCH   9  11
HETATM   11  O   UNK N   1      19.173  17.247   1.299  0.00  0.00    -0.307 OA
HETATM   12  H   UNK N   1      18.480  16.649   0.979  0.00  0.00     0.222 HD
ENDBRANCH   9  11
BRANCH   9  13
HETATM   13  O   UNK N   1      18.532  18.709   2.443  0.00  0.00    -0.307 OA
HETATM   14  H   UNK N   1      18.365  19.013   1.537  0.00  0.00     0.222 HD
ENDBRANCH   9  13
ENDBRANCH   8   9
ENDBRANCH   1   8
TORSDOF 8
ENDMDL
MODEL 2
REMARK VINA RESULT:      -4.2     15.533     16.710
REMARK  8 active torsions:
REMARK  status: ('A' for Active; 'I' for Inactive)
REMARK    1  A    between atoms: O_1  and  C_2 
REMARK    2  A    between atoms: C_2  and  C_3 
REMARK    3  A    between atoms: C_3  and  O_4 
REMARK    4  A    between atoms: C_3  and  C_5 
REMARK    5  A    between atoms: C_5  and  O_6 
REMARK    6  A    between atoms: O_6  and  P_7 
REMARK    7  A    between atoms: P_7  and  O_8 
REMARK    8  A    between atoms: P_7  and  O_9 
ROOT
HETATM    1  C   UNK N   1      34.551  16.217   9.554  0.00  0.00     0.214 C 
ENDROOT
BRANCH   1   2
HETATM    2  C   UNK N   1      34.713  15.812  11.005  0.00  0.00     0.166 C 
BRANCH   2   3
HETATM    3  C   UNK N   1      36.080  15.181  11.191  0.00  0.00     0.198 C 
BRANCH   3   4
HETATM    4  O   UNK N   1      37.079  16.108  10.893  0.00  0.00    -0.398 OA
HETATM    5  H   UNK N   1      37.826  16.002  10.284  0.00  0.00     0.209 HD
ENDBRANCH   3   4
ENDBRANCH   2   3
BRANCH   2   6
HETATM    6  O   UNK N   1      33.718  14.893  11.344  0.00  0.00    -0.391 OA
HETATM    7  H   UNK N   1      33.854  13.941  11.213  0.00  0.00     0.210 HD
ENDBRANCH   2   6
ENDBRANCH   1   2
BRANCH   1   8
HETATM    8  O   UNK N   1      34.544  17.611   9.437  0.00  0.00    -0.294 OA
BRANCH   8   9
HETATM    9  P   UNK N   1      33.648  17.935   7.978  0.00  0.00     0.390 P 
HETATM   10  O   UNK N   1      34.053  16.453   7.752  0.00  0.00    -0.632 OA
BRANCH   9  11
HETATM   11  O   UNK N   1      34.416  17.978   6.424  0.00  0.00    -0.307 OA
HETATM   12  H   UNK N   1      35.342  18.210   6.254  0.00  0.00     0.222 HD
ENDBRANCH   9  11
BRANCH   9  13
HETATM   13  O   UNK N   1      35.086  18.907   8.019  0.00  0.00    -0.307 OA
HETATM   14  H   UNK N   1      35.576  19.203   8.802  0.00  0.00     0.222 HD
ENDBRANCH   9  13
ENDBRANCH   8   9
ENDBRANCH   1   8
TORSDOF 8
ENDMDL
MODEL 3
REMARK VINA RESULT:      -4.2     15.630     16.779
REMARK  8 active torsions:
REMARK  status: ('A' for Active; 'I' for Inactive)
REMARK    1  A    between atoms: O_1  and  C_2 
REMARK    2  A    between atoms: C_2  and  C_3 
REMARK    3  A    between atoms: C_3  and  O_4 
REMARK    4  A    between atoms: C_3  and  C_5 
REMARK    5  A    between atoms: C_5  and  O_6 
REMARK    6  A    between atoms: O_6  and  P_7 
REMARK    7  A    between atoms: P_7  and  O_8 
REMARK    8  A    between atoms: P_7  and  O_9 
ROOT
HETATM    1  C   UNK N   1      35.177  15.727   9.346  0.00  0.00     0.214 C 
ENDROOT
BRANCH   1   2
HETATM    2  C   UNK N   1      35.966  15.150  10.504  0.00  0.00     0.166 C 
BRANCH   2   3
HETATM    3  C   UNK N   1      35.006  14.764  11.613  0.00  0.00     0.198 C 
BRANCH   3   4
HETATM    4  O   UNK N   1      33.692  15.018  11.218  0.00  0.00    -0.398 OA
HETATM    5  H   UNK N   1      33.322  15.849  10.882  0.00  0.00     0.209 HD
ENDBRANCH   3   4
ENDBRANCH   2   3
BRANCH   2   6
HETATM    6  O   UNK N   1      36.870  16.106  10.971  0.00  0.00    -0.391 OA
HETATM    7  H   UNK N   1      37.685  16.302  10.482  0.00  0.00     0.210 HD
ENDBRANCH   2   6
ENDBRANCH   1   2
BRANCH   1   8
HETATM    8  O   UNK N   1      35.225  17.125   9.374  0.00  0.00    -0.294 OA
BRANCH   8   9
HETATM    9  P   UNK N   1      34.274  17.634   8.006  0.00  0.00     0.390 P 
HETATM   10  O   UNK N   1      34.941  18.975   8.415  0.00  0.00    -0.632 OA
BRANCH   9  11
HETATM   11  O   UNK N   1      32.919  18.702   8.180  0.00  0.00    -0.307 OA
HETATM   12  H   UNK N   1      32.016  18.530   7.868  0.00  0.00     0.222 HD
ENDBRANCH   9  11
BRANCH   9  13
HETATM   13  O   UNK N   1      33.231  17.114   9.293  0.00  0.00    -0.307 OA
HETATM   14  H   UNK N   1      32.262  17.146   9.315  0.00  0.00     0.222 HD
ENDBRANCH   9  13
ENDBRANCH   8   9
ENDBRANCH   1   8
TORSDOF 8
ENDMDL
MODEL 4
REMARK VINA RESULT:      -4.1      2.248      3.773
REMARK  8 active torsions:
REMARK  status: ('A' for Active; 'I' for Inactive)
REMARK    1  A    between atoms: O_1  and  C_2 
REMARK    2  A    between atoms: C_2  and  C_3 
REMARK    3  A    between atoms: C_3  and  O_4 
REMARK    4  A    between atoms: C_3  and  C_5 
REMARK    5  A    between atoms: C_5  and  O_6 
REMARK    6  A    between atoms: O_6  and  P_7 
REMARK    7  A    between atoms: P_7  and  O_8 
REMARK    8  A    between atoms: P_7  and  O_9 
ROOT
HETATM    1  C   UNK N   1      19.747  18.167   2.886  0.00  0.00     0.214 C 
ENDROOT
BRANCH   1   2
HETATM    2  C   UNK N   1      20.385  17.029   2.115  0.00  0.00     0.166 C 
BRANCH   2   3
HETATM    3  C   UNK N   1      19.776  16.972   0.726  0.00  0.00     0.198 C 
BRANCH   3   4
HETATM    4  O   UNK N   1      20.379  17.921  -0.100  0.00  0.00    -0.398 OA
HETATM    5  H   UNK N   1      20.409  17.931  -1.069  0.00  0.00     0.209 HD
ENDBRANCH   3   4
ENDBRANCH   2   3
BRANCH   2   6
HETATM    6  O   UNK N   1      20.152  15.826   2.784  0.00  0.00    -0.391 OA
HETATM    7  H   UNK N   1      20.764  15.510   3.466  0.00  0.00     0.210 HD
ENDBRANCH   2   6
ENDBRANCH   1   2
BRANCH   1   8
HETATM    8  O   UNK N   1      19.944  19.379   2.216  0.00  0.00    -0.294 OA
BRANCH   8   9
HETATM    9  P   UNK N   1      21.422  20.022   2.877  0.00  0.00     0.390 P 
HETATM   10  O   UNK N   1      20.368  20.716   3.783  0.00  0.00    -0.632 OA
BRANCH   9  11
HETATM   11  O   UNK N   1      21.834  21.700   2.732  0.00  0.00    -0.307 OA
HETATM   12  H   UNK N   1      21.562  22.293   2.014  0.00  0.00     0.222 HD
ENDBRANCH   9  11
BRANCH   9  13
HETATM   13  O   UNK N   1      21.210  20.579   1.246  0.00  0.00    -0.307 OA
HETATM   14  H   UNK N   1      20.612  20.219   0.573  0.00  0.00     0.222 HD
ENDBRANCH   9  13
ENDBRANCH   8   9
ENDBRANCH   1   8
TORSDOF 8
ENDMDL
MODEL 5
REMARK VINA RESULT:      -4.1     18.230     19.145
REMARK  8 active torsions:
REMARK  status: ('A' for Active; 'I' for Inactive)
REMARK    1  A    between atoms: O_1  and  C_2 
REMARK    2  A    between atoms: C_2  and  C_3 
REMARK    3  A    between atoms: C_3  and  O_4 
REMARK    4  A    between atoms: C_3  and  C_5 
REMARK    5  A    between atoms: C_5  and  O_6 
REMARK    6  A    between atoms: O_6  and  P_7 
REMARK    7  A    between atoms: P_7  and  O_8 
REMARK    8  A    between atoms: P_7  and  O_9 
ROOT
HETATM    1  C   UNK N   1      35.315  13.998  11.521  0.00  0.00     0.214 C 
ENDROOT
BRANCH   1   2
HETATM    2  C   UNK N   1      34.589  15.020  10.670  0.00  0.00     0.166 C 
BRANCH   2   3
HETATM    3  C   UNK N   1      35.281  16.362  10.812  0.00  0.00     0.198 C 
BRANCH   3   4
HETATM    4  O   UNK N   1      36.658  16.178  10.946  0.00  0.00    -0.398 OA
HETATM    5  H   UNK N   1      37.300  16.777  11.357  0.00  0.00     0.209 HD
ENDBRANCH   3   4
ENDBRANCH   2   3
BRANCH   2   6
HETATM    6  O   UNK N   1      33.264  15.123  11.099  0.00  0.00    -0.391 OA
HETATM    7  H   UNK N   1      32.599  14.474  10.821  0.00  0.00     0.210 HD
ENDBRANCH   2   6
ENDBRANCH   1   2
BRANCH   1   8
HETATM    8  O   UNK N   1      35.041  14.211  12.876  0.00  0.00    -0.294 OA
BRANCH   8   9
HETATM    9  P   UNK N   1      36.180  13.204  13.728  0.00  0.00     0.390 P 
HETATM   10  O   UNK N   1      35.057  13.341  14.791  0.00  0.00    -0.632 OA
BRANCH   9  11
HETATM   11  O   UNK N   1      37.038  13.773  15.124  0.00  0.00    -0.307 OA
HETATM   12  H   UNK N   1      36.666  14.314  15.838  0.00  0.00     0.222 HD
ENDBRANCH   9  11
BRANCH   9  13
HETATM   13  O   UNK N   1      36.871  14.772  13.441  0.00  0.00    -0.307 OA
HETATM   14  H   UNK N   1      37.798  14.980  13.244  0.00  0.00     0.222 HD
ENDBRANCH   9  13
ENDBRANCH   8   9
ENDBRANCH   1   8
TORSDOF 8
ENDMDL
MODEL 6
REMARK VINA RESULT:      -3.9     14.889     15.826
REMARK  8 active torsions:
REMARK  status: ('A' for Active; 'I' for Inactive)
REMARK    1  A    between atoms: O_1  and  C_2 
REMARK    2  A    between atoms: C_2  and  C_3 
REMARK    3  A    between atoms: C_3  and  O_4 
REMARK    4  A    between atoms: C_3  and  C_5 
REMARK    5  A    between atoms: C_5  and  O_6 
REMARK    6  A    between atoms: O_6  and  P_7 
REMARK    7  A    between atoms: P_7  and  O_8 
REMARK    8  A    between atoms: P_7  and  O_9 
ROOT
HETATM    1  C   UNK N   1      34.596  16.316   8.252  0.00  0.00     0.214 C 
ENDROOT
BRANCH   1   2
HETATM    2  C   UNK N   1      34.310  17.709   7.730  0.00  0.00     0.166 C 
BRANCH   2   3
HETATM    3  C   UNK N   1      32.907  18.112   8.143  0.00  0.00     0.198 C 
BRANCH   3   4
HETATM    4  O   UNK N   1      32.451  17.280   9.166  0.00  0.00    -0.398 OA
HETATM    5  H   UNK N   1      31.679  17.409   9.737  0.00  0.00     0.209 HD
ENDBRANCH   3   4
ENDBRANCH   2   3
BRANCH   2   6
HETATM    6  O   UNK N   1      34.413  17.713   6.338  0.00  0.00    -0.391 OA
HETATM    7  H   UNK N   1      35.069  18.269   5.889  0.00  0.00     0.210 HD
ENDBRANCH   2   6
ENDBRANCH   1   2
BRANCH   1   8
HETATM    8  O   UNK N   1      35.534  16.368   9.289  0.00  0.00    -0.294 OA
BRANCH   8   9
HETATM    9  P   UNK N   1      35.039  15.126  10.406  0.00  0.00     0.390 P 
HETATM   10  O   UNK N   1      34.094  14.838   9.208  0.00  0.00    -0.632 OA
BRANCH   9  11
HETATM   11  O   UNK N   1      33.469  15.133  11.142  0.00  0.00    -0.307 OA
HETATM   12  H   UNK N   1      32.712  15.673  10.865  0.00  0.00     0.222 HD
ENDBRANCH   9  11
BRANCH   9  13
HETATM   13  O   UNK N   1      34.658  16.693  11.052  0.00  0.00    -0.307 OA
HETATM   14  H   UNK N   1      33.803  17.149  11.027  0.00  0.00     0.222 HD
ENDBRANCH   9  13
ENDBRANCH   8   9
ENDBRANCH   1   8
TORSDOF 8
ENDMDL
MODEL 7
REMARK VINA RESULT:      -3.9     17.787     18.926
REMARK  8 active torsions:
REMARK  status: ('A' for Active; 'I' for Inactive)
REMARK    1  A    between atoms: O_1  and  C_2 
REMARK    2  A    between atoms: C_2  and  C_3 
REMARK    3  A    between atoms: C_3  and  O_4 
REMARK    4  A    between atoms: C_3  and  C_5 
REMARK    5  A    between atoms: C_5  and  O_6 
REMARK    6  A    between atoms: O_6  and  P_7 
REMARK    7  A    between atoms: P_7  and  O_8 
REMARK    8  A    between atoms: P_7  and  O_9 
ROOT
HETATM    1  C   UNK N   1      35.140  13.556  10.911  0.00  0.00     0.214 C 
ENDROOT
BRANCH   1   2
HETATM    2  C   UNK N   1      35.457  13.544  12.393  0.00  0.00     0.166 C 
BRANCH   2   3
HETATM    3  C   UNK N   1      36.743  12.772  12.616  0.00  0.00     0.198 C 
BRANCH   3   4
HETATM    4  O   UNK N   1      37.768  13.315  11.841  0.00  0.00    -0.398 OA
HETATM    5  H   UNK N   1      38.722  13.289  12.014  0.00  0.00     0.209 HD
ENDBRANCH   3   4
ENDBRANCH   2   3
BRANCH   2   6
HETATM    6  O   UNK N   1      34.411  12.932  13.086  0.00  0.00    -0.391 OA
HETATM    7  H   UNK N   1      34.139  13.253  13.961  0.00  0.00     0.210 HD
ENDBRANCH   2   6
ENDBRANCH   1   2
BRANCH   1   8
HETATM    8  O   UNK N   1      35.877  14.553  10.265  0.00  0.00    -0.294 OA
BRANCH   8   9
HETATM    9  P   UNK N   1      35.314  16.049  10.959  0.00  0.00     0.390 P 
HETATM   10  O   UNK N   1      34.676  16.123   9.545  0.00  0.00    -0.632 OA
BRANCH   9  11
HETATM   11  O   UNK N   1      35.853  17.589  10.373  0.00  0.00    -0.307 OA
HETATM   12  H   UNK N   1      35.595  18.455  10.728  0.00  0.00     0.222 HD
ENDBRANCH   9  11
BRANCH   9  13
HETATM   13  O   UNK N   1      37.042  16.085  10.795  0.00  0.00    -0.307 OA
HETATM   14  H   UNK N   1      37.555  16.356  10.018  0.00  0.00     0.222 HD
ENDBRANCH   9  13
ENDBRANCH   8   9
ENDBRANCH   1   8
TORSDOF 8
ENDMDL
MODEL 8
REMARK VINA RESULT:      -3.9     19.019     19.969
REMARK  8 active torsions:
REMARK  status: ('A' for Active; 'I' for Inactive)
REMARK    1  A    between atoms: O_1  and  C_2 
REMARK    2  A    between atoms: C_2  and  C_3 
REMARK    3  A    between atoms: C_3  and  O_4 
REMARK    4  A    between atoms: C_3  and  C_5 
REMARK    5  A    between atoms: C_5  and  O_6 
REMARK    6  A    between atoms: O_6  and  P_7 
REMARK    7  A    between atoms: P_7  and  O_8 
REMARK    8  A    between atoms: P_7  and  O_9 
ROOT
HETATM    1  C   UNK N   1      36.207  14.342  13.659  0.00  0.00     0.214 C 
ENDROOT
BRANCH   1   2
HETATM    2  C   UNK N   1      36.798  13.770  14.932  0.00  0.00     0.166 C 
BRANCH   2   3
HETATM    3  C   UNK N   1      35.669  13.322  15.842  0.00  0.00     0.198 C 
BRANCH   3   4
HETATM    4  O   UNK N   1      34.504  13.128  15.099  0.00  0.00    -0.398 OA
HETATM    5  H   UNK N   1      34.026  13.778  14.562  0.00  0.00     0.209 HD
ENDBRANCH   3   4
ENDBRANCH   2   3
BRANCH   2   6
HETATM    6  O   UNK N   1      37.560  14.749  15.571  0.00  0.00    -0.391 OA
HETATM    7  H   UNK N   1      38.371  14.515  16.050  0.00  0.00     0.210 HD
ENDBRANCH   2   6
ENDBRANCH   1   2
BRANCH   1   8
HETATM    8  O   UNK N   1      36.344  13.430  12.608  0.00  0.00    -0.294 OA
BRANCH   8   9
HETATM    9  P   UNK N   1      35.388  14.094  11.311  0.00  0.00     0.390 P 
HETATM   10  O   UNK N   1      35.773  15.385  12.083  0.00  0.00    -0.632 OA
BRANCH   9  11
HETATM   11  O   UNK N   1      33.851  14.843  11.599  0.00  0.00    -0.307 OA
HETATM   12  H   UNK N   1      33.135  14.940  10.951  0.00  0.00     0.222 HD
ENDBRANCH   9  11
BRANCH   9  13
HETATM   13  O   UNK N   1      34.394  13.106  12.336  0.00  0.00    -0.307 OA
HETATM   14  H   UNK N   1      34.532  12.902  13.274  0.00  0.00     0.222 HD
ENDBRANCH   9  13
ENDBRANCH   8   9
ENDBRANCH   1   8
TORSDOF 8
ENDMDL
MODEL 9
REMARK VINA RESULT:      -3.7      2.212      2.858
REMARK  8 active torsions:
REMARK  status: ('A' for Active; 'I' for Inactive)
REMARK    1  A    between atoms: O_1  and  C_2 
REMARK    2  A    between atoms: C_2  and  C_3 
REMARK    3  A    between atoms: C_3  and  O_4 
REMARK    4  A    between atoms: C_3  and  C_5 
REMARK    5  A    between atoms: C_5  and  O_6 
REMARK    6  A    between atoms: O_6  and  P_7 
REMARK    7  A    between atoms: P_7  and  O_8 
REMARK    8  A    between atoms: P_7  and  O_9 
ROOT
HETATM    1  C   UNK N   1      21.652  19.489   3.587  0.00  0.00     0.214 C 
ENDROOT
BRANCH   1   2
HETATM    2  C   UNK N   1      21.017  20.610   2.790  0.00  0.00     0.166 C 
BRANCH   2   3
HETATM    3  C   UNK N   1      20.824  20.150   1.358  0.00  0.00     0.198 C 
BRANCH   3   4
HETATM    4  O   UNK N   1      20.506  21.237   0.544  0.00  0.00    -0.398 OA
HETATM    5  H   UNK N   1      19.695  21.380   0.032  0.00  0.00     0.209 HD
ENDBRANCH   3   4
ENDBRANCH   2   3
BRANCH   2   6
HETATM    6  O   UNK N   1      21.849  21.730   2.820  0.00  0.00    -0.391 OA
HETATM    7  H   UNK N   1      22.722  21.712   2.398  0.00  0.00     0.210 HD
ENDBRANCH   2   6
ENDBRANCH   1   2
BRANCH   1   8
HETATM    8  O   UNK N   1      21.078  19.411   4.860  0.00  0.00    -0.294 OA
BRANCH   8   9
HETATM    9  P   UNK N   1      21.696  17.932   5.542  0.00  0.00     0.390 P 
HETATM   10  O   UNK N   1      20.535  17.389   4.665  0.00  0.00    -0.632 OA
BRANCH   9  11
HETATM   11  O   UNK N   1      20.773  16.988   6.666  0.00  0.00    -0.307 OA
HETATM   12  H   UNK N   1      19.814  17.046   6.805  0.00  0.00     0.222 HD
ENDBRANCH   9  11
BRANCH   9  13
HETATM   13  O   UNK N   1      21.028  18.930   6.797  0.00  0.00    -0.307 OA
HETATM   14  H   UNK N   1      20.345  18.689   7.441  0.00  0.00     0.222 HD
ENDBRANCH   9  13
ENDBRANCH   8   9
ENDBRANCH   1   8
TORSDOF 8
ENDMDL
