MODEL 1
REMARK VINA RESULT:      -6.4      0.000      0.000
REMARK  16 active torsions:
REMARK  status: ('A' for Active; 'I' for Inactive)
REMARK    1  A    between atoms: C_9  and  C_5 
REMARK    2  A    between atoms: O_22  and  C_5 
REMARK    3  A    between atoms: C_10  and  C_6 
REMARK    4  A    between atoms: O_23  and  C_6 
REMARK    5  A    between atoms: C_11  and  C_7 
REMARK    6  A    between atoms: O_31  and  C_8 
REMARK    7  A    between atoms: C_18  and  C_11 
REMARK    8  A    between atoms: C_11  and  N_21 
REMARK    9  A    between atoms: C_12  and  O_24 
REMARK   10  A    between atoms: C_13  and  O_25 
REMARK   11  A    between atoms: C_14  and  O_26 
REMARK   12  A    between atoms: C_15  and  O_27 
REMARK   13  A    between atoms: C_17  and  O_34 
REMARK   14  A    between atoms: O_30  and  C_18 
REMARK   15  A    between atoms: C_19  and  O_34 
REMARK   16  A    between atoms: C_20  and  O_31 
ROOT
HETATM    1  C   UNK N   1      29.793  17.841   8.130  0.00  0.00     0.179 C 
HETATM    2  C   UNK N   1      28.394  18.365   8.592  0.00  0.00     0.180 C 
HETATM    3  C   UNK N   1      27.981  19.411   7.564  0.00  0.00     0.183 C 
HETATM    4  C   UNK N   1      27.824  18.748   6.173  0.00  0.00     0.204 C 
HETATM    5  C   UNK N   1      28.751  17.508   6.016  0.00  0.00     0.292 C 
HETATM    6  O   UNK N   1      26.505  18.332   5.962  0.00  0.00    -0.388 OA
HETATM    7  O   UNK N   1      29.973  17.704   6.713  0.00  0.00    -0.348 OA
HETATM    8  H   UNK N   1      25.604  17.982   5.896  0.00  0.00     0.210 HD
ENDROOT
BRANCH   3   9
HETATM    9  O   UNK N   1      26.816  20.083   7.941  0.00  0.00    -0.390 OA
HETATM   10  H   UNK N   1      26.164  20.544   7.391  0.00  0.00     0.210 HD
ENDBRANCH   3   9
BRANCH   5  11
HETATM   11  O   UNK N   1      28.918  17.245   4.623  0.00  0.00    -0.346 OA
BRANCH  11  12
HETATM   12  C   UNK N   1      28.915  15.869   4.254  0.00  0.00     0.211 C 
HETATM   13  C   UNK N   1      27.484  15.373   3.921  0.00  0.00     0.183 C 
HETATM   14  C   UNK N   1      27.536  13.945   3.356  0.00  0.00     0.180 C 
HETATM   15  C   UNK N   1      28.482  13.935   2.144  0.00  0.00     0.179 C 
HETATM   16  O   UNK N   1      29.781  14.339   2.545  0.00  0.00    -0.348 OA
HETATM   17  C   UNK N   1      29.769  15.696   2.958  0.00  0.00     0.298 C 
BRANCH  13  18
HETATM   18  O   UNK N   1      26.660  15.388   5.045  0.00  0.00    -0.390 OA
HETATM   19  H   UNK N   1      26.913  14.899   5.844  0.00  0.00     0.210 HD
ENDBRANCH  13  18
BRANCH  14  20
HETATM   20  O   UNK N   1      28.001  13.059   4.335  0.00  0.00    -0.390 OA
HETATM   21  H   UNK N   1      28.091  12.317   4.952  0.00  0.00     0.210 HD
ENDBRANCH  14  20
BRANCH  15  22
HETATM   22  C   UNK N   1      28.552  12.536   1.547  0.00  0.00     0.198 C 
BRANCH  22  23
HETATM   23  O   UNK N   1      27.351  11.857   1.767  0.00  0.00    -0.398 OA
HETATM   24  H   UNK N   1      26.884  11.944   2.612  0.00  0.00     0.209 HD
ENDBRANCH  22  23
ENDBRANCH  15  22
BRANCH  17  25
HETATM   25  O   UNK N   1      31.083  16.155   2.995  0.00  0.00    -0.318 OA
BRANCH  25  26
HETATM   26  C   UNK N   1      31.963  16.277   4.021  0.00  0.00     0.072 A 
HETATM   27  C   UNK N   1      32.595  17.509   4.186  0.00  0.00     0.037 A 
HETATM   28  C   UNK N   1      33.421  17.738   5.282  0.00  0.00     0.012 A 
HETATM   29  C   UNK N   1      33.660  16.730   6.226  0.00  0.00    -0.026 A 
HETATM   30  C   UNK N   1      33.093  15.461   6.012  0.00  0.00     0.012 A 
HETATM   31  C   UNK N   1      32.242  15.238   4.922  0.00  0.00     0.037 A 
BRANCH  29  32
HETATM   32  C   UNK N   1      34.467  16.978   7.492  0.00  0.00     0.207 C 
BRANCH  32  33
HETATM   33  C   UNK N   1      34.325  18.337   8.159  0.00  0.00     0.167 C 
HETATM   34  O   UNK N   1      35.286  19.065   8.357  0.00  0.00    -0.648 OA
BRANCH  33  35
HETATM   35  O   UNK N   1      33.099  18.771   8.507  0.00  0.00    -0.775 OA
HETATM   36  H   UNK N   1      32.449  18.171   8.817  0.00  0.00     0.167 HD
ENDBRANCH  33  35
ENDBRANCH  32  33
BRANCH  32  37
HETATM   37  N   UNK N   1      34.095  15.973   8.478  0.00  0.00    -0.414 N 
HETATM   38  H   UNK N   1      34.625  15.111   8.603  0.00  0.00     0.151 HD
HETATM   39  H   UNK N   1      33.276  16.137   9.062  0.00  0.00     0.151 HD
ENDBRANCH  32  37
ENDBRANCH  29  32
ENDBRANCH  25  26
ENDBRANCH  17  25
ENDBRANCH  11  12
ENDBRANCH   5  11
BRANCH   2  40
HETATM   40  O   UNK N   1      27.431  17.351   8.652  0.00  0.00    -0.390 OA
HETATM   41  H   UNK N   1      27.030  16.541   9.003  0.00  0.00     0.210 HD
ENDBRANCH   2  40
BRANCH   1  42
HETATM   42  C   UNK N   1      30.250  16.596   8.892  0.00  0.00     0.198 C 
BRANCH  42  43
HETATM   43  O   UNK N   1      31.532  16.758   9.420  0.00  0.00    -0.398 OA
HETATM   44  H   UNK N   1      32.354  17.261   9.528  0.00  0.00     0.209 HD
ENDBRANCH  42  43
ENDBRANCH   1  42
TORSDOF 16
ENDMDL
MODEL 2
REMARK VINA RESULT:      -6.4      8.757     10.128
REMARK  16 active torsions:
REMARK  status: ('A' for Active; 'I' for Inactive)
REMARK    1  A    between atoms: C_9  and  C_5 
REMARK    2  A    between atoms: O_22  and  C_5 
REMARK    3  A    between atoms: C_10  and  C_6 
REMARK    4  A    between atoms: O_23  and  C_6 
REMARK    5  A    between atoms: C_11  and  C_7 
REMARK    6  A    between atoms: O_31  and  C_8 
REMARK    7  A    between atoms: C_18  and  C_11 
REMARK    8  A    between atoms: C_11  and  N_21 
REMARK    9  A    between atoms: C_12  and  O_24 
REMARK   10  A    between atoms: C_13  and  O_25 
REMARK   11  A    between atoms: C_14  and  O_26 
REMARK   12  A    between atoms: C_15  and  O_27 
REMARK   13  A    between atoms: C_17  and  O_34 
REMARK   14  A    between atoms: O_30  and  C_18 
REMARK   15  A    between atoms: C_19  and  O_34 
REMARK   16  A    between atoms: C_20  and  O_31 
ROOT
HETATM    1  C   UNK N   1      20.298  18.399   3.297  0.00  0.00     0.179 C 
HETATM    2  C   UNK N   1      21.152  18.954   4.484  0.00  0.00     0.180 C 
HETATM    3  C   UNK N   1      21.034  17.924   5.600  0.00  0.00     0.183 C 
HETATM    4  C   UNK N   1      21.646  16.577   5.140  0.00  0.00     0.204 C 
HETATM    5  C   UNK N   1      21.544  16.393   3.598  0.00  0.00     0.292 C 
HETATM    6  O   UNK N   1      22.996  16.493   5.497  0.00  0.00    -0.388 OA
HETATM    7  O   UNK N   1      20.348  16.978   3.102  0.00  0.00    -0.348 OA
HETATM    8  H   UNK N   1      23.947  16.516   5.685  0.00  0.00     0.210 HD
ENDROOT
BRANCH   3   9
HETATM    9  O   UNK N   1      21.620  18.370   6.787  0.00  0.00    -0.390 OA
HETATM   10  H   UNK N   1      22.310  19.038   6.920  0.00  0.00     0.210 HD
ENDBRANCH   3   9
BRANCH   5  11
HETATM   11  O   UNK N   1      21.670  15.002   3.303  0.00  0.00    -0.346 OA
BRANCH  11  12
HETATM   12  C   UNK N   1      20.710  14.153   3.925  0.00  0.00     0.211 C 
HETATM   13  C   UNK N   1      19.723  13.556   2.887  0.00  0.00     0.183 C 
HETATM   14  C   UNK N   1      18.819  12.510   3.557  0.00  0.00     0.180 C 
HETATM   15  C   UNK N   1      19.710  11.454   4.230  0.00  0.00     0.179 C 
HETATM   16  O   UNK N   1      20.533  12.071   5.207  0.00  0.00    -0.348 OA
HETATM   17  C   UNK N   1      21.456  12.952   4.587  0.00  0.00     0.298 C 
BRANCH  13  18
HETATM   18  O   UNK N   1      18.928  14.541   2.307  0.00  0.00    -0.390 OA
HETATM   19  H   UNK N   1      18.770  15.379   2.769  0.00  0.00     0.210 HD
ENDBRANCH  13  18
BRANCH  14  20
HETATM   20  O   UNK N   1      18.000  13.125   4.511  0.00  0.00    -0.390 OA
HETATM   21  H   UNK N   1      17.256  13.366   5.084  0.00  0.00     0.210 HD
ENDBRANCH  14  20
BRANCH  15  22
HETATM   22  C   UNK N   1      18.848  10.390   4.898  0.00  0.00     0.198 C 
BRANCH  22  23
HETATM   23  O   UNK N   1      17.573  10.377   4.329  0.00  0.00    -0.398 OA
HETATM   24  H   UNK N   1      17.420  10.763   3.452  0.00  0.00     0.209 HD
ENDBRANCH  22  23
ENDBRANCH  15  22
BRANCH  17  25
HETATM   25  O   UNK N   1      22.459  13.253   5.505  0.00  0.00    -0.318 OA
BRANCH  25  26
HETATM   26  C   UNK N   1      22.651  12.854   6.788  0.00  0.00     0.072 A 
HETATM   27  C   UNK N   1      22.150  13.670   7.801  0.00  0.00     0.037 A 
HETATM   28  C   UNK N   1      22.212  13.267   9.130  0.00  0.00     0.012 A 
HETATM   29  C   UNK N   1      22.804  12.047   9.485  0.00  0.00    -0.026 A 
HETATM   30  C   UNK N   1      23.388  11.265   8.473  0.00  0.00     0.012 A 
HETATM   31  C   UNK N   1      23.303  11.660   7.132  0.00  0.00     0.037 A 
BRANCH  29  32
HETATM   32  C   UNK N   1      22.792  11.523  10.914  0.00  0.00     0.207 C 
BRANCH  32  33
HETATM   33  C   UNK N   1      23.915  11.974  11.835  0.00  0.00     0.167 C 
HETATM   34  O   UNK N   1      25.058  12.133  11.433  0.00  0.00    -0.648 OA
BRANCH  33  35
HETATM   35  O   UNK N   1      23.636  12.248  13.123  0.00  0.00    -0.775 OA
HETATM   36  H   UNK N   1      23.725  11.588  13.782  0.00  0.00     0.167 HD
ENDBRANCH  33  35
ENDBRANCH  32  33
BRANCH  32  37
HETATM   37  N   UNK N   1      21.538  11.921  11.538  0.00  0.00    -0.414 N 
HETATM   38  H   UNK N   1      21.240  12.894  11.590  0.00  0.00     0.151 HD
HETATM   39  H   UNK N   1      20.937  11.200  11.936  0.00  0.00     0.151 HD
ENDBRANCH  32  37
ENDBRANCH  29  32
ENDBRANCH  25  26
ENDBRANCH  17  25
ENDBRANCH  11  12
ENDBRANCH   5  11
BRANCH   2  40
HETATM   40  O   UNK N   1      22.498  19.133   4.142  0.00  0.00    -0.390 OA
HETATM   41  H   UNK N   1      23.449  18.953   4.198  0.00  0.00     0.210 HD
ENDBRANCH   2  40
BRANCH   1  42
HETATM   42  C   UNK N   1      20.510  19.168   1.992  0.00  0.00     0.198 C 
BRANCH  42  43
HETATM   43  O   UNK N   1      20.854  20.500   2.231  0.00  0.00    -0.398 OA
HETATM   44  H   UNK N   1      21.035  21.242   2.828  0.00  0.00     0.209 HD
ENDBRANCH  42  43
ENDBRANCH   1  42
TORSDOF 16
ENDMDL
MODEL 3
REMARK VINA RESULT:      -6.3      7.292     10.341
REMARK  16 active torsions:
REMARK  status: ('A' for Active; 'I' for Inactive)
REMARK    1  A    between atoms: C_9  and  C_5 
REMARK    2  A    between atoms: O_22  and  C_5 
REMARK    3  A    between atoms: C_10  and  C_6 
REMARK    4  A    between atoms: O_23  and  C_6 
REMARK    5  A    between atoms: C_11  and  C_7 
REMARK    6  A    between atoms: O_31  and  C_8 
REMARK    7  A    between atoms: C_18  and  C_11 
REMARK    8  A    between atoms: C_11  and  N_21 
REMARK    9  A    between atoms: C_12  and  O_24 
REMARK   10  A    between atoms: C_13  and  O_25 
REMARK   11  A    between atoms: C_14  and  O_26 
REMARK   12  A    between atoms: C_15  and  O_27 
REMARK   13  A    between atoms: C_17  and  O_34 
REMARK   14  A    between atoms: O_30  and  C_18 
REMARK   15  A    between atoms: C_19  and  O_34 
REMARK   16  A    between atoms: C_20  and  O_31 
ROOT
HETATM    1  C   UNK N   1      33.944  15.702   7.410  0.00  0.00     0.179 C 
HETATM    2  C   UNK N   1      32.848  16.092   8.455  0.00  0.00     0.180 C 
HETATM    3  C   UNK N   1      32.764  14.921   9.426  0.00  0.00     0.183 C 
HETATM    4  C   UNK N   1      34.113  14.753  10.167  0.00  0.00     0.204 C 
HETATM    5  C   UNK N   1      35.310  15.248   9.306  0.00  0.00     0.292 C 
HETATM    6  O   UNK N   1      34.119  15.470  11.368  0.00  0.00    -0.388 OA
HETATM    7  O   UNK N   1      35.078  14.991   7.929  0.00  0.00    -0.348 OA
HETATM    8  H   UNK N   1      34.109  16.051  12.144  0.00  0.00     0.210 HD
ENDROOT
BRANCH   3   9
HETATM    9  O   UNK N   1      31.704  15.065  10.326  0.00  0.00    -0.390 OA
HETATM   10  H   UNK N   1      31.499  14.554  11.124  0.00  0.00     0.210 HD
ENDBRANCH   3   9
BRANCH   5  11
HETATM   11  O   UNK N   1      36.505  14.650   9.811  0.00  0.00    -0.346 OA
BRANCH  11  12
HETATM   12  C   UNK N   1      36.387  13.288  10.210  0.00  0.00     0.211 C 
HETATM   13  C   UNK N   1      37.228  12.354   9.301  0.00  0.00     0.183 C 
HETATM   14  C   UNK N   1      37.226  10.924   9.862  0.00  0.00     0.180 C 
HETATM   15  C   UNK N   1      37.722  10.970  11.317  0.00  0.00     0.179 C 
HETATM   16  O   UNK N   1      36.864  11.792  12.093  0.00  0.00    -0.348 OA
HETATM   17  C   UNK N   1      36.949  13.139  11.659  0.00  0.00     0.298 C 
BRANCH  13  18
HETATM   18  O   UNK N   1      36.742  12.332   7.995  0.00  0.00    -0.390 OA
HETATM   19  H   UNK N   1      37.013  11.629   7.384  0.00  0.00     0.210 HD
ENDBRANCH  13  18
BRANCH  14  20
HETATM   20  O   UNK N   1      35.931  10.394   9.815  0.00  0.00    -0.390 OA
HETATM   21  H   UNK N   1      35.048  10.115   9.526  0.00  0.00     0.210 HD
ENDBRANCH  14  20
BRANCH  15  22
HETATM   22  C   UNK N   1      37.745   9.567  11.907  0.00  0.00     0.198 C 
BRANCH  22  23
HETATM   23  O   UNK N   1      36.455   9.181  12.280  0.00  0.00    -0.398 OA
HETATM   24  H   UNK N   1      36.065   9.501  13.109  0.00  0.00     0.209 HD
ENDBRANCH  22  23
ENDBRANCH  15  22
BRANCH  17  25
HETATM   25  O   UNK N   1      36.393  13.952  12.644  0.00  0.00    -0.318 OA
BRANCH  25  26
HETATM   26  C   UNK N   1      36.073  13.702  13.939  0.00  0.00     0.072 A 
HETATM   27  C   UNK N   1      36.881  14.267  14.925  0.00  0.00     0.037 A 
HETATM   28  C   UNK N   1      36.545  14.145  16.269  0.00  0.00     0.012 A 
HETATM   29  C   UNK N   1      35.407  13.429  16.665  0.00  0.00    -0.026 A 
HETATM   30  C   UNK N   1      34.642  12.785  15.676  0.00  0.00     0.012 A 
HETATM   31  C   UNK N   1      34.967  12.928  14.322  0.00  0.00     0.037 A 
BRANCH  29  32
HETATM   32  C   UNK N   1      34.949  13.367  18.115  0.00  0.00     0.207 C 
BRANCH  32  33
HETATM   33  C   UNK N   1      35.493  12.235  18.974  0.00  0.00     0.167 C 
HETATM   34  O   UNK N   1      35.675  11.114  18.526  0.00  0.00    -0.648 OA
BRANCH  33  35
HETATM   35  O   UNK N   1      35.822  12.485  20.255  0.00  0.00    -0.775 OA
HETATM   36  H   UNK N   1      36.189  11.813  20.794  0.00  0.00     0.167 HD
ENDBRANCH  33  35
ENDBRANCH  32  33
BRANCH  32  37
HETATM   37  N   UNK N   1      35.317  14.617  18.766  0.00  0.00    -0.414 N 
HETATM   38  H   UNK N   1      36.258  15.005  18.705  0.00  0.00     0.151 HD
HETATM   39  H   UNK N   1      34.610  15.119  19.301  0.00  0.00     0.151 HD
ENDBRANCH  32  37
ENDBRANCH  29  32
ENDBRANCH  25  26
ENDBRANCH  17  25
ENDBRANCH  11  12
ENDBRANCH   5  11
BRANCH   2  40
HETATM   40  O   UNK N   1      33.161  17.266   9.151  0.00  0.00    -0.390 OA
HETATM   41  H   UNK N   1      32.957  18.060   9.669  0.00  0.00     0.210 HD
ENDBRANCH   2  40
BRANCH   1  42
HETATM   42  C   UNK N   1      34.358  16.867   6.509  0.00  0.00     0.198 C 
BRANCH  42  43
HETATM   43  O   UNK N   1      33.299  17.297   5.707  0.00  0.00    -0.398 OA
HETATM   44  H   UNK N   1      32.941  17.622   4.866  0.00  0.00     0.209 HD
ENDBRANCH  42  43
ENDBRANCH   1  42
TORSDOF 16
ENDMDL
MODEL 4
REMARK VINA RESULT:      -6.3     12.569     14.839
REMARK  16 active torsions:
REMARK  status: ('A' for Active; 'I' for Inactive)
REMARK    1  A    between atoms: C_9  and  C_5 
REMARK    2  A    between atoms: O_22  and  C_5 
REMARK    3  A    between atoms: C_10  and  C_6 
REMARK    4  A    between atoms: O_23  and  C_6 
REMARK    5  A    between atoms: C_11  and  C_7 
REMARK    6  A    between atoms: O_31  and  C_8 
REMARK    7  A    between atoms: C_18  and  C_11 
REMARK    8  A    between atoms: C_11  and  N_21 
REMARK    9  A    between atoms: C_12  and  O_24 
REMARK   10  A    between atoms: C_13  and  O_25 
REMARK   11  A    between atoms: C_14  and  O_26 
REMARK   12  A    between atoms: C_15  and  O_27 
REMARK   13  A    between atoms: C_17  and  O_34 
REMARK   14  A    between atoms: O_30  and  C_18 
REMARK   15  A    between atoms: C_19  and  O_34 
REMARK   16  A    between atoms: C_20  and  O_31 
ROOT
HETATM    1  C   UNK N   1      28.104  21.866  -7.466  0.00  0.00     0.179 C 
HETATM    2  C   UNK N   1      27.375  21.791  -8.847  0.00  0.00     0.180 C 
HETATM    3  C   UNK N   1      25.922  21.455  -8.533  0.00  0.00     0.183 C 
HETATM    4  C   UNK N   1      25.285  22.596  -7.700  0.00  0.00     0.204 C 
HETATM    5  C   UNK N   1      26.344  23.341  -6.838  0.00  0.00     0.292 C 
HETATM    6  O   UNK N   1      24.664  23.535  -8.530  0.00  0.00    -0.388 OA
HETATM    7  O   UNK N   1      27.349  22.442  -6.390  0.00  0.00    -0.348 OA
HETATM    8  H   UNK N   1      24.325  24.202  -9.146  0.00  0.00     0.210 HD
ENDROOT
BRANCH   3   9
HETATM    9  O   UNK N   1      25.184  21.198  -9.691  0.00  0.00    -0.390 OA
HETATM   10  H   UNK N   1      24.514  20.516  -9.857  0.00  0.00     0.210 HD
ENDBRANCH   3   9
BRANCH   5  11
HETATM   11  O   UNK N   1      25.665  24.020  -5.781  0.00  0.00    -0.346 OA
BRANCH  11  12
HETATM   12  C   UNK N   1      26.194  25.296  -5.432  0.00  0.00     0.211 C 
HETATM   13  C   UNK N   1      25.258  26.444  -5.892  0.00  0.00     0.183 C 
HETATM   14  C   UNK N   1      25.761  27.789  -5.347  0.00  0.00     0.180 C 
HETATM   15  C   UNK N   1      25.887  27.679  -3.819  0.00  0.00     0.179 C 
HETATM   16  O   UNK N   1      26.807  26.652  -3.484  0.00  0.00    -0.348 OA
HETATM   17  C   UNK N   1      26.297  25.388  -3.877  0.00  0.00     0.298 C 
BRANCH  13  18
HETATM   18  O   UNK N   1      25.178  26.518  -7.282  0.00  0.00    -0.390 OA
HETATM   19  H   UNK N   1      25.488  27.309  -7.749  0.00  0.00     0.210 HD
ENDBRANCH  13  18
BRANCH  14  20
HETATM   20  O   UNK N   1      27.006  28.099  -5.909  0.00  0.00    -0.390 OA
HETATM   21  H   UNK N   1      27.949  28.278  -6.041  0.00  0.00     0.210 HD
ENDBRANCH  14  20
BRANCH  15  22
HETATM   22  C   UNK N   1      26.374  28.999  -3.237  0.00  0.00     0.198 C 
BRANCH  22  23
HETATM   23  O   UNK N   1      25.905  30.067  -4.006  0.00  0.00    -0.398 OA
HETATM   24  H   UNK N   1      25.719  30.926  -3.595  0.00  0.00     0.209 HD
ENDBRANCH  22  23
ENDBRANCH  15  22
BRANCH  17  25
HETATM   25  O   UNK N   1      27.030  24.399  -3.227  0.00  0.00    -0.318 OA
BRANCH  25  26
HETATM   26  C   UNK N   1      28.336  24.042  -3.320  0.00  0.00     0.072 A 
HETATM   27  C   UNK N   1      28.812  23.091  -2.419  0.00  0.00     0.037 A 
HETATM   28  C   UNK N   1      30.107  22.597  -2.530  0.00  0.00     0.012 A 
HETATM   29  C   UNK N   1      30.972  23.065  -3.529  0.00  0.00    -0.026 A 
HETATM   30  C   UNK N   1      30.522  24.088  -4.382  0.00  0.00     0.012 A 
HETATM   31  C   UNK N   1      29.209  24.566  -4.286  0.00  0.00     0.037 A 
BRANCH  29  32
HETATM   32  C   UNK N   1      32.356  22.471  -3.749  0.00  0.00     0.207 C 
BRANCH  32  33
HETATM   33  C   UNK N   1      32.484  20.956  -3.700  0.00  0.00     0.167 C 
HETATM   34  O   UNK N   1      31.862  20.229  -4.460  0.00  0.00    -0.648 OA
BRANCH  33  35
HETATM   35  O   UNK N   1      33.339  20.398  -2.823  0.00  0.00    -0.775 OA
HETATM   36  H   UNK N   1      33.450  19.469  -2.788  0.00  0.00     0.167 HD
ENDBRANCH  33  35
ENDBRANCH  32  33
BRANCH  32  37
HETATM   37  N   UNK N   1      32.839  22.902  -5.053  0.00  0.00    -0.414 N 
HETATM   38  H   UNK N   1      33.409  23.738  -5.173  0.00  0.00     0.151 HD
HETATM   39  H   UNK N   1      32.598  22.348  -5.875  0.00  0.00     0.151 HD
ENDBRANCH  32  37
ENDBRANCH  29  32
ENDBRANCH  25  26
ENDBRANCH  17  25
ENDBRANCH  11  12
ENDBRANCH   5  11
BRANCH   2  40
HETATM   40  O   UNK N   1      27.441  22.997  -9.557  0.00  0.00    -0.390 OA
HETATM   41  H   UNK N   1      27.144  23.885  -9.807  0.00  0.00     0.210 HD
ENDBRANCH   2  40
BRANCH   1  42
HETATM   42  C   UNK N   1      29.513  22.454  -7.561  0.00  0.00     0.198 C 
BRANCH  42  43
HETATM   43  O   UNK N   1      30.429  21.715  -6.810  0.00  0.00    -0.398 OA
HETATM   44  H   UNK N   1      30.946  21.560  -6.004  0.00  0.00     0.209 HD
ENDBRANCH  42  43
ENDBRANCH   1  42
TORSDOF 16
ENDMDL
MODEL 5
REMARK VINA RESULT:      -6.3      7.957     10.443
REMARK  16 active torsions:
REMARK  status: ('A' for Active; 'I' for Inactive)
REMARK    1  A    between atoms: C_9  and  C_5 
REMARK    2  A    between atoms: O_22  and  C_5 
REMARK    3  A    between atoms: C_10  and  C_6 
REMARK    4  A    between atoms: O_23  and  C_6 
REMARK    5  A    between atoms: C_11  and  C_7 
REMARK    6  A    between atoms: O_31  and  C_8 
REMARK    7  A    between atoms: C_18  and  C_11 
REMARK    8  A    between atoms: C_11  and  N_21 
REMARK    9  A    between atoms: C_12  and  O_24 
REMARK   10  A    between atoms: C_13  and  O_25 
REMARK   11  A    between atoms: C_14  and  O_26 
REMARK   12  A    between atoms: C_15  and  O_27 
REMARK   13  A    between atoms: C_17  and  O_34 
REMARK   14  A    between atoms: O_30  and  C_18 
REMARK   15  A    between atoms: C_19  and  O_34 
REMARK   16  A    between atoms: C_20  and  O_31 
ROOT
HETATM    1  C   UNK N   1      34.522  15.152  10.879  0.00  0.00     0.179 C 
HETATM    2  C   UNK N   1      35.702  15.669  11.764  0.00  0.00     0.180 C 
HETATM    3  C   UNK N   1      35.933  14.593  12.818  0.00  0.00     0.183 C 
HETATM    4  C   UNK N   1      36.370  13.273  12.137  0.00  0.00     0.204 C 
HETATM    5  C   UNK N   1      35.794  13.149  10.697  0.00  0.00     0.292 C 
HETATM    6  O   UNK N   1      37.764  13.188  12.055  0.00  0.00    -0.388 OA
HETATM    7  O   UNK N   1      34.505  13.740  10.619  0.00  0.00    -0.348 OA
HETATM    8  H   UNK N   1      38.726  13.213  11.940  0.00  0.00     0.210 HD
ENDROOT
BRANCH   3   9
HETATM    9  O   UNK N   1      36.860  14.998  13.783  0.00  0.00    -0.390 OA
HETATM   10  H   UNK N   1      37.208  15.883  13.970  0.00  0.00     0.210 HD
ENDBRANCH   3   9
BRANCH   5  11
HETATM   11  O   UNK N   1      35.820  11.772  10.320  0.00  0.00    -0.346 OA
BRANCH  11  12
HETATM   12  C   UNK N   1      34.628  11.280   9.713  0.00  0.00     0.211 C 
HETATM   13  C   UNK N   1      34.929  10.557   8.374  0.00  0.00     0.183 C 
HETATM   14  C   UNK N   1      33.657   9.884   7.837  0.00  0.00     0.180 C 
HETATM   15  C   UNK N   1      33.104   8.949   8.925  0.00  0.00     0.179 C 
HETATM   16  O   UNK N   1      32.796   9.696  10.091  0.00  0.00    -0.348 OA
HETATM   17  C   UNK N   1      33.981  10.224  10.664  0.00  0.00     0.298 C 
BRANCH  13  18
HETATM   18  O   UNK N   1      35.419  11.439   7.412  0.00  0.00    -0.390 OA
HETATM   19  H   UNK N   1      35.345  11.224   6.469  0.00  0.00     0.210 HD
ENDBRANCH  13  18
BRANCH  14  20
HETATM   20  O   UNK N   1      32.703  10.855   7.511  0.00  0.00    -0.390 OA
HETATM   21  H   UNK N   1      32.216  11.575   7.081  0.00  0.00     0.210 HD
ENDBRANCH  14  20
BRANCH  15  22
HETATM   22  C   UNK N   1      31.845   8.252   8.426  0.00  0.00     0.198 C 
BRANCH  22  23
HETATM   23  O   UNK N   1      30.744   9.103   8.547  0.00  0.00    -0.398 OA
HETATM   24  H   UNK N   1      29.951   8.818   9.027  0.00  0.00     0.209 HD
ENDBRANCH  22  23
ENDBRANCH  15  22
BRANCH  17  25
HETATM   25  O   UNK N   1      33.695  10.630  11.965  0.00  0.00    -0.318 OA
BRANCH  25  26
HETATM   26  C   UNK N   1      34.247  10.283  13.156  0.00  0.00     0.072 A 
HETATM   27  C   UNK N   1      33.739  10.888  14.304  0.00  0.00     0.037 A 
HETATM   28  C   UNK N   1      34.180  10.497  15.564  0.00  0.00     0.012 A 
HETATM   29  C   UNK N   1      35.164   9.509  15.706  0.00  0.00    -0.026 A 
HETATM   30  C   UNK N   1      35.740   8.962  14.546  0.00  0.00     0.012 A 
HETATM   31  C   UNK N   1      35.278   9.338  13.279  0.00  0.00     0.037 A 
BRANCH  29  32
HETATM   32  C   UNK N   1      35.592   8.978  17.068  0.00  0.00     0.207 C 
BRANCH  32  33
HETATM   33  C   UNK N   1      34.842   9.493  18.287  0.00  0.00     0.167 C 
HETATM   34  O   UNK N   1      35.172  10.517  18.865  0.00  0.00    -0.648 OA
BRANCH  33  35
HETATM   35  O   UNK N   1      33.757   8.824  18.719  0.00  0.00    -0.775 OA
HETATM   36  H   UNK N   1      33.429   8.954  19.587  0.00  0.00     0.167 HD
ENDBRANCH  33  35
ENDBRANCH  32  33
BRANCH  32  37
HETATM   37  N   UNK N   1      35.456   7.529  17.059  0.00  0.00    -0.414 N 
HETATM   38  H   UNK N   1      34.652   7.060  16.643  0.00  0.00     0.151 HD
HETATM   39  H   UNK N   1      36.191   6.963  17.483  0.00  0.00     0.151 HD
ENDBRANCH  32  37
ENDBRANCH  29  32
ENDBRANCH  25  26
ENDBRANCH  17  25
ENDBRANCH  11  12
ENDBRANCH   5  11
BRANCH   2  40
HETATM   40  O   UNK N   1      36.877  15.875  11.030  0.00  0.00    -0.390 OA
HETATM   41  H   UNK N   1      37.837  15.882  10.894  0.00  0.00     0.210 HD
ENDBRANCH   2  40
BRANCH   1  42
HETATM   42  C   UNK N   1      34.321  15.975   9.605  0.00  0.00     0.198 C 
BRANCH  42  43
HETATM   43  O   UNK N   1      34.489  17.340   9.843  0.00  0.00    -0.398 OA
HETATM   44  H   UNK N   1      34.958  18.085  10.249  0.00  0.00     0.209 HD
ENDBRANCH  42  43
ENDBRANCH   1  42
TORSDOF 16
ENDMDL
MODEL 6
REMARK VINA RESULT:      -6.3      6.002      8.662
REMARK  16 active torsions:
REMARK  status: ('A' for Active; 'I' for Inactive)
REMARK    1  A    between atoms: C_9  and  C_5 
REMARK    2  A    between atoms: O_22  and  C_5 
REMARK    3  A    between atoms: C_10  and  C_6 
REMARK    4  A    between atoms: O_23  and  C_6 
REMARK    5  A    between atoms: C_11  and  C_7 
REMARK    6  A    between atoms: O_31  and  C_8 
REMARK    7  A    between atoms: C_18  and  C_11 
REMARK    8  A    between atoms: C_11  and  N_21 
REMARK    9  A    between atoms: C_12  and  O_24 
REMARK   10  A    between atoms: C_13  and  O_25 
REMARK   11  A    between atoms: C_14  and  O_26 
REMARK   12  A    between atoms: C_15  and  O_27 
REMARK   13  A    between atoms: C_17  and  O_34 
REMARK   14  A    between atoms: O_30  and  C_18 
REMARK   15  A    between atoms: C_19  and  O_34 
REMARK   16  A    between atoms: C_20  and  O_31 
ROOT
HETATM    1  C   UNK N   1      21.182  18.405   3.017  0.00  0.00     0.179 C 
HETATM    2  C   UNK N   1      19.876  18.235   2.175  0.00  0.00     0.180 C 
HETATM    3  C   UNK N   1      20.089  16.991   1.322  0.00  0.00     0.183 C 
HETATM    4  C   UNK N   1      20.254  15.749   2.233  0.00  0.00     0.204 C 
HETATM    5  C   UNK N   1      20.859  16.124   3.616  0.00  0.00     0.292 C 
HETATM    6  O   UNK N   1      19.023  15.123   2.454  0.00  0.00    -0.388 OA
HETATM    7  O   UNK N   1      21.788  17.190   3.485  0.00  0.00    -0.348 OA
HETATM    8  H   UNK N   1      18.139  14.776   2.650  0.00  0.00     0.210 HD
ENDROOT
BRANCH   3   9
HETATM    9  O   UNK N   1      19.059  16.809   0.396  0.00  0.00    -0.390 OA
HETATM   10  H   UNK N   1      18.439  17.458   0.029  0.00  0.00     0.210 HD
ENDBRANCH   3   9
BRANCH   5  11
HETATM   11  O   UNK N   1      21.414  14.944   4.198  0.00  0.00    -0.346 OA
BRANCH  11  12
HETATM   12  C   UNK N   1      21.685  15.018   5.595  0.00  0.00     0.211 C 
HETATM   13  C   UNK N   1      20.507  14.455   6.433  0.00  0.00     0.183 C 
HETATM   14  C   UNK N   1      20.900  14.381   7.916  0.00  0.00     0.180 C 
HETATM   15  C   UNK N   1      22.188  13.551   8.039  0.00  0.00     0.179 C 
HETATM   16  O   UNK N   1      23.230  14.167   7.298  0.00  0.00    -0.348 OA
HETATM   17  C   UNK N   1      22.932  14.134   5.912  0.00  0.00     0.298 C 
BRANCH  13  18
HETATM   18  O   UNK N   1      19.362  15.238   6.303  0.00  0.00    -0.390 OA
HETATM   19  H   UNK N   1      18.896  15.287   5.454  0.00  0.00     0.210 HD
ENDBRANCH  13  18
BRANCH  14  20
HETATM   20  O   UNK N   1      21.110  15.670   8.421  0.00  0.00    -0.390 OA
HETATM   21  H   UNK N   1      21.319  16.423   8.994  0.00  0.00     0.210 HD
ENDBRANCH  14  20
BRANCH  15  22
HETATM   22  C   UNK N   1      22.605  13.445   9.500  0.00  0.00     0.198 C 
BRANCH  22  23
HETATM   23  O   UNK N   1      21.480  13.483  10.326  0.00  0.00    -0.398 OA
HETATM   24  H   UNK N   1      20.674  13.942  10.041  0.00  0.00     0.209 HD
ENDBRANCH  22  23
ENDBRANCH  15  22
BRANCH  17  25
HETATM   25  O   UNK N   1      24.102  14.406   5.206  0.00  0.00    -0.318 OA
BRANCH  25  26
HETATM   26  C   UNK N   1      25.063  15.347   5.390  0.00  0.00     0.072 A 
HETATM   27  C   UNK N   1      24.966  16.523   4.647  0.00  0.00     0.037 A 
HETATM   28  C   UNK N   1      25.850  17.573   4.868  0.00  0.00     0.012 A 
HETATM   29  C   UNK N   1      26.875  17.463   5.818  0.00  0.00    -0.026 A 
HETATM   30  C   UNK N   1      27.027  16.245   6.503  0.00  0.00     0.012 A 
HETATM   31  C   UNK N   1      26.121  15.197   6.299  0.00  0.00     0.037 A 
BRANCH  29  32
HETATM   32  C   UNK N   1      27.791  18.629   6.163  0.00  0.00     0.207 C 
BRANCH  32  33
HETATM   33  C   UNK N   1      27.702  19.872   5.291  0.00  0.00     0.167 C 
HETATM   34  O   UNK N   1      27.055  20.853   5.627  0.00  0.00    -0.648 OA
BRANCH  33  35
HETATM   35  O   UNK N   1      28.389  19.912   4.135  0.00  0.00    -0.775 OA
HETATM   36  H   UNK N   1      28.286  20.630   3.541  0.00  0.00     0.167 HD
ENDBRANCH  33  35
ENDBRANCH  32  33
BRANCH  32  37
HETATM   37  N   UNK N   1      27.513  19.041   7.531  0.00  0.00    -0.414 N 
HETATM   38  H   UNK N   1      28.243  19.381   8.156  0.00  0.00     0.151 HD
HETATM   39  H   UNK N   1      26.555  18.988   7.876  0.00  0.00     0.151 HD
ENDBRANCH  32  37
ENDBRANCH  29  32
ENDBRANCH  25  26
ENDBRANCH  17  25
ENDBRANCH  11  12
ENDBRANCH   5  11
BRANCH   2  40
HETATM   40  O   UNK N   1      18.737  18.073   2.974  0.00  0.00    -0.390 OA
HETATM   41  H   UNK N   1      17.896  17.664   3.231  0.00  0.00     0.210 HD
ENDBRANCH   2  40
BRANCH   1  42
HETATM   42  C   UNK N   1      21.050  19.448   4.128  0.00  0.00     0.198 C 
BRANCH  42  43
HETATM   43  O   UNK N   1      20.294  20.547   3.714  0.00  0.00    -0.398 OA
HETATM   44  H   UNK N   1      20.034  21.204   3.050  0.00  0.00     0.209 HD
ENDBRANCH  42  43
ENDBRANCH   1  42
TORSDOF 16
ENDMDL
MODEL 7
REMARK VINA RESULT:      -6.1      7.998     10.849
REMARK  16 active torsions:
REMARK  status: ('A' for Active; 'I' for Inactive)
REMARK    1  A    between atoms: C_9  and  C_5 
REMARK    2  A    between atoms: O_22  and  C_5 
REMARK    3  A    between atoms: C_10  and  C_6 
REMARK    4  A    between atoms: O_23  and  C_6 
REMARK    5  A    between atoms: C_11  and  C_7 
REMARK    6  A    between atoms: O_31  and  C_8 
REMARK    7  A    between atoms: C_18  and  C_11 
REMARK    8  A    between atoms: C_11  and  N_21 
REMARK    9  A    between atoms: C_12  and  O_24 
REMARK   10  A    between atoms: C_13  and  O_25 
REMARK   11  A    between atoms: C_14  and  O_26 
REMARK   12  A    between atoms: C_15  and  O_27 
REMARK   13  A    between atoms: C_17  and  O_34 
REMARK   14  A    between atoms: O_30  and  C_18 
REMARK   15  A    between atoms: C_19  and  O_34 
REMARK   16  A    between atoms: C_20  and  O_31 
ROOT
HETATM    1  C   UNK N   1      22.201  14.780   1.187  0.00  0.00     0.179 C 
HETATM    2  C   UNK N   1      22.302  13.376   0.506  0.00  0.00     0.180 C 
HETATM    3  C   UNK N   1      23.730  12.901   0.741  0.00  0.00     0.183 C 
HETATM    4  C   UNK N   1      23.986  12.732   2.259  0.00  0.00     0.204 C 
HETATM    5  C   UNK N   1      23.106  13.697   3.104  0.00  0.00     0.292 C 
HETATM    6  O   UNK N   1      23.712  11.423   2.671  0.00  0.00    -0.388 OA
HETATM    7  O   UNK N   1      22.916  14.929   2.423  0.00  0.00    -0.348 OA
HETATM    8  H   UNK N   1      23.426  10.533   2.926  0.00  0.00     0.210 HD
ENDROOT
BRANCH   3   9
HETATM    9  O   UNK N   1      24.010  11.723   0.044  0.00  0.00    -0.390 OA
HETATM   10  H   UNK N   1      23.467  10.927  -0.065  0.00  0.00     0.210 HD
ENDBRANCH   3   9
BRANCH   5  11
HETATM   11  O   UNK N   1      23.703  13.837   4.394  0.00  0.00    -0.346 OA
BRANCH  11  12
HETATM   12  C   UNK N   1      22.797  13.827   5.493  0.00  0.00     0.211 C 
HETATM   13  C   UNK N   1      22.849  12.479   6.259  0.00  0.00     0.183 C 
HETATM   14  C   UNK N   1      22.001  12.563   7.538  0.00  0.00     0.180 C 
HETATM   15  C   UNK N   1      22.493  13.757   8.371  0.00  0.00     0.179 C 
HETATM   16  O   UNK N   1      22.353  14.955   7.624  0.00  0.00    -0.348 OA
HETATM   17  C   UNK N   1      23.222  14.940   6.503  0.00  0.00     0.298 C 
BRANCH  13  18
HETATM   18  O   UNK N   1      22.386  11.423   5.475  0.00  0.00    -0.390 OA
HETATM   19  H   UNK N   1      22.130  11.575   4.551  0.00  0.00     0.210 HD
ENDBRANCH  13  18
BRANCH  14  20
HETATM   20  O   UNK N   1      20.651  12.733   7.207  0.00  0.00    -0.390 OA
HETATM   21  H   UNK N   1      19.720  13.001   7.204  0.00  0.00     0.210 HD
ENDBRANCH  14  20
BRANCH  15  22
HETATM   22  C   UNK N   1      21.683  13.869   9.656  0.00  0.00     0.198 C 
BRANCH  22  23
HETATM   23  O   UNK N   1      20.511  14.593   9.425  0.00  0.00    -0.398 OA
HETATM   24  H   UNK N   1      19.735  14.163   9.031  0.00  0.00     0.209 HD
ENDBRANCH  22  23
ENDBRANCH  15  22
BRANCH  17  25
HETATM   25  O   UNK N   1      23.327  16.239   6.012  0.00  0.00    -0.318 OA
BRANCH  25  26
HETATM   26  C   UNK N   1      22.465  16.998   5.290  0.00  0.00     0.072 A 
HETATM   27  C   UNK N   1      22.951  18.185   4.744  0.00  0.00     0.037 A 
HETATM   28  C   UNK N   1      22.155  18.953   3.900  0.00  0.00     0.012 A 
HETATM   29  C   UNK N   1      20.840  18.569   3.605  0.00  0.00    -0.026 A 
HETATM   30  C   UNK N   1      20.321  17.420   4.226  0.00  0.00     0.012 A 
HETATM   31  C   UNK N   1      21.130  16.633   5.055  0.00  0.00     0.037 A 
BRANCH  29  32
HETATM   32  C   UNK N   1      19.978  19.324   2.603  0.00  0.00     0.207 C 
BRANCH  32  33
HETATM   33  C   UNK N   1      20.676  19.929   1.394  0.00  0.00     0.167 C 
HETATM   34  O   UNK N   1      21.371  20.930   1.482  0.00  0.00    -0.648 OA
BRANCH  33  35
HETATM   35  O   UNK N   1      20.561  19.321   0.199  0.00  0.00    -0.775 OA
HETATM   36  H   UNK N   1      21.300  18.905  -0.199  0.00  0.00     0.167 HD
ENDBRANCH  33  35
ENDBRANCH  32  33
BRANCH  32  37
HETATM   37  N   UNK N   1      18.957  18.417   2.100  0.00  0.00    -0.414 N 
HETATM   38  H   UNK N   1      19.128  17.420   1.976  0.00  0.00     0.151 HD
HETATM   39  H   UNK N   1      18.038  18.792   1.865  0.00  0.00     0.151 HD
ENDBRANCH  32  37
ENDBRANCH  29  32
ENDBRANCH  25  26
ENDBRANCH  17  25
ENDBRANCH  11  12
ENDBRANCH   5  11
BRANCH   2  40
HETATM   40  O   UNK N   1      21.399  12.451   1.043  0.00  0.00    -0.390 OA
HETATM   41  H   UNK N   1      21.116  11.574   1.345  0.00  0.00     0.210 HD
ENDBRANCH   2  40
BRANCH   1  42
HETATM   42  C   UNK N   1      20.766  15.299   1.286  0.00  0.00     0.198 C 
BRANCH  42  43
HETATM   43  O   UNK N   1      20.556  16.393   0.444  0.00  0.00    -0.398 OA
HETATM   44  H   UNK N   1      20.497  17.347   0.281  0.00  0.00     0.209 HD
ENDBRANCH  42  43
ENDBRANCH   1  42
TORSDOF 16
ENDMDL
MODEL 8
REMARK VINA RESULT:      -6.1      5.868      7.828
REMARK  16 active torsions:
REMARK  status: ('A' for Active; 'I' for Inactive)
REMARK    1  A    between atoms: C_9  and  C_5 
REMARK    2  A    between atoms: O_22  and  C_5 
REMARK    3  A    between atoms: C_10  and  C_6 
REMARK    4  A    between atoms: O_23  and  C_6 
REMARK    5  A    between atoms: C_11  and  C_7 
REMARK    6  A    between atoms: O_31  and  C_8 
REMARK    7  A    between atoms: C_18  and  C_11 
REMARK    8  A    between atoms: C_11  and  N_21 
REMARK    9  A    between atoms: C_12  and  O_24 
REMARK   10  A    between atoms: C_13  and  O_25 
REMARK   11  A    between atoms: C_14  and  O_26 
REMARK   12  A    between atoms: C_15  and  O_27 
REMARK   13  A    between atoms: C_17  and  O_34 
REMARK   14  A    between atoms: O_30  and  C_18 
REMARK   15  A    between atoms: C_19  and  O_34 
REMARK   16  A    between atoms: C_20  and  O_31 
ROOT
HETATM    1  C   UNK N   1      23.452  12.943   8.253  0.00  0.00     0.179 C 
HETATM    2  C   UNK N   1      22.151  12.373   8.906  0.00  0.00     0.180 C 
HETATM    3  C   UNK N   1      21.509  13.540   9.646  0.00  0.00     0.183 C 
HETATM    4  C   UNK N   1      21.111  14.647   8.639  0.00  0.00     0.204 C 
HETATM    5  C   UNK N   1      22.035  14.648   7.387  0.00  0.00     0.292 C 
HETATM    6  O   UNK N   1      19.793  14.479   8.204  0.00  0.00    -0.388 OA
HETATM    7  O   UNK N   1      23.360  14.281   7.741  0.00  0.00    -0.348 OA
HETATM    8  H   UNK N   1      18.908  14.272   7.865  0.00  0.00     0.210 HD
ENDROOT
BRANCH   3   9
HETATM    9  O   UNK N   1      20.415  13.134  10.414  0.00  0.00    -0.390 OA
HETATM   10  H   UNK N   1      20.315  12.352  10.978  0.00  0.00     0.210 HD
ENDBRANCH   3   9
BRANCH   5  11
HETATM   11  O   UNK N   1      21.939  15.927   6.759  0.00  0.00    -0.346 OA
BRANCH  11  12
HETATM   12  C   UNK N   1      21.414  15.922   5.434  0.00  0.00     0.211 C 
HETATM   13  C   UNK N   1      20.054  16.663   5.359  0.00  0.00     0.183 C 
HETATM   14  C   UNK N   1      19.603  16.799   3.897  0.00  0.00     0.180 C 
HETATM   15  C   UNK N   1      20.722  17.494   3.104  0.00  0.00     0.179 C 
HETATM   16  O   UNK N   1      21.910  16.722   3.170  0.00  0.00    -0.348 OA
HETATM   17  C   UNK N   1      22.402  16.690   4.500  0.00  0.00     0.298 C 
BRANCH  13  18
HETATM   18  O   UNK N   1      19.065  15.998   6.081  0.00  0.00    -0.390 OA
HETATM   19  H   UNK N   1      18.644  15.203   5.718  0.00  0.00     0.210 HD
ENDBRANCH  13  18
BRANCH  14  20
HETATM   20  O   UNK N   1      19.348  15.533   3.356  0.00  0.00    -0.390 OA
HETATM   21  H   UNK N   1      19.197  14.793   2.747  0.00  0.00     0.210 HD
ENDBRANCH  14  20
BRANCH  15  22
HETATM   22  C   UNK N   1      20.308  17.657   1.648  0.00  0.00     0.198 C 
BRANCH  22  23
HETATM   23  O   UNK N   1      18.928  17.849   1.558  0.00  0.00    -0.398 OA
HETATM   24  H   UNK N   1      18.335  17.492   2.238  0.00  0.00     0.209 HD
ENDBRANCH  22  23
ENDBRANCH  15  22
BRANCH  17  25
HETATM   25  O   UNK N   1      23.723  16.247   4.468  0.00  0.00    -0.318 OA
BRANCH  25  26
HETATM   26  C   UNK N   1      24.848  16.736   5.047  0.00  0.00     0.072 A 
HETATM   27  C   UNK N   1      25.549  15.895   5.910  0.00  0.00     0.037 A 
HETATM   28  C   UNK N   1      26.769  16.291   6.448  0.00  0.00     0.012 A 
HETATM   29  C   UNK N   1      27.306  17.554   6.160  0.00  0.00    -0.026 A 
HETATM   30  C   UNK N   1      26.557  18.436   5.362  0.00  0.00     0.012 A 
HETATM   31  C   UNK N   1      25.341  18.027   4.800  0.00  0.00     0.037 A 
BRANCH  29  32
HETATM   32  C   UNK N   1      28.686  17.979   6.641  0.00  0.00     0.207 C 
BRANCH  32  33
HETATM   33  C   UNK N   1      28.806  18.475   8.074  0.00  0.00     0.167 C 
HETATM   34  O   UNK N   1      29.885  18.555   8.642  0.00  0.00    -0.648 OA
BRANCH  33  35
HETATM   35  O   UNK N   1      27.698  18.877   8.723  0.00  0.00    -0.775 OA
HETATM   36  H   UNK N   1      27.609  18.743   9.646  0.00  0.00     0.167 HD
ENDBRANCH  33  35
ENDBRANCH  32  33
BRANCH  32  37
HETATM   37  N   UNK N   1      29.589  16.846   6.500  0.00  0.00    -0.414 N 
HETATM   38  H   UNK N   1      30.565  16.888   6.792  0.00  0.00     0.151 HD
HETATM   39  H   UNK N   1      29.233  15.980   6.096  0.00  0.00     0.151 HD
ENDBRANCH  32  37
ENDBRANCH  29  32
ENDBRANCH  25  26
ENDBRANCH  17  25
ENDBRANCH  11  12
ENDBRANCH   5  11
BRANCH   2  40
HETATM   40  O   UNK N   1      21.254  11.860   7.961  0.00  0.00    -0.390 OA
HETATM   41  H   UNK N   1      20.919  11.195   7.339  0.00  0.00     0.210 HD
ENDBRANCH   2  40
BRANCH   1  42
HETATM   42  C   UNK N   1      24.092  11.983   7.249  0.00  0.00     0.198 C 
BRANCH  42  43
HETATM   43  O   UNK N   1      23.860  10.650   7.593  0.00  0.00    -0.398 OA
HETATM   44  H   UNK N   1      23.760   9.942   8.248  0.00  0.00     0.209 HD
ENDBRANCH  42  43
ENDBRANCH   1  42
TORSDOF 16
ENDMDL
MODEL 9
REMARK VINA RESULT:      -6.1      7.232      9.762
REMARK  16 active torsions:
REMARK  status: ('A' for Active; 'I' for Inactive)
REMARK    1  A    between atoms: C_9  and  C_5 
REMARK    2  A    between atoms: O_22  and  C_5 
REMARK    3  A    between atoms: C_10  and  C_6 
REMARK    4  A    between atoms: O_23  and  C_6 
REMARK    5  A    between atoms: C_11  and  C_7 
REMARK    6  A    between atoms: O_31  and  C_8 
REMARK    7  A    between atoms: C_18  and  C_11 
REMARK    8  A    between atoms: C_11  and  N_21 
REMARK    9  A    between atoms: C_12  and  O_24 
REMARK   10  A    between atoms: C_13  and  O_25 
REMARK   11  A    between atoms: C_14  and  O_26 
REMARK   12  A    between atoms: C_15  and  O_27 
REMARK   13  A    between atoms: C_17  and  O_34 
REMARK   14  A    between atoms: O_30  and  C_18 
REMARK   15  A    between atoms: C_19  and  O_34 
REMARK   16  A    between atoms: C_20  and  O_31 
ROOT
HETATM    1  C   UNK N   1      22.747  12.911   9.630  0.00  0.00     0.179 C 
HETATM    2  C   UNK N   1      21.472  13.784   9.865  0.00  0.00     0.180 C 
HETATM    3  C   UNK N   1      21.461  14.816   8.744  0.00  0.00     0.183 C 
HETATM    4  C   UNK N   1      21.326  14.104   7.375  0.00  0.00     0.204 C 
HETATM    5  C   UNK N   1      21.934  12.673   7.406  0.00  0.00     0.292 C 
HETATM    6  O   UNK N   1      19.984  13.996   6.996  0.00  0.00    -0.388 OA
HETATM    7  O   UNK N   1      23.068  12.628   8.260  0.00  0.00    -0.348 OA
HETATM    8  H   UNK N   1      19.040  13.865   6.818  0.00  0.00     0.210 HD
ENDROOT
BRANCH   3   9
HETATM    9  O   UNK N   1      20.457  15.771   8.922  0.00  0.00    -0.390 OA
HETATM   10  H   UNK N   1      20.417  16.516   9.541  0.00  0.00     0.210 HD
ENDBRANCH   3   9
BRANCH   5  11
HETATM   11  O   UNK N   1      22.208  12.272   6.063  0.00  0.00    -0.346 OA
BRANCH  11  12
HETATM   12  C   UNK N   1      23.243  12.997   5.406  0.00  0.00     0.211 C 
HETATM   13  C   UNK N   1      24.459  12.089   5.085  0.00  0.00     0.183 C 
HETATM   14  C   UNK N   1      25.476  12.849   4.221  0.00  0.00     0.180 C 
HETATM   15  C   UNK N   1      24.757  13.372   2.967  0.00  0.00     0.179 C 
HETATM   16  O   UNK N   1      23.703  14.243   3.344  0.00  0.00    -0.348 OA
HETATM   17  C   UNK N   1      22.697  13.525   4.041  0.00  0.00     0.298 C 
BRANCH  13  18
HETATM   18  O   UNK N   1      25.089  11.644   6.246  0.00  0.00    -0.390 OA
HETATM   19  H   UNK N   1      24.564  11.333   7.000  0.00  0.00     0.210 HD
ENDBRANCH  13  18
BRANCH  14  20
HETATM   20  O   UNK N   1      26.014  13.919   4.946  0.00  0.00    -0.390 OA
HETATM   21  H   UNK N   1      26.581  14.641   5.259  0.00  0.00     0.210 HD
ENDBRANCH  14  20
BRANCH  15  22
HETATM   22  C   UNK N   1      25.737  14.124   2.077  0.00  0.00     0.198 C 
BRANCH  22  23
HETATM   23  O   UNK N   1      25.736  15.483   2.401  0.00  0.00    -0.398 OA
HETATM   24  H   UNK N   1      25.213  16.113   1.881  0.00  0.00     0.209 HD
ENDBRANCH  22  23
ENDBRANCH  15  22
BRANCH  17  25
HETATM   25  O   UNK N   1      21.545  14.306   4.075  0.00  0.00    -0.318 OA
BRANCH  25  26
HETATM   26  C   UNK N   1      21.344  15.622   3.809  0.00  0.00     0.072 A 
HETATM   27  C   UNK N   1      20.830  15.956   2.556  0.00  0.00     0.037 A 
HETATM   28  C   UNK N   1      20.494  17.272   2.258  0.00  0.00     0.012 A 
HETATM   29  C   UNK N   1      20.692  18.295   3.196  0.00  0.00    -0.026 A 
HETATM   30  C   UNK N   1      21.292  17.972   4.426  0.00  0.00     0.012 A 
HETATM   31  C   UNK N   1      21.607  16.642   4.735  0.00  0.00     0.037 A 
BRANCH  29  32
HETATM   32  C   UNK N   1      20.236  19.725   2.946  0.00  0.00     0.207 C 
BRANCH  32  33
HETATM   33  C   UNK N   1      21.151  20.619   2.123  0.00  0.00     0.167 C 
HETATM   34  O   UNK N   1      21.275  20.480   0.916  0.00  0.00    -0.648 OA
BRANCH  33  35
HETATM   35  O   UNK N   1      21.813  21.619   2.734  0.00  0.00    -0.775 OA
HETATM   36  H   UNK N   1      21.619  22.514   2.534  0.00  0.00     0.167 HD
ENDBRANCH  33  35
ENDBRANCH  32  33
BRANCH  32  37
HETATM   37  N   UNK N   1      18.949  19.685   2.267  0.00  0.00    -0.414 N 
HETATM   38  H   UNK N   1      18.134  19.225   2.672  0.00  0.00     0.151 HD
HETATM   39  H   UNK N   1      18.860  20.131   1.354  0.00  0.00     0.151 HD
ENDBRANCH  32  37
ENDBRANCH  29  32
ENDBRANCH  25  26
ENDBRANCH  17  25
ENDBRANCH  11  12
ENDBRANCH   5  11
BRANCH   2  40
HETATM   40  O   UNK N   1      20.290  13.033   9.831  0.00  0.00    -0.390 OA
HETATM   41  H   UNK N   1      19.739  12.276   9.582  0.00  0.00     0.210 HD
ENDBRANCH   2  40
BRANCH   1  42
HETATM   42  C   UNK N   1      22.785  11.655  10.503  0.00  0.00     0.198 C 
BRANCH  42  43
HETATM   43  O   UNK N   1      22.116  11.850  11.713  0.00  0.00    -0.398 OA
HETATM   44  H   UNK N   1      21.686  12.419  12.370  0.00  0.00     0.209 HD
ENDBRANCH  42  43
ENDBRANCH   1  42
TORSDOF 16
ENDMDL
