MODEL 1
REMARK VINA RESULT:      -5.1      0.000      0.000
REMARK  5 active torsions:
REMARK  status: ('A' for Active; 'I' for Inactive)
REMARK    1  A    between atoms: C_3  and  C_2 
REMARK    2  A    between atoms: O_7  and  C_2 
REMARK    3  A    between atoms: C_4  and  O_8 
REMARK    4  A    between atoms: C_5  and  O_9 
REMARK    5  A    between atoms: C_6  and  O_10 
ROOT
HETATM    1  C   UNK N   1      20.791  17.735   3.340  0.00  0.00     0.068 C 
HETATM    2  C   UNK N   1      20.838  18.778   4.463  0.00  0.00     0.150 C 
HETATM    3  C   UNK N   1      20.167  18.353   2.091  0.00  0.00     0.154 C 
HETATM    4  C   UNK N   1      20.925  19.640   1.744  0.00  0.00     0.201 C 
HETATM    5  C   UNK N   1      20.983  20.564   2.975  0.00  0.00     0.288 C 
HETATM    6  O   UNK N   1      21.607  19.903   4.061  0.00  0.00    -0.351 OA
ENDROOT
BRANCH   2   7
HETATM    7  C   UNK N   1      21.484  18.139   5.680  0.00  0.00     0.196 C 
BRANCH   7   8
HETATM    8  O   UNK N   1      21.054  18.780   6.845  0.00  0.00    -0.398 OA
HETATM    9  H   UNK N   1      21.402  19.612   7.201  0.00  0.00     0.209 HD
ENDBRANCH   7   8
ENDBRANCH   2   7
BRANCH   3  10
HETATM   10  O   UNK N   1      18.818  18.629   2.332  0.00  0.00    -0.393 OA
HETATM   11  H   UNK N   1      17.918  18.991   2.313  0.00  0.00     0.210 HD
ENDBRANCH   3  10
BRANCH   5  12
HETATM   12  O   UNK N   1      21.730  21.701   2.658  0.00  0.00    -0.369 OA
HETATM   13  H   UNK N   1      22.514  21.636   2.092  0.00  0.00     0.212 HD
ENDBRANCH   5  12
BRANCH   4  14
HETATM   14  O   UNK N   1      20.312  20.288   0.671  0.00  0.00    -0.388 OA
HETATM   15  H   UNK N   1      19.602  19.946   0.106  0.00  0.00     0.210 HD
ENDBRANCH   4  14
TORSDOF 5
ENDMDL
MODEL 2
REMARK VINA RESULT:      -4.7     14.001     15.259
REMARK  5 active torsions:
REMARK  status: ('A' for Active; 'I' for Inactive)
REMARK    1  A    between atoms: C_3  and  C_2 
REMARK    2  A    between atoms: O_7  and  C_2 
REMARK    3  A    between atoms: C_4  and  O_8 
REMARK    4  A    between atoms: C_5  and  O_9 
REMARK    5  A    between atoms: C_6  and  O_10 
ROOT
HETATM    1  C   UNK N   1      34.877  15.320   8.929  0.00  0.00     0.068 C 
HETATM    2  C   UNK N   1      34.849  16.320  10.091  0.00  0.00     0.150 C 
HETATM    3  C   UNK N   1      34.047  15.860   7.767  0.00  0.00     0.154 C 
HETATM    4  C   UNK N   1      34.544  17.268   7.417  0.00  0.00     0.201 C 
HETATM    5  C   UNK N   1      34.557  18.149   8.680  0.00  0.00     0.288 C 
HETATM    6  O   UNK N   1      35.379  17.572   9.678  0.00  0.00    -0.351 OA
ENDROOT
BRANCH   2   7
HETATM    7  C   UNK N   1      35.703  15.764  11.219  0.00  0.00     0.196 C 
BRANCH   7   8
HETATM    8  O   UNK N   1      37.056  15.971  10.944  0.00  0.00    -0.398 OA
HETATM    9  H   UNK N   1      37.802  15.661  11.481  0.00  0.00     0.209 HD
ENDBRANCH   7   8
ENDBRANCH   2   7
BRANCH   3  10
HETATM   10  O   UNK N   1      32.698  15.894   8.134  0.00  0.00    -0.393 OA
HETATM   11  H   UNK N   1      31.785  16.162   8.321  0.00  0.00     0.210 HD
ENDBRANCH   3  10
BRANCH   5  12
HETATM   12  O   UNK N   1      35.070  19.407   8.354  0.00  0.00    -0.369 OA
HETATM   13  H   UNK N   1      35.915  19.708   8.723  0.00  0.00     0.212 HD
ENDBRANCH   5  12
BRANCH   4  14
HETATM   14  O   UNK N   1      33.735  17.835   6.430  0.00  0.00    -0.388 OA
HETATM   15  H   UNK N   1      33.891  18.661   5.947  0.00  0.00     0.210 HD
ENDBRANCH   4  14
TORSDOF 5
ENDMDL
MODEL 3
REMARK VINA RESULT:      -4.7     21.980     22.817
REMARK  5 active torsions:
REMARK  status: ('A' for Active; 'I' for Inactive)
REMARK    1  A    between atoms: C_3  and  C_2 
REMARK    2  A    between atoms: O_7  and  C_2 
REMARK    3  A    between atoms: C_4  and  O_8 
REMARK    4  A    between atoms: C_5  and  O_9 
REMARK    5  A    between atoms: C_6  and  O_10 
ROOT
HETATM    1  C   UNK N   1      43.128  19.990   3.023  0.00  0.00     0.068 C 
HETATM    2  C   UNK N   1      42.350  21.102   2.309  0.00  0.00     0.150 C 
HETATM    3  C   UNK N   1      44.555  20.459   3.299  0.00  0.00     0.154 C 
HETATM    4  C   UNK N   1      44.499  21.794   4.053  0.00  0.00     0.201 C 
HETATM    5  C   UNK N   1      43.616  22.795   3.284  0.00  0.00     0.288 C 
HETATM    6  O   UNK N   1      42.311  22.273   3.112  0.00  0.00    -0.351 OA
ENDROOT
BRANCH   2   7
HETATM    7  C   UNK N   1      40.931  20.612   2.071  0.00  0.00     0.196 C 
BRANCH   7   8
HETATM    8  O   UNK N   1      40.018  21.456   2.709  0.00  0.00    -0.398 OA
HETATM    9  H   UNK N   1      39.233  21.858   2.305  0.00  0.00     0.209 HD
ENDBRANCH   7   8
ENDBRANCH   2   7
BRANCH   3  10
HETATM   10  O   UNK N   1      45.239  20.608   2.089  0.00  0.00    -0.393 OA
HETATM   11  H   UNK N   1      45.917  20.666   1.397  0.00  0.00     0.210 HD
ENDBRANCH   3  10
BRANCH   5  12
HETATM   12  O   UNK N   1      43.528  23.981   4.017  0.00  0.00    -0.369 OA
HETATM   13  H   UNK N   1      43.459  23.962   4.984  0.00  0.00     0.212 HD
ENDBRANCH   5  12
BRANCH   4  14
HETATM   14  O   UNK N   1      45.786  22.305   4.226  0.00  0.00    -0.388 OA
HETATM   15  H   UNK N   1      46.581  22.080   3.717  0.00  0.00     0.210 HD
ENDBRANCH   4  14
TORSDOF 5
ENDMDL
MODEL 4
REMARK VINA RESULT:      -4.6     14.959     16.545
REMARK  5 active torsions:
REMARK  status: ('A' for Active; 'I' for Inactive)
REMARK    1  A    between atoms: C_3  and  C_2 
REMARK    2  A    between atoms: O_7  and  C_2 
REMARK    3  A    between atoms: C_4  and  O_8 
REMARK    4  A    between atoms: C_5  and  O_9 
REMARK    5  A    between atoms: C_6  and  O_10 
ROOT
HETATM    1  C   UNK N   1      34.922  13.942   9.947  0.00  0.00     0.068 C 
HETATM    2  C   UNK N   1      35.930  14.596  10.901  0.00  0.00     0.150 C 
HETATM    3  C   UNK N   1      33.698  14.843   9.798  0.00  0.00     0.154 C 
HETATM    4  C   UNK N   1      34.164  16.244   9.383  0.00  0.00     0.201 C 
HETATM    5  C   UNK N   1      35.237  16.753  10.364  0.00  0.00     0.288 C 
HETATM    6  O   UNK N   1      36.337  15.861  10.399  0.00  0.00    -0.351 OA
ENDROOT
BRANCH   2   7
HETATM    7  C   UNK N   1      37.143  13.687  11.007  0.00  0.00     0.196 C 
BRANCH   7   8
HETATM    8  O   UNK N   1      37.430  13.425  12.349  0.00  0.00    -0.398 OA
HETATM    9  H   UNK N   1      37.723  12.576  12.715  0.00  0.00     0.209 HD
ENDBRANCH   7   8
ENDBRANCH   2   7
BRANCH   3  10
HETATM   10  O   UNK N   1      33.008  14.895  11.012  0.00  0.00    -0.393 OA
HETATM   11  H   UNK N   1      32.760  14.882  11.950  0.00  0.00     0.210 HD
ENDBRANCH   3  10
BRANCH   5  12
HETATM   12  O   UNK N   1      35.692  18.003   9.934  0.00  0.00    -0.369 OA
HETATM   13  H   UNK N   1      35.566  18.791  10.484  0.00  0.00     0.212 HD
ENDBRANCH   5  12
BRANCH   4  14
HETATM   14  O   UNK N   1      33.078  17.122   9.344  0.00  0.00    -0.388 OA
HETATM   15  H   UNK N   1      33.106  18.091   9.372  0.00  0.00     0.210 HD
ENDBRANCH   4  14
TORSDOF 5
ENDMDL
MODEL 5
REMARK VINA RESULT:      -4.6      1.545      3.072
REMARK  5 active torsions:
REMARK  status: ('A' for Active; 'I' for Inactive)
REMARK    1  A    between atoms: C_3  and  C_2 
REMARK    2  A    between atoms: O_7  and  C_2 
REMARK    3  A    between atoms: C_4  and  O_8 
REMARK    4  A    between atoms: C_5  and  O_9 
REMARK    5  A    between atoms: C_6  and  O_10 
ROOT
HETATM    1  C   UNK N   1      20.398  18.246   3.530  0.00  0.00     0.068 C 
HETATM    2  C   UNK N   1      20.733  17.669   2.149  0.00  0.00     0.150 C 
HETATM    3  C   UNK N   1      21.082  19.601   3.699  0.00  0.00     0.154 C 
HETATM    4  C   UNK N   1      20.701  20.498   2.515  0.00  0.00     0.201 C 
HETATM    5  C   UNK N   1      20.999  19.773   1.189  0.00  0.00     0.288 C 
HETATM    6  O   UNK N   1      20.291  18.548   1.125  0.00  0.00    -0.351 OA
ENDROOT
BRANCH   2   7
HETATM    7  C   UNK N   1      20.020  16.335   2.005  0.00  0.00     0.196 C 
BRANCH   7   8
HETATM    8  O   UNK N   1      19.405  15.987   3.210  0.00  0.00    -0.398 OA
HETATM    9  H   UNK N   1      19.389  16.521   4.019  0.00  0.00     0.209 HD
ENDBRANCH   7   8
ENDBRANCH   2   7
BRANCH   3  10
HETATM   10  O   UNK N   1      22.468  19.421   3.751  0.00  0.00    -0.393 OA
HETATM   11  H   UNK N   1      23.362  19.050   3.809  0.00  0.00     0.210 HD
ENDBRANCH   3  10
BRANCH   5  12
HETATM   12  O   UNK N   1      20.588  20.581   0.125  0.00  0.00    -0.369 OA
HETATM   13  H   UNK N   1      19.805  21.146   0.207  0.00  0.00     0.212 HD
ENDBRANCH   5  12
BRANCH   4  14
HETATM   14  O   UNK N   1      21.396  21.707   2.582  0.00  0.00    -0.388 OA
HETATM   15  H   UNK N   1      22.357  21.832   2.605  0.00  0.00     0.210 HD
ENDBRANCH   4  14
TORSDOF 5
ENDMDL
MODEL 6
REMARK VINA RESULT:      -4.4     13.041     14.569
REMARK  5 active torsions:
REMARK  status: ('A' for Active; 'I' for Inactive)
REMARK    1  A    between atoms: C_3  and  C_2 
REMARK    2  A    between atoms: O_7  and  C_2 
REMARK    3  A    between atoms: C_4  and  O_8 
REMARK    4  A    between atoms: C_5  and  O_9 
REMARK    5  A    between atoms: C_6  and  O_10 
ROOT
HETATM    1  C   UNK N   1      34.574  15.963   9.480  0.00  0.00     0.068 C 
HETATM    2  C   UNK N   1      33.584  16.843   8.707  0.00  0.00     0.150 C 
HETATM    3  C   UNK N   1      33.858  14.719   9.999  0.00  0.00     0.154 C 
HETATM    4  C   UNK N   1      33.159  14.024   8.824  0.00  0.00     0.201 C 
HETATM    5  C   UNK N   1      32.266  15.031   8.074  0.00  0.00     0.288 C 
HETATM    6  O   UNK N   1      33.036  16.125   7.610  0.00  0.00    -0.351 OA
ENDROOT
BRANCH   2   7
HETATM    7  C   UNK N   1      34.333  18.058   8.185  0.00  0.00     0.196 C 
BRANCH   7   8
HETATM    8  O   UNK N   1      34.479  17.973   6.798  0.00  0.00    -0.398 OA
HETATM    9  H   UNK N   1      33.791  18.154   6.139  0.00  0.00     0.209 HD
ENDBRANCH   7   8
ENDBRANCH   2   7
BRANCH   3  10
HETATM   10  O   UNK N   1      32.926  15.090  10.973  0.00  0.00    -0.393 OA
HETATM   11  H   UNK N   1      32.126  15.198  11.511  0.00  0.00     0.210 HD
ENDBRANCH   3  10
BRANCH   5  12
HETATM   12  O   UNK N   1      31.688  14.395   6.972  0.00  0.00    -0.369 OA
HETATM   13  H   UNK N   1      32.181  14.296   6.143  0.00  0.00     0.212 HD
ENDBRANCH   5  12
BRANCH   4  14
HETATM   14  O   UNK N   1      32.405  12.942   9.281  0.00  0.00    -0.388 OA
HETATM   15  H   UNK N   1      32.340  12.061   8.882  0.00  0.00     0.210 HD
ENDBRANCH   4  14
TORSDOF 5
ENDMDL
MODEL 7
REMARK VINA RESULT:      -4.4     15.112     17.163
REMARK  5 active torsions:
REMARK  status: ('A' for Active; 'I' for Inactive)
REMARK    1  A    between atoms: C_3  and  C_2 
REMARK    2  A    between atoms: O_7  and  C_2 
REMARK    3  A    between atoms: C_4  and  O_8 
REMARK    4  A    between atoms: C_5  and  O_9 
REMARK    5  A    between atoms: C_6  and  O_10 
ROOT
HETATM    1  C   UNK N   1      35.606  15.122   9.221  0.00  0.00     0.068 C 
HETATM    2  C   UNK N   1      34.332  15.514   9.981  0.00  0.00     0.150 C 
HETATM    3  C   UNK N   1      36.739  14.875  10.214  0.00  0.00     0.154 C 
HETATM    4  C   UNK N   1      36.269  13.852  11.256  0.00  0.00     0.201 C 
HETATM    5  C   UNK N   1      34.938  14.312  11.880  0.00  0.00     0.288 C 
HETATM    6  O   UNK N   1      33.953  14.479  10.877  0.00  0.00    -0.351 OA
ENDROOT
BRANCH   2   7
HETATM    7  C   UNK N   1      33.221  15.729   8.967  0.00  0.00     0.196 C 
BRANCH   7   8
HETATM    8  O   UNK N   1      31.988  15.818   9.617  0.00  0.00    -0.398 OA
HETATM    9  H   UNK N   1      31.175  16.200   9.252  0.00  0.00     0.209 HD
ENDBRANCH   7   8
ENDBRANCH   2   7
BRANCH   3  10
HETATM   10  O   UNK N   1      37.088  16.079  10.833  0.00  0.00    -0.393 OA
HETATM   11  H   UNK N   1      37.548  16.790  11.308  0.00  0.00     0.210 HD
ENDBRANCH   3  10
BRANCH   5  12
HETATM   12  O   UNK N   1      34.496  13.338  12.780  0.00  0.00    -0.369 OA
HETATM   13  H   UNK N   1      34.934  12.475  12.829  0.00  0.00     0.212 HD
ENDBRANCH   5  12
BRANCH   4  14
HETATM   14  O   UNK N   1      37.243  13.684  12.242  0.00  0.00    -0.388 OA
HETATM   15  H   UNK N   1      38.077  13.195  12.166  0.00  0.00     0.210 HD
ENDBRANCH   4  14
TORSDOF 5
ENDMDL
MODEL 8
REMARK VINA RESULT:      -4.3      8.234      9.982
REMARK  5 active torsions:
REMARK  status: ('A' for Active; 'I' for Inactive)
REMARK    1  A    between atoms: C_3  and  C_2 
REMARK    2  A    between atoms: O_7  and  C_2 
REMARK    3  A    between atoms: C_4  and  O_8 
REMARK    4  A    between atoms: C_5  and  O_9 
REMARK    5  A    between atoms: C_6  and  O_10 
ROOT
HETATM    1  C   UNK N   1      23.236  13.614   9.384  0.00  0.00     0.068 C 
HETATM    2  C   UNK N   1      23.399  12.230  10.026  0.00  0.00     0.150 C 
HETATM    3  C   UNK N   1      21.778  13.825   8.984  0.00  0.00     0.154 C 
HETATM    4  C   UNK N   1      20.888  13.572  10.207  0.00  0.00     0.201 C 
HETATM    5  C   UNK N   1      21.209  12.194  10.815  0.00  0.00     0.288 C 
HETATM    6  O   UNK N   1      22.576  12.119  11.178  0.00  0.00    -0.351 OA
ENDROOT
BRANCH   2   7
HETATM    7  C   UNK N   1      24.854  12.062  10.433  0.00  0.00     0.196 C 
BRANCH   7   8
HETATM    8  O   UNK N   1      25.020  12.410  11.775  0.00  0.00    -0.398 OA
HETATM    9  H   UNK N   1      24.558  13.123  12.242  0.00  0.00     0.209 HD
ENDBRANCH   7   8
ENDBRANCH   2   7
BRANCH   3  10
HETATM   10  O   UNK N   1      21.447  12.946   7.948  0.00  0.00    -0.393 OA
HETATM   11  H   UNK N   1      21.062  12.239   7.406  0.00  0.00     0.210 HD
ENDBRANCH   3  10
BRANCH   5  12
HETATM   12  O   UNK N   1      20.434  12.010  11.963  0.00  0.00    -0.369 OA
HETATM   13  H   UNK N   1      19.932  12.746  12.344  0.00  0.00     0.212 HD
ENDBRANCH   5  12
BRANCH   4  14
HETATM   14  O   UNK N   1      19.541  13.651   9.850  0.00  0.00    -0.388 OA
HETATM   15  H   UNK N   1      18.864  12.964   9.958  0.00  0.00     0.210 HD
ENDBRANCH   4  14
TORSDOF 5
ENDMDL
MODEL 9
REMARK VINA RESULT:      -4.2     11.676     13.343
REMARK  5 active torsions:
REMARK  status: ('A' for Active; 'I' for Inactive)
REMARK    1  A    between atoms: C_3  and  C_2 
REMARK    2  A    between atoms: O_7  and  C_2 
REMARK    3  A    between atoms: C_4  and  O_8 
REMARK    4  A    between atoms: C_5  and  O_9 
REMARK    5  A    between atoms: C_6  and  O_10 
ROOT
HETATM    1  C   UNK N   1      33.611  16.596   6.082  0.00  0.00     0.068 C 
HETATM    2  C   UNK N   1      32.280  17.352   5.984  0.00  0.00     0.150 C 
HETATM    3  C   UNK N   1      34.331  16.989   7.370  0.00  0.00     0.154 C 
HETATM    4  C   UNK N   1      33.379  16.775   8.553  0.00  0.00     0.201 C 
HETATM    5  C   UNK N   1      32.048  17.506   8.296  0.00  0.00     0.288 C 
HETATM    6  O   UNK N   1      31.453  17.044   7.097  0.00  0.00    -0.351 OA
ENDROOT
BRANCH   2   7
HETATM    7  C   UNK N   1      31.581  16.921   4.706  0.00  0.00     0.196 C 
BRANCH   7   8
HETATM    8  O   UNK N   1      31.617  17.954   3.767  0.00  0.00    -0.398 OA
HETATM    9  H   UNK N   1      31.075  18.759   3.781  0.00  0.00     0.209 HD
ENDBRANCH   7   8
ENDBRANCH   2   7
BRANCH   3  10
HETATM   10  O   UNK N   1      34.724  18.328   7.294  0.00  0.00    -0.393 OA
HETATM   11  H   UNK N   1      35.230  19.155   7.253  0.00  0.00     0.210 HD
ENDBRANCH   3  10
BRANCH   5  12
HETATM   12  O   UNK N   1      31.173  17.249   9.354  0.00  0.00    -0.369 OA
HETATM   13  H   UNK N   1      31.512  16.974  10.220  0.00  0.00     0.212 HD
ENDBRANCH   5  12
BRANCH   4  14
HETATM   14  O   UNK N   1      33.968  17.227   9.736  0.00  0.00    -0.388 OA
HETATM   15  H   UNK N   1      33.705  17.008  10.643  0.00  0.00     0.210 HD
ENDBRANCH   4  14
TORSDOF 5
ENDMDL
