REMARK  5 active torsions:
REMARK  status: ('A' for Active; 'I' for Inactive)
REMARK    1  A    between atoms: C_10  and  C_9 
REMARK    2  A    between atoms: N_18  and  C_9 
REMARK    3  A    between atoms: C_15  and  C_13 
REMARK    4  A    between atoms: O_20  and  C_14 
REMARK    5  A    between atoms: C_15  and  O_21 
ROOT
HETATM    1  C   UNK N   1       2.179   0.806   0.470  0.00  0.00     0.149 C 
HETATM    2  N   UNK N   1       3.224   0.445  -0.203  0.00  0.00    -0.362 N 
ATOM      3  HN  UNK N   1       3.096  -0.253  -0.935  1.00  0.00     0.162 HD
ENDROOT
BRANCH   1   4
HETATM    4  C   UNK N   1       0.851   0.226   0.165  0.00  0.00     0.050 A 
HETATM    5  C   UNK N   1      -0.292   0.976   0.473  0.00  0.00     0.060 A 
HETATM    6  C   UNK N   1      -1.565   0.493   0.167  0.00  0.00     0.117 A 
HETATM    7  C   UNK N   1      -1.710  -0.763  -0.424  0.00  0.00     0.045 A 
HETATM    8  F   UNK N   1      -2.656   1.253   0.423  0.00  0.00    -0.206 F 
HETATM    9  C   UNK N   1      -0.582  -1.534  -0.713  0.00  0.00     0.040 A 
HETATM   10  C   UNK N   1       0.699  -1.046  -0.435  0.00  0.00     0.080 A 
BRANCH  10  11
HETATM   11  O   UNK N   1       1.766  -1.813  -0.713  0.00  0.00    -0.360 OA
HETATM   12  H   UNK N   1       1.675  -2.725  -0.907  0.00  0.00     0.217 HD
ENDBRANCH  10  11
ENDBRANCH   1   4
BRANCH   1  13
HETATM   13  O   UNK N   1       2.268   1.761   1.424  0.00  0.00    -0.346 OA
HETATM   14  H   UNK N   1       2.871   2.038   2.085  0.00  0.00     0.219 HD
ENDBRANCH   1  13
BRANCH   2  15
HETATM   15  C   UNK N   1       4.573   0.962   0.008  0.00  0.00     0.113 C 
HETATM   16  C   UNK N   1       5.070   0.506   1.374  0.00  0.00     0.037 C 
BRANCH  15  17
HETATM   17  C   UNK N   1       4.697   2.475  -0.123  0.00  0.00    -0.036 A 
HETATM   18  C   UNK N   1       5.936   3.086   0.130  0.00  0.00     0.010 A 
HETATM   19  C   UNK N   1       6.064   4.478   0.092  0.00  0.00     0.019 A 
HETATM   20  C   UNK N   1       4.956   5.274  -0.207  0.00  0.00     0.011 A 
HETATM   21  C   UNK N   1       3.727   4.679  -0.495  0.00  0.00     0.019 A 
HETATM   22 Br   UNK N   1       5.116   7.173  -0.202  0.00  0.00    -0.051 Br
HETATM   23  C   UNK N   1       3.599   3.289  -0.458  0.00  0.00     0.010 A 
ENDBRANCH  15  17
ENDBRANCH   2  15
TORSDOF 5
