MODEL 1
REMARK VINA RESULT:      -4.3      0.000      0.000
REMARK  5 active torsions:
REMARK  status: ('A' for Active; 'I' for Inactive)
REMARK    1  A    between atoms: O_1  and  C_2 
REMARK    2  A    between atoms: C_2  and  C_4 
REMARK    3  A    between atoms: C_4  and  P_5 
REMARK    4  A    between atoms: P_5  and  O_6 
REMARK    5  A    between atoms: P_5  and  O_7 
ROOT
HETATM    1  P   UNK N   1      34.176  17.893   7.909  0.00  0.00     0.245 P 
HETATM    2  O   UNK N   1      32.767  18.426   8.288  0.00  0.00    -0.653 OA
ENDROOT
BRANCH   1   3
HETATM    3  C   UNK N   1      34.657  16.335   8.835  0.00  0.00     0.234 C 
BRANCH   3   4
HETATM    4  C   UNK N   1      35.017  16.532  10.273  0.00  0.00     0.150 C 
HETATM    5  O   UNK N   1      35.908  17.303  10.580  0.00  0.00    -0.650 OA
BRANCH   4   6
HETATM    6  O   UNK N   1      34.465  15.740  11.214  0.00  0.00    -0.776 OA
HETATM    7  H   UNK N   1      34.754  14.973  11.666  0.00  0.00     0.167 HD
ENDBRANCH   4   6
ENDBRANCH   3   4
ENDBRANCH   1   3
BRANCH   1   8
HETATM    8  O   UNK N   1      34.248  17.950   6.172  0.00  0.00    -0.329 OA
HETATM    9  H   UNK N   1      34.671  18.311   5.378  0.00  0.00     0.220 HD
ENDBRANCH   1   8
BRANCH   1  10
HETATM   10  O   UNK N   1      35.216  19.170   8.443  0.00  0.00    -0.329 OA
HETATM   11  H   UNK N   1      35.710  19.918   8.075  0.00  0.00     0.220 HD
ENDBRANCH   1  10
TORSDOF 5
ENDMDL
MODEL 2
REMARK VINA RESULT:      -4.2      1.601      3.796
REMARK  5 active torsions:
REMARK  status: ('A' for Active; 'I' for Inactive)
REMARK    1  A    between atoms: O_1  and  C_2 
REMARK    2  A    between atoms: C_2  and  C_4 
REMARK    3  A    between atoms: C_4  and  P_5 
REMARK    4  A    between atoms: P_5  and  O_6 
REMARK    5  A    between atoms: P_5  and  O_7 
ROOT
HETATM    1  P   UNK N   1      34.570  16.179   9.857  0.00  0.00     0.245 P 
HETATM    2  O   UNK N   1      35.426  15.131   9.094  0.00  0.00    -0.653 OA
ENDROOT
BRANCH   1   3
HETATM    3  C   UNK N   1      33.584  17.302   8.725  0.00  0.00     0.234 C 
BRANCH   3   4
HETATM    4  C   UNK N   1      34.397  18.238   7.887  0.00  0.00     0.150 C 
HETATM    5  O   UNK N   1      34.427  18.104   6.677  0.00  0.00    -0.650 OA
BRANCH   4   6
HETATM    6  O   UNK N   1      35.218  19.124   8.483  0.00  0.00    -0.776 OA
HETATM    7  H   UNK N   1      36.093  19.076   8.815  0.00  0.00     0.167 HD
ENDBRANCH   4   6
ENDBRANCH   3   4
ENDBRANCH   1   3
BRANCH   1   8
HETATM    8  O   UNK N   1      33.786  15.301  11.137  0.00  0.00    -0.329 OA
HETATM    9  H   UNK N   1      33.564  15.244  12.080  0.00  0.00     0.220 HD
ENDBRANCH   1   8
BRANCH   1  10
HETATM   10  O   UNK N   1      35.773  17.142  10.646  0.00  0.00    -0.329 OA
HETATM   11  H   UNK N   1      35.838  17.808  11.347  0.00  0.00     0.220 HD
ENDBRANCH   1  10
TORSDOF 5
ENDMDL
MODEL 3
REMARK VINA RESULT:      -4.2     15.029     16.001
REMARK  5 active torsions:
REMARK  status: ('A' for Active; 'I' for Inactive)
REMARK    1  A    between atoms: O_1  and  C_2 
REMARK    2  A    between atoms: C_2  and  C_4 
REMARK    3  A    between atoms: C_4  and  P_5 
REMARK    4  A    between atoms: P_5  and  O_6 
REMARK    5  A    between atoms: P_5  and  O_7 
ROOT
HETATM    1  P   UNK N   1      20.103  18.147   1.979  0.00  0.00     0.245 P 
HETATM    2  O   UNK N   1      20.270  16.696   2.510  0.00  0.00    -0.653 OA
ENDROOT
BRANCH   1   3
HETATM    3  C   UNK N   1      21.166  19.398   2.884  0.00  0.00     0.234 C 
BRANCH   3   4
HETATM    4  C   UNK N   1      21.493  20.636   2.111  0.00  0.00     0.150 C 
HETATM    5  O   UNK N   1      21.500  20.611   0.893  0.00  0.00    -0.650 OA
BRANCH   4   6
HETATM    6  O   UNK N   1      21.934  21.731   2.759  0.00  0.00    -0.776 OA
HETATM    7  H   UNK N   1      22.397  22.501   2.492  0.00  0.00     0.167 HD
ENDBRANCH   4   6
ENDBRANCH   3   4
ENDBRANCH   1   3
BRANCH   1   8
HETATM    8  O   UNK N   1      20.162  18.022   0.245  0.00  0.00    -0.329 OA
HETATM    9  H   UNK N   1      20.641  18.210  -0.577  0.00  0.00     0.220 HD
ENDBRANCH   1   8
BRANCH   1  10
HETATM   10  O   UNK N   1      18.446  18.491   2.348  0.00  0.00    -0.329 OA
HETATM   11  H   UNK N   1      17.572  18.420   1.936  0.00  0.00     0.220 HD
ENDBRANCH   1  10
TORSDOF 5
ENDMDL
MODEL 4
REMARK VINA RESULT:      -4.1      0.254      1.992
REMARK  5 active torsions:
REMARK  status: ('A' for Active; 'I' for Inactive)
REMARK    1  A    between atoms: O_1  and  C_2 
REMARK    2  A    between atoms: C_2  and  C_4 
REMARK    3  A    between atoms: C_4  and  P_5 
REMARK    4  A    between atoms: P_5  and  O_6 
REMARK    5  A    between atoms: P_5  and  O_7 
ROOT
HETATM    1  P   UNK N   1      34.211  17.884   7.944  0.00  0.00     0.245 P 
HETATM    2  O   UNK N   1      34.306  17.851   6.393  0.00  0.00    -0.653 OA
ENDROOT
BRANCH   1   3
HETATM    3  C   UNK N   1      34.482  16.209   8.743  0.00  0.00     0.234 C 
BRANCH   3   4
HETATM    4  C   UNK N   1      34.946  16.248  10.164  0.00  0.00     0.150 C 
HETATM    5  O   UNK N   1      34.547  15.416  10.960  0.00  0.00    -0.650 OA
BRANCH   4   6
HETATM    6  O   UNK N   1      35.677  17.292  10.600  0.00  0.00    -0.776 OA
HETATM    7  H   UNK N   1      35.461  18.127  10.967  0.00  0.00     0.167 HD
ENDBRANCH   4   6
ENDBRANCH   3   4
ENDBRANCH   1   3
BRANCH   1   8
HETATM    8  O   UNK N   1      35.144  19.265   8.442  0.00  0.00    -0.329 OA
HETATM    9  H   UNK N   1      35.932  19.606   8.893  0.00  0.00     0.220 HD
ENDBRANCH   1   8
BRANCH   1  10
HETATM   10  O   UNK N   1      32.561  18.338   8.207  0.00  0.00    -0.329 OA
HETATM   11  H   UNK N   1      32.014  19.138   8.230  0.00  0.00     0.220 HD
ENDBRANCH   1  10
TORSDOF 5
ENDMDL
MODEL 5
REMARK VINA RESULT:      -3.8     14.982     15.859
REMARK  5 active torsions:
REMARK  status: ('A' for Active; 'I' for Inactive)
REMARK    1  A    between atoms: O_1  and  C_2 
REMARK    2  A    between atoms: C_2  and  C_4 
REMARK    3  A    between atoms: C_4  and  P_5 
REMARK    4  A    between atoms: P_5  and  O_6 
REMARK    5  A    between atoms: P_5  and  O_7 
ROOT
HETATM    1  P   UNK N   1      20.216  18.059   2.110  0.00  0.00     0.245 P 
HETATM    2  O   UNK N   1      20.010  17.145   0.871  0.00  0.00    -0.653 OA
ENDROOT
BRANCH   1   3
HETATM    3  C   UNK N   1      20.824  19.778   1.675  0.00  0.00     0.234 C 
BRANCH   3   4
HETATM    4  C   UNK N   1      20.989  20.709   2.834  0.00  0.00     0.150 C 
HETATM    5  O   UNK N   1      20.298  20.575   3.829  0.00  0.00    -0.650 OA
BRANCH   4   6
HETATM    6  O   UNK N   1      21.785  21.789   2.715  0.00  0.00    -0.776 OA
HETATM    7  H   UNK N   1      21.787  22.534   2.147  0.00  0.00     0.167 HD
ENDBRANCH   4   6
ENDBRANCH   3   4
ENDBRANCH   1   3
BRANCH   1   8
HETATM    8  O   UNK N   1      18.797  17.843   3.093  0.00  0.00    -0.329 OA
HETATM    9  H   UNK N   1      18.233  18.177   3.807  0.00  0.00     0.220 HD
ENDBRANCH   1   8
BRANCH   1  10
HETATM   10  O   UNK N   1      21.483  17.248   2.967  0.00  0.00    -0.329 OA
HETATM   11  H   UNK N   1      22.193  16.609   2.798  0.00  0.00     0.220 HD
ENDBRANCH   1  10
TORSDOF 5
ENDMDL
MODEL 6
REMARK VINA RESULT:      -3.7      3.401      5.550
REMARK  5 active torsions:
REMARK  status: ('A' for Active; 'I' for Inactive)
REMARK    1  A    between atoms: O_1  and  C_2 
REMARK    2  A    between atoms: C_2  and  C_4 
REMARK    3  A    between atoms: C_4  and  P_5 
REMARK    4  A    between atoms: P_5  and  O_6 
REMARK    5  A    between atoms: P_5  and  O_7 
ROOT
HETATM    1  P   UNK N   1      35.808  14.043  12.659  0.00  0.00     0.245 P 
HETATM    2  O   UNK N   1      36.202  14.622  14.046  0.00  0.00    -0.653 OA
ENDROOT
BRANCH   1   3
HETATM    3  C   UNK N   1      35.014  15.305  11.522  0.00  0.00     0.234 C 
BRANCH   3   4
HETATM    4  C   UNK N   1      35.958  16.281  10.893  0.00  0.00     0.150 C 
HETATM    5  O   UNK N   1      35.534  17.315  10.410  0.00  0.00    -0.650 OA
BRANCH   4   6
HETATM    6  O   UNK N   1      37.250  15.943  10.720  0.00  0.00    -0.776 OA
HETATM    7  H   UNK N   1      37.741  15.159  10.871  0.00  0.00     0.167 HD
ENDBRANCH   4   6
ENDBRANCH   3   4
ENDBRANCH   1   3
BRANCH   1   8
HETATM    8  O   UNK N   1      37.181  13.115  12.132  0.00  0.00    -0.329 OA
HETATM    9  H   UNK N   1      37.518  12.291  11.746  0.00  0.00     0.220 HD
ENDBRANCH   1   8
BRANCH   1  10
HETATM   10  O   UNK N   1      34.605  12.869  13.072  0.00  0.00    -0.329 OA
HETATM   11  H   UNK N   1      34.468  11.910  13.028  0.00  0.00     0.220 HD
ENDBRANCH   1  10
TORSDOF 5
ENDMDL
MODEL 7
REMARK VINA RESULT:      -3.6      2.073      2.957
REMARK  5 active torsions:
REMARK  status: ('A' for Active; 'I' for Inactive)
REMARK    1  A    between atoms: O_1  and  C_2 
REMARK    2  A    between atoms: C_2  and  C_4 
REMARK    3  A    between atoms: C_4  and  P_5 
REMARK    4  A    between atoms: P_5  and  O_6 
REMARK    5  A    between atoms: P_5  and  O_7 
ROOT
HETATM    1  P   UNK N   1      33.293  15.686   9.245  0.00  0.00     0.245 P 
HETATM    2  O   UNK N   1      32.819  14.978   7.945  0.00  0.00    -0.653 OA
ENDROOT
BRANCH   1   3
HETATM    3  C   UNK N   1      35.031  15.210   9.761  0.00  0.00     0.234 C 
BRANCH   3   4
HETATM    4  C   UNK N   1      35.815  16.292  10.435  0.00  0.00     0.150 C 
HETATM    5  O   UNK N   1      35.434  17.447  10.379  0.00  0.00    -0.650 OA
BRANCH   4   6
HETATM    6  O   UNK N   1      37.022  16.011  10.964  0.00  0.00    -0.776 OA
HETATM    7  H   UNK N   1      37.609  15.284  10.890  0.00  0.00     0.167 HD
ENDBRANCH   4   6
ENDBRANCH   3   4
ENDBRANCH   1   3
BRANCH   1   8
HETATM    8  O   UNK N   1      32.849  17.357   9.057  0.00  0.00    -0.329 OA
HETATM    9  H   UNK N   1      32.715  18.110   8.461  0.00  0.00     0.220 HD
ENDBRANCH   1   8
BRANCH   1  10
HETATM   10  O   UNK N   1      32.196  15.062  10.430  0.00  0.00    -0.329 OA
HETATM   11  H   UNK N   1      31.268  14.792  10.503  0.00  0.00     0.220 HD
ENDBRANCH   1  10
TORSDOF 5
ENDMDL
MODEL 8
REMARK VINA RESULT:      -3.5     12.757     13.633
REMARK  5 active torsions:
REMARK  status: ('A' for Active; 'I' for Inactive)
REMARK    1  A    between atoms: O_1  and  C_2 
REMARK    2  A    between atoms: C_2  and  C_4 
REMARK    3  A    between atoms: C_4  and  P_5 
REMARK    4  A    between atoms: P_5  and  O_6 
REMARK    5  A    between atoms: P_5  and  O_7 
ROOT
HETATM    1  P   UNK N   1      29.642  23.013  -2.512  0.00  0.00     0.245 P 
HETATM    2  O   UNK N   1      30.410  23.079  -1.164  0.00  0.00    -0.653 OA
ENDROOT
BRANCH   1   3
HETATM    3  C   UNK N   1      30.230  21.633  -3.638  0.00  0.00     0.234 C 
BRANCH   3   4
HETATM    4  C   UNK N   1      31.649  21.205  -3.436  0.00  0.00     0.150 C 
HETATM    5  O   UNK N   1      32.230  20.587  -4.310  0.00  0.00    -0.650 OA
BRANCH   4   6
HETATM    6  O   UNK N   1      32.229  21.364  -2.231  0.00  0.00    -0.776 OA
HETATM    7  H   UNK N   1      33.044  21.728  -1.946  0.00  0.00     0.167 HD
ENDBRANCH   4   6
ENDBRANCH   3   4
ENDBRANCH   1   3
BRANCH   1   8
HETATM    8  O   UNK N   1      27.958  23.165  -2.101  0.00  0.00    -0.329 OA
HETATM    9  H   UNK N   1      27.035  22.990  -2.339  0.00  0.00     0.220 HD
ENDBRANCH   1   8
BRANCH   1  10
HETATM   10  O   UNK N   1      30.059  24.520  -3.255  0.00  0.00    -0.329 OA
HETATM   11  H   UNK N   1      29.916  25.469  -3.123  0.00  0.00     0.220 HD
ENDBRANCH   1  10
TORSDOF 5
ENDMDL
MODEL 9
REMARK VINA RESULT:      -3.4      2.210      3.850
REMARK  5 active torsions:
REMARK  status: ('A' for Active; 'I' for Inactive)
REMARK    1  A    between atoms: O_1  and  C_2 
REMARK    2  A    between atoms: C_2  and  C_4 
REMARK    3  A    between atoms: C_4  and  P_5 
REMARK    4  A    between atoms: P_5  and  O_6 
REMARK    5  A    between atoms: P_5  and  O_7 
ROOT
HETATM    1  P   UNK N   1      33.588  14.672   9.503  0.00  0.00     0.245 P 
HETATM    2  O   UNK N   1      34.925  13.882   9.488  0.00  0.00    -0.653 OA
ENDROOT
BRANCH   1   3
HETATM    3  C   UNK N   1      33.682  16.315   8.604  0.00  0.00     0.234 C 
BRANCH   3   4
HETATM    4  C   UNK N   1      34.610  17.321   9.208  0.00  0.00     0.150 C 
HETATM    5  O   UNK N   1      35.063  17.141  10.324  0.00  0.00    -0.650 OA
BRANCH   4   6
HETATM    6  O   UNK N   1      34.816  18.497   8.584  0.00  0.00    -0.776 OA
HETATM    7  H   UNK N   1      35.314  18.754   7.833  0.00  0.00     0.167 HD
ENDBRANCH   4   6
ENDBRANCH   3   4
ENDBRANCH   1   3
BRANCH   1   8
HETATM    8  O   UNK N   1      32.354  13.513   9.104  0.00  0.00    -0.329 OA
HETATM    9  H   UNK N   1      31.608  13.269   8.534  0.00  0.00     0.220 HD
ENDBRANCH   1   8
BRANCH   1  10
HETATM   10  O   UNK N   1      33.367  15.001  11.189  0.00  0.00    -0.329 OA
HETATM   11  H   UNK N   1      33.845  14.902  12.026  0.00  0.00     0.220 HD
ENDBRANCH   1  10
TORSDOF 5
ENDMDL
