MODEL 1
REMARK VINA RESULT:      -7.7      0.000      0.000
REMARK  16 active torsions:
REMARK  status: ('A' for Active; 'I' for Inactive)
REMARK    1  A    between atoms: C_13  and  C_8 
REMARK    2  A    between atoms: C_16  and  C_8 
REMARK    3  A    between atoms: C_20  and  C_13 
REMARK    4  A    between atoms: C_15  and  C_14 
REMARK    5  A    between atoms: C_18  and  C_14 
REMARK    6  A    between atoms: C_21  and  C_15 
REMARK    7  A    between atoms: N_28  and  C_16 
REMARK    8  A    between atoms: C_24  and  C_17 
REMARK    9  A    between atoms: N_29  and  C_17 
REMARK   10  A    between atoms: N_30  and  C_19 
REMARK   11  A    between atoms: C_22  and  C_20 
REMARK   12  A    between atoms: C_20  and  N_32 
REMARK   13  A    between atoms: C_23  and  C_21 
REMARK   14  A    between atoms: C_21  and  N_29 
REMARK   15  A    between atoms: O_34  and  C_22 
REMARK   16  A    between atoms: O_37  and  C_24 
REMARK       I    between atoms: N_27  and  C_25 
REMARK       I    between atoms: N_28  and  C_25 
ROOT
HETATM    1  C   UNK N   1      21.921  15.814   7.098  0.00  0.00     0.135 C 
HETATM    2  N   UNK N   1      21.619  16.770   6.271  0.00  0.00    -0.361 N 
ATOM      3  HN  UNK N   1      20.834  17.381   6.497  1.00  0.00     0.162 HD
HETATM    4  O   UNK N   1      23.014  15.051   6.892  0.00  0.00    -0.348 OA
HETATM    5  H   UNK N   1      23.818  14.582   6.779  0.00  0.00     0.219 HD
ENDROOT
BRANCH   1   6
HETATM    6  C   UNK N   1      20.971  15.478   8.222  0.00  0.00     0.152 C 
BRANCH   6   7
HETATM    7  C   UNK N   1      20.805  13.981   8.530  0.00  0.00     0.038 C 
BRANCH   7   8
HETATM    8  C   UNK N   1      20.707  13.588   9.998  0.00  0.00     0.041 C 
BRANCH   8   9
HETATM    9  C   UNK N   1      22.017  13.029  10.447  0.00  0.00    -0.058 A 
HETATM   10  C   UNK N   1      23.158  13.200   9.654  0.00  0.00     0.007 A 
HETATM   11  C   UNK N   1      24.382  12.658  10.062  0.00  0.00     0.001 A 
HETATM   12  C   UNK N   1      24.468  11.947  11.263  0.00  0.00     0.000 A 
HETATM   13  C   UNK N   1      23.331  11.780  12.060  0.00  0.00     0.001 A 
HETATM   14  C   UNK N   1      22.107  12.319  11.653  0.00  0.00     0.007 A 
ENDBRANCH   8   9
ENDBRANCH   7   8
ENDBRANCH   6   7
BRANCH   6  15
HETATM   15  N   UNK N   1      19.712  16.249   8.090  0.00  0.00    -0.397 N 
HETATM   16  H   UNK N   1      19.173  16.189   7.227  0.00  0.00     0.154 HD
BRANCH  15  17
HETATM   17  C   UNK N   1      19.231  17.101   9.192  0.00  0.00     0.172 C 
HETATM   18  C   UNK N   1      17.723  17.290   9.186  0.00  0.00     0.043 C 
BRANCH  17  19
HETATM   19  C   UNK N   1      19.850  18.461   9.036  0.00  0.00     0.162 C 
HETATM   20  O   UNK N   1      19.846  19.250   9.970  0.00  0.00    -0.648 OA
BRANCH  19  21
HETATM   21  O   UNK N   1      20.415  18.817   7.867  0.00  0.00    -0.775 OA
HETATM   22  H   UNK N   1      20.589  18.187   7.196  0.00  0.00     0.167 HD
ENDBRANCH  19  21
ENDBRANCH  17  19
ENDBRANCH  15  17
ENDBRANCH   6  15
ENDBRANCH   1   6
BRANCH   2  23
HETATM   23  C   UNK N   1      22.353  17.006   5.033  0.00  0.00     0.158 C 
BRANCH  23  24
HETATM   24  C   UNK N   1      21.473  16.502   3.866  0.00  0.00     0.035 C 
BRANCH  24  25
HETATM   25  C   UNK N   1      21.503  17.354   2.598  0.00  0.00     0.023 C 
BRANCH  25  26
HETATM   26  C   UNK N   1      20.135  17.923   2.291  0.00  0.00     0.138 C 
BRANCH  26  27
HETATM   27  N   UNK N   1      20.240  18.839   1.182  0.00  0.00    -0.227 N 
HETATM   28  C   UNK N   1      20.532  20.218   1.368  0.00  0.00     0.665 C 
HETATM   29  N   UNK N   1      20.750  20.690   2.540  0.00  0.00    -0.235 N 
HETATM   30  N   UNK N   1      20.577  21.078   0.250  0.00  0.00    -0.235 N 
HETATM   31  H   UNK N   1      21.054  21.619   2.654  0.00  0.00     0.174 HD
HETATM   32  H   UNK N   1      20.613  20.119   3.331  0.00  0.00     0.174 HD
HETATM   33  H   UNK N   1      20.409  20.729  -0.655  0.00  0.00     0.174 HD
HETATM   34  H   UNK N   1      20.778  22.034   0.375  0.00  0.00     0.174 HD
HETATM   35  H   UNK N   1      20.103  18.500   0.267  0.00  0.00     0.177 HD
ENDBRANCH  26  27
ENDBRANCH  25  26
ENDBRANCH  24  25
ENDBRANCH  23  24
BRANCH  23  36
HETATM   36  C   UNK N   1      22.648  18.487   4.774  0.00  0.00     0.139 C 
HETATM   37  N   UNK N   1      23.785  18.971   4.383  0.00  0.00    -0.339 N 
ATOM     38  HN  UNK N   1      23.788  19.984   4.266  1.00  0.00     0.168 HD
BRANCH  37  39
HETATM   39  C   UNK N   1      25.029  18.351   4.085  0.00  0.00     0.033 A 
HETATM   40  C   UNK N   1      25.140  17.094   3.479  0.00  0.00     0.029 A 
HETATM   41  C   UNK N   1      26.400  16.532   3.242  0.00  0.00     0.002 A 
HETATM   42  C   UNK N   1      27.556  17.229   3.602  0.00  0.00     0.000 A 
HETATM   43  C   UNK N   1      27.455  18.491   4.190  0.00  0.00     0.002 A 
HETATM   44  C   UNK N   1      26.197  19.046   4.428  0.00  0.00     0.029 A 
ENDBRANCH  37  39
BRANCH  36  45
HETATM   45  O   UNK N   1      21.646  19.372   4.962  0.00  0.00    -0.348 OA
HETATM   46  H   UNK N   1      20.739  19.134   4.958  0.00  0.00     0.219 HD
ENDBRANCH  36  45
ENDBRANCH  23  36
ENDBRANCH   2  23
TORSDOF 16
ENDMDL
MODEL 2
REMARK VINA RESULT:      -7.6      9.462     13.577
REMARK  16 active torsions:
REMARK  status: ('A' for Active; 'I' for Inactive)
REMARK    1  A    between atoms: C_13  and  C_8 
REMARK    2  A    between atoms: C_16  and  C_8 
REMARK    3  A    between atoms: C_20  and  C_13 
REMARK    4  A    between atoms: C_15  and  C_14 
REMARK    5  A    between atoms: C_18  and  C_14 
REMARK    6  A    between atoms: C_21  and  C_15 
REMARK    7  A    between atoms: N_28  and  C_16 
REMARK    8  A    between atoms: C_24  and  C_17 
REMARK    9  A    between atoms: N_29  and  C_17 
REMARK   10  A    between atoms: N_30  and  C_19 
REMARK   11  A    between atoms: C_22  and  C_20 
REMARK   12  A    between atoms: C_20  and  N_32 
REMARK   13  A    between atoms: C_23  and  C_21 
REMARK   14  A    between atoms: C_21  and  N_29 
REMARK   15  A    between atoms: O_34  and  C_22 
REMARK   16  A    between atoms: O_37  and  C_24 
REMARK       I    between atoms: N_27  and  C_25 
REMARK       I    between atoms: N_28  and  C_25 
ROOT
HETATM    1  C   UNK N   1      32.261  16.459   8.851  0.00  0.00     0.135 C 
HETATM    2  N   UNK N   1      33.558  16.490   8.772  0.00  0.00    -0.361 N 
ATOM      3  HN  UNK N   1      33.994  17.183   8.163  1.00  0.00     0.162 HD
HETATM    4  O   UNK N   1      31.649  15.632   9.723  0.00  0.00    -0.348 OA
HETATM    5  H   UNK N   1      31.241  15.110  10.387  0.00  0.00     0.219 HD
ENDROOT
BRANCH   1   6
HETATM    6  C   UNK N   1      31.439  17.261   7.872  0.00  0.00     0.152 C 
BRANCH   6   7
HETATM    7  C   UNK N   1      30.029  17.651   8.346  0.00  0.00     0.038 C 
BRANCH   7   8
HETATM    8  C   UNK N   1      28.865  17.234   7.457  0.00  0.00     0.041 C 
BRANCH   8   9
HETATM    9  C   UNK N   1      28.377  18.421   6.693  0.00  0.00    -0.058 A 
HETATM   10  C   UNK N   1      28.456  18.432   5.296  0.00  0.00     0.007 A 
HETATM   11  C   UNK N   1      28.019  19.552   4.578  0.00  0.00     0.001 A 
HETATM   12  C   UNK N   1      27.501  20.659   5.257  0.00  0.00     0.000 A 
HETATM   13  C   UNK N   1      27.416  20.648   6.653  0.00  0.00     0.001 A 
HETATM   14  C   UNK N   1      27.854  19.531   7.370  0.00  0.00     0.007 A 
ENDBRANCH   8   9
ENDBRANCH   7   8
ENDBRANCH   6   7
BRANCH   6  15
HETATM   15  N   UNK N   1      31.518  16.670   6.516  0.00  0.00    -0.397 N 
HETATM   16  H   UNK N   1      31.085  15.764   6.335  0.00  0.00     0.154 HD
BRANCH  15  17
HETATM   17  C   UNK N   1      32.216  17.374   5.426  0.00  0.00     0.172 C 
HETATM   18  C   UNK N   1      31.668  17.034   4.049  0.00  0.00     0.043 C 
BRANCH  17  19
HETATM   19  C   UNK N   1      33.658  16.954   5.446  0.00  0.00     0.162 C 
HETATM   20  O   UNK N   1      34.039  16.029   4.742  0.00  0.00    -0.648 OA
BRANCH  19  21
HETATM   21  O   UNK N   1      34.539  17.595   6.235  0.00  0.00    -0.775 OA
HETATM   22  H   UNK N   1      35.078  18.287   5.906  0.00  0.00     0.167 HD
ENDBRANCH  19  21
ENDBRANCH  17  19
ENDBRANCH  15  17
ENDBRANCH   6  15
ENDBRANCH   1   6
BRANCH   2  23
HETATM   23  C   UNK N   1      34.418  15.576   9.515  0.00  0.00     0.158 C 
BRANCH  23  24
HETATM   24  C   UNK N   1      35.230  14.758   8.485  0.00  0.00     0.035 C 
BRANCH  24  25
HETATM   25  C   UNK N   1      34.942  13.258   8.453  0.00  0.00     0.023 C 
BRANCH  25  26
HETATM   26  C   UNK N   1      33.667  12.931   9.199  0.00  0.00     0.138 C 
BRANCH  26  27
HETATM   27  N   UNK N   1      33.904  11.812  10.078  0.00  0.00    -0.227 N 
HETATM   28  C   UNK N   1      33.173  10.598   9.967  0.00  0.00     0.665 C 
HETATM   29  N   UNK N   1      32.292  10.444   9.047  0.00  0.00    -0.235 N 
HETATM   30  N   UNK N   1      33.414   9.553  10.883  0.00  0.00    -0.235 N 
HETATM   31  H   UNK N   1      31.864   9.568   8.909  0.00  0.00     0.174 HD
HETATM   32  H   UNK N   1      32.042  11.207   8.476  0.00  0.00     0.174 HD
HETATM   33  H   UNK N   1      34.086   9.659  11.595  0.00  0.00     0.174 HD
HETATM   34  H   UNK N   1      32.909   8.711  10.810  0.00  0.00     0.174 HD
HETATM   35  H   UNK N   1      34.593  11.892  10.777  0.00  0.00     0.177 HD
ENDBRANCH  26  27
ENDBRANCH  25  26
ENDBRANCH  24  25
ENDBRANCH  23  24
BRANCH  23  36
HETATM   36  C   UNK N   1      35.423  16.290  10.424  0.00  0.00     0.139 C 
HETATM   37  N   UNK N   1      36.116  15.732  11.366  0.00  0.00    -0.339 N 
ATOM     38  HN  UNK N   1      36.732  16.373  11.865  1.00  0.00     0.168 HD
BRANCH  37  39
HETATM   39  C   UNK N   1      36.177  14.391  11.833  0.00  0.00     0.033 A 
HETATM   40  C   UNK N   1      35.284  13.858  12.771  0.00  0.00     0.029 A 
HETATM   41  C   UNK N   1      35.422  12.536  13.207  0.00  0.00     0.002 A 
HETATM   42  C   UNK N   1      36.449  11.735  12.701  0.00  0.00     0.000 A 
HETATM   43  C   UNK N   1      37.332  12.252  11.752  0.00  0.00     0.002 A 
HETATM   44  C   UNK N   1      37.193  13.573  11.321  0.00  0.00     0.029 A 
ENDBRANCH  37  39
BRANCH  36  45
HETATM   45  O   UNK N   1      35.615  17.613  10.234  0.00  0.00    -0.348 OA
HETATM   46  H   UNK N   1      35.566  18.027   9.394  0.00  0.00     0.219 HD
ENDBRANCH  36  45
ENDBRANCH  23  36
ENDBRANCH   2  23
TORSDOF 16
ENDMDL
MODEL 3
REMARK VINA RESULT:      -7.6      1.679      3.116
REMARK  16 active torsions:
REMARK  status: ('A' for Active; 'I' for Inactive)
REMARK    1  A    between atoms: C_13  and  C_8 
REMARK    2  A    between atoms: C_16  and  C_8 
REMARK    3  A    between atoms: C_20  and  C_13 
REMARK    4  A    between atoms: C_15  and  C_14 
REMARK    5  A    between atoms: C_18  and  C_14 
REMARK    6  A    between atoms: C_21  and  C_15 
REMARK    7  A    between atoms: N_28  and  C_16 
REMARK    8  A    between atoms: C_24  and  C_17 
REMARK    9  A    between atoms: N_29  and  C_17 
REMARK   10  A    between atoms: N_30  and  C_19 
REMARK   11  A    between atoms: C_22  and  C_20 
REMARK   12  A    between atoms: C_20  and  N_32 
REMARK   13  A    between atoms: C_23  and  C_21 
REMARK   14  A    between atoms: C_21  and  N_29 
REMARK   15  A    between atoms: O_34  and  C_22 
REMARK   16  A    between atoms: O_37  and  C_24 
REMARK       I    between atoms: N_27  and  C_25 
REMARK       I    between atoms: N_28  and  C_25 
ROOT
HETATM    1  C   UNK N   1      22.141  16.345   6.469  0.00  0.00     0.135 C 
HETATM    2  N   UNK N   1      21.507  16.887   5.472  0.00  0.00    -0.361 N 
ATOM      3  HN  UNK N   1      20.512  17.086   5.576  1.00  0.00     0.162 HD
HETATM    4  O   UNK N   1      23.477  16.163   6.413  0.00  0.00    -0.348 OA
HETATM    5  H   UNK N   1      24.413  16.115   6.391  0.00  0.00     0.219 HD
ENDROOT
BRANCH   1   6
HETATM    6  C   UNK N   1      21.357  15.802   7.639  0.00  0.00     0.152 C 
BRANCH   6   7
HETATM    7  C   UNK N   1      21.433  14.280   7.845  0.00  0.00     0.038 C 
BRANCH   7   8
HETATM    8  C   UNK N   1      21.043  13.753   9.220  0.00  0.00     0.041 C 
BRANCH   8   9
HETATM    9  C   UNK N   1      22.241  13.148   9.875  0.00  0.00    -0.058 A 
HETATM   10  C   UNK N   1      22.096  12.434  11.070  0.00  0.00     0.007 A 
HETATM   11  C   UNK N   1      23.220  11.884  11.698  0.00  0.00     0.001 A 
HETATM   12  C   UNK N   1      24.488  12.046  11.130  0.00  0.00     0.000 A 
HETATM   13  C   UNK N   1      24.633  12.753   9.933  0.00  0.00     0.001 A 
HETATM   14  C   UNK N   1      23.512  13.304   9.306  0.00  0.00     0.007 A 
ENDBRANCH   8   9
ENDBRANCH   7   8
ENDBRANCH   6   7
BRANCH   6  15
HETATM   15  N   UNK N   1      19.996  16.386   7.672  0.00  0.00    -0.397 N 
HETATM   16  H   UNK N   1      19.399  16.320   6.848  0.00  0.00     0.154 HD
BRANCH  15  17
HETATM   17  C   UNK N   1      19.495  17.062   8.882  0.00  0.00     0.172 C 
HETATM   18  C   UNK N   1      17.977  17.119   8.949  0.00  0.00     0.043 C 
BRANCH  17  19
HETATM   19  C   UNK N   1      19.992  18.480   8.865  0.00  0.00     0.162 C 
HETATM   20  O   UNK N   1      19.891  19.179   9.863  0.00  0.00    -0.648 OA
BRANCH  19  21
HETATM   21  O   UNK N   1      20.554  18.987   7.752  0.00  0.00    -0.775 OA
HETATM   22  H   UNK N   1      20.991  19.816   7.758  0.00  0.00     0.167 HD
ENDBRANCH  19  21
ENDBRANCH  17  19
ENDBRANCH  15  17
ENDBRANCH   6  15
ENDBRANCH   1   6
BRANCH   2  23
HETATM   23  C   UNK N   1      22.157  17.221   4.210  0.00  0.00     0.158 C 
BRANCH  23  24
HETATM   24  C   UNK N   1      21.675  16.202   3.153  0.00  0.00     0.035 C 
BRANCH  24  25
HETATM   25  C   UNK N   1      22.054  14.745   3.414  0.00  0.00     0.023 C 
BRANCH  25  26
HETATM   26  C   UNK N   1      23.444  14.442   2.899  0.00  0.00     0.138 C 
BRANCH  26  27
HETATM   27  N   UNK N   1      24.395  14.610   3.970  0.00  0.00    -0.227 N 
HETATM   28  C   UNK N   1      25.503  15.495   3.864  0.00  0.00     0.665 C 
HETATM   29  N   UNK N   1      25.674  16.207   2.812  0.00  0.00    -0.235 N 
HETATM   30  N   UNK N   1      26.427  15.585   4.926  0.00  0.00    -0.235 N 
HETATM   31  H   UNK N   1      26.380  16.892   2.784  0.00  0.00     0.174 HD
HETATM   32  H   UNK N   1      25.096  16.068   2.026  0.00  0.00     0.174 HD
HETATM   33  H   UNK N   1      26.308  15.041   5.738  0.00  0.00     0.174 HD
HETATM   34  H   UNK N   1      27.197  16.195   4.855  0.00  0.00     0.174 HD
HETATM   35  H   UNK N   1      24.274  14.095   4.802  0.00  0.00     0.177 HD
ENDBRANCH  26  27
ENDBRANCH  25  26
ENDBRANCH  24  25
ENDBRANCH  23  24
BRANCH  23  36
HETATM   36  C   UNK N   1      21.798  18.618   3.693  0.00  0.00     0.139 C 
HETATM   37  N   UNK N   1      22.635  19.590   3.507  0.00  0.00    -0.339 N 
ATOM     38  HN  UNK N   1      22.205  20.447   3.158  1.00  0.00     0.168 HD
BRANCH  37  39
HETATM   39  C   UNK N   1      24.040  19.684   3.698  0.00  0.00     0.033 A 
HETATM   40  C   UNK N   1      24.718  19.068   4.757  0.00  0.00     0.029 A 
HETATM   41  C   UNK N   1      26.100  19.228   4.899  0.00  0.00     0.002 A 
HETATM   42  C   UNK N   1      26.815  19.998   3.978  0.00  0.00     0.000 A 
HETATM   43  C   UNK N   1      26.150  20.600   2.909  0.00  0.00     0.002 A 
HETATM   44  C   UNK N   1      24.770  20.440   2.772  0.00  0.00     0.029 A 
ENDBRANCH  37  39
BRANCH  36  45
HETATM   45  O   UNK N   1      20.504  18.868   3.398  0.00  0.00    -0.348 OA
HETATM   46  H   UNK N   1      20.125  19.725   3.421  0.00  0.00     0.219 HD
ENDBRANCH  36  45
ENDBRANCH  23  36
ENDBRANCH   2  23
TORSDOF 16
ENDMDL
MODEL 4
REMARK VINA RESULT:      -7.6      2.207      7.589
REMARK  16 active torsions:
REMARK  status: ('A' for Active; 'I' for Inactive)
REMARK    1  A    between atoms: C_13  and  C_8 
REMARK    2  A    between atoms: C_16  and  C_8 
REMARK    3  A    between atoms: C_20  and  C_13 
REMARK    4  A    between atoms: C_15  and  C_14 
REMARK    5  A    between atoms: C_18  and  C_14 
REMARK    6  A    between atoms: C_21  and  C_15 
REMARK    7  A    between atoms: N_28  and  C_16 
REMARK    8  A    between atoms: C_24  and  C_17 
REMARK    9  A    between atoms: N_29  and  C_17 
REMARK   10  A    between atoms: N_30  and  C_19 
REMARK   11  A    between atoms: C_22  and  C_20 
REMARK   12  A    between atoms: C_20  and  N_32 
REMARK   13  A    between atoms: C_23  and  C_21 
REMARK   14  A    between atoms: C_21  and  N_29 
REMARK   15  A    between atoms: O_34  and  C_22 
REMARK   16  A    between atoms: O_37  and  C_24 
REMARK       I    between atoms: N_27  and  C_25 
REMARK       I    between atoms: N_28  and  C_25 
ROOT
HETATM    1  C   UNK N   1      22.784  17.902   4.725  0.00  0.00     0.135 C 
HETATM    2  N   UNK N   1      22.589  16.639   4.489  0.00  0.00    -0.361 N 
ATOM      3  HN  UNK N   1      22.473  16.334   3.522  1.00  0.00     0.162 HD
HETATM    4  O   UNK N   1      23.047  18.331   5.976  0.00  0.00    -0.348 OA
HETATM    5  H   UNK N   1      23.306  18.604   6.835  0.00  0.00     0.219 HD
ENDROOT
BRANCH   1   6
HETATM    6  C   UNK N   1      22.587  18.903   3.612  0.00  0.00     0.152 C 
BRANCH   6   7
HETATM    7  C   UNK N   1      23.735  19.904   3.404  0.00  0.00     0.038 C 
BRANCH   7   8
HETATM    8  C   UNK N   1      25.098  19.323   3.050  0.00  0.00     0.041 C 
BRANCH   8   9
HETATM    9  C   UNK N   1      26.090  19.719   4.093  0.00  0.00    -0.058 A 
HETATM   10  C   UNK N   1      27.371  19.155   4.087  0.00  0.00     0.007 A 
HETATM   11  C   UNK N   1      28.297  19.507   5.077  0.00  0.00     0.001 A 
HETATM   12  C   UNK N   1      27.943  20.426   6.070  0.00  0.00     0.000 A 
HETATM   13  C   UNK N   1      26.666  20.995   6.074  0.00  0.00     0.001 A 
HETATM   14  C   UNK N   1      25.740  20.642   5.088  0.00  0.00     0.007 A 
ENDBRANCH   8   9
ENDBRANCH   7   8
ENDBRANCH   6   7
BRANCH   6  15
HETATM   15  N   UNK N   1      21.228  19.490   3.672  0.00  0.00    -0.397 N 
HETATM   16  H   UNK N   1      20.942  20.016   4.498  0.00  0.00     0.154 HD
BRANCH  15  17
HETATM   17  C   UNK N   1      20.284  19.322   2.553  0.00  0.00     0.172 C 
HETATM   18  C   UNK N   1      20.298  17.920   1.965  0.00  0.00     0.043 C 
BRANCH  17  19
HETATM   19  C   UNK N   1      20.687  20.267   1.456  0.00  0.00     0.162 C 
HETATM   20  O   UNK N   1      21.038  21.407   1.725  0.00  0.00    -0.648 OA
BRANCH  19  21
HETATM   21  O   UNK N   1      20.666  19.863   0.172  0.00  0.00    -0.775 OA
HETATM   22  H   UNK N   1      20.440  18.984  -0.060  0.00  0.00     0.167 HD
ENDBRANCH  19  21
ENDBRANCH  17  19
ENDBRANCH  15  17
ENDBRANCH   6  15
ENDBRANCH   1   6
BRANCH   2  23
HETATM   23  C   UNK N   1      22.527  15.637   5.548  0.00  0.00     0.158 C 
BRANCH  23  24
HETATM   24  C   UNK N   1      21.091  15.650   6.119  0.00  0.00     0.035 C 
BRANCH  24  25
HETATM   25  C   UNK N   1      20.967  16.021   7.596  0.00  0.00     0.023 C 
BRANCH  25  26
HETATM   26  C   UNK N   1      19.655  16.721   7.875  0.00  0.00     0.138 C 
BRANCH  26  27
HETATM   27  N   UNK N   1      19.892  17.842   8.751  0.00  0.00    -0.227 N 
HETATM   28  C   UNK N   1      18.874  18.372   9.590  0.00  0.00     0.665 C 
HETATM   29  N   UNK N   1      17.707  17.841   9.621  0.00  0.00    -0.235 N 
HETATM   30  N   UNK N   1      19.149  19.499  10.393  0.00  0.00    -0.235 N 
HETATM   31  H   UNK N   1      17.039  18.144  10.278  0.00  0.00     0.174 HD
HETATM   32  H   UNK N   1      17.478  17.125   8.985  0.00  0.00     0.174 HD
HETATM   33  H   UNK N   1      20.040  19.918  10.375  0.00  0.00     0.174 HD
HETATM   34  H   UNK N   1      18.446  19.870  10.974  0.00  0.00     0.174 HD
HETATM   35  H   UNK N   1      20.787  18.254   8.768  0.00  0.00     0.177 HD
ENDBRANCH  26  27
ENDBRANCH  25  26
ENDBRANCH  24  25
ENDBRANCH  23  24
BRANCH  23  36
HETATM   36  C   UNK N   1      22.808  14.214   5.055  0.00  0.00     0.139 C 
HETATM   37  N   UNK N   1      23.204  13.226   5.794  0.00  0.00    -0.339 N 
ATOM     38  HN  UNK N   1      23.339  12.353   5.283  1.00  0.00     0.168 HD
BRANCH  37  39
HETATM   39  C   UNK N   1      23.485  13.132   7.184  0.00  0.00     0.033 A 
HETATM   40  C   UNK N   1      24.711  13.502   7.751  0.00  0.00     0.029 A 
HETATM   41  C   UNK N   1      24.927  13.355   9.125  0.00  0.00     0.002 A 
HETATM   42  C   UNK N   1      23.915  12.845   9.943  0.00  0.00     0.000 A 
HETATM   43  C   UNK N   1      22.684  12.490   9.388  0.00  0.00     0.002 A 
HETATM   44  C   UNK N   1      22.473  12.636   8.016  0.00  0.00     0.029 A 
ENDBRANCH  37  39
BRANCH  36  45
HETATM   45  O   UNK N   1      22.626  13.954   3.742  0.00  0.00    -0.348 OA
HETATM   46  H   UNK N   1      22.349  14.599   3.121  0.00  0.00     0.219 HD
ENDBRANCH  36  45
ENDBRANCH  23  36
ENDBRANCH   2  23
TORSDOF 16
ENDMDL
MODEL 5
REMARK VINA RESULT:      -7.6      2.190      7.175
REMARK  16 active torsions:
REMARK  status: ('A' for Active; 'I' for Inactive)
REMARK    1  A    between atoms: C_13  and  C_8 
REMARK    2  A    between atoms: C_16  and  C_8 
REMARK    3  A    between atoms: C_20  and  C_13 
REMARK    4  A    between atoms: C_15  and  C_14 
REMARK    5  A    between atoms: C_18  and  C_14 
REMARK    6  A    between atoms: C_21  and  C_15 
REMARK    7  A    between atoms: N_28  and  C_16 
REMARK    8  A    between atoms: C_24  and  C_17 
REMARK    9  A    between atoms: N_29  and  C_17 
REMARK   10  A    between atoms: N_30  and  C_19 
REMARK   11  A    between atoms: C_22  and  C_20 
REMARK   12  A    between atoms: C_20  and  N_32 
REMARK   13  A    between atoms: C_23  and  C_21 
REMARK   14  A    between atoms: C_21  and  N_29 
REMARK   15  A    between atoms: O_34  and  C_22 
REMARK   16  A    between atoms: O_37  and  C_24 
REMARK       I    between atoms: N_27  and  C_25 
REMARK       I    between atoms: N_28  and  C_25 
ROOT
HETATM    1  C   UNK N   1      23.942  15.545   5.512  0.00  0.00     0.135 C 
HETATM    2  N   UNK N   1      22.722  15.963   5.344  0.00  0.00    -0.361 N 
ATOM      3  HN  UNK N   1      22.313  15.914   4.411  1.00  0.00     0.162 HD
HETATM    4  O   UNK N   1      24.483  15.494   6.747  0.00  0.00    -0.348 OA
HETATM    5  H   UNK N   1      24.818  15.389   7.616  0.00  0.00     0.219 HD
ENDROOT
BRANCH   1   6
HETATM    6  C   UNK N   1      24.794  15.240   4.304  0.00  0.00     0.152 C 
BRANCH   6   7
HETATM    7  C   UNK N   1      26.256  15.709   4.383  0.00  0.00     0.038 C 
BRANCH   7   8
HETATM    8  C   UNK N   1      26.741  16.635   3.276  0.00  0.00     0.041 C 
BRANCH   8   9
HETATM    9  C   UNK N   1      26.763  18.040   3.780  0.00  0.00    -0.058 A 
HETATM   10  C   UNK N   1      25.614  18.833   3.686  0.00  0.00     0.007 A 
HETATM   11  C   UNK N   1      25.637  20.158   4.138  0.00  0.00     0.001 A 
HETATM   12  C   UNK N   1      26.809  20.689   4.687  0.00  0.00     0.000 A 
HETATM   13  C   UNK N   1      27.956  19.896   4.789  0.00  0.00     0.001 A 
HETATM   14  C   UNK N   1      27.934  18.574   4.335  0.00  0.00     0.007 A 
ENDBRANCH   8   9
ENDBRANCH   7   8
ENDBRANCH   6   7
BRANCH   6  15
HETATM   15  N   UNK N   1      24.076  15.589   3.056  0.00  0.00    -0.397 N 
HETATM   16  H   UNK N   1      24.033  16.562   2.754  0.00  0.00     0.154 HD
BRANCH  15  17
HETATM   17  C   UNK N   1      23.422  14.546   2.246  0.00  0.00     0.172 C 
HETATM   18  C   UNK N   1      24.097  14.322   0.903  0.00  0.00     0.043 C 
BRANCH  17  19
HETATM   19  C   UNK N   1      22.012  14.987   1.966  0.00  0.00     0.162 C 
HETATM   20  O   UNK N   1      21.243  15.210   2.890  0.00  0.00    -0.648 OA
BRANCH  19  21
HETATM   21  O   UNK N   1      21.591  15.143   0.698  0.00  0.00    -0.775 OA
HETATM   22  H   UNK N   1      20.687  15.056   0.468  0.00  0.00     0.167 HD
ENDBRANCH  19  21
ENDBRANCH  17  19
ENDBRANCH  15  17
ENDBRANCH   6  15
ENDBRANCH   1   6
BRANCH   2  23
HETATM   23  C   UNK N   1      21.914  16.500   6.433  0.00  0.00     0.158 C 
BRANCH  23  24
HETATM   24  C   UNK N   1      21.704  18.006   6.159  0.00  0.00     0.035 C 
BRANCH  24  25
HETATM   25  C   UNK N   1      22.126  18.494   4.774  0.00  0.00     0.023 C 
BRANCH  25  26
HETATM   26  C   UNK N   1      20.960  19.115   4.035  0.00  0.00     0.138 C 
BRANCH  26  27
HETATM   27  N   UNK N   1      20.285  18.095   3.270  0.00  0.00    -0.227 N 
HETATM   28  C   UNK N   1      20.029  18.242   1.879  0.00  0.00     0.665 C 
HETATM   29  N   UNK N   1      20.427  19.283   1.244  0.00  0.00    -0.235 N 
HETATM   30  N   UNK N   1      19.324  17.232   1.190  0.00  0.00    -0.235 N 
HETATM   31  H   UNK N   1      20.340  19.333   0.265  0.00  0.00     0.174 HD
HETATM   32  H   UNK N   1      20.822  20.037   1.740  0.00  0.00     0.174 HD
HETATM   33  H   UNK N   1      19.011  16.429   1.666  0.00  0.00     0.174 HD
HETATM   34  H   UNK N   1      19.144  17.331   0.227  0.00  0.00     0.174 HD
HETATM   35  H   UNK N   1      19.992  17.272   3.725  0.00  0.00     0.177 HD
ENDBRANCH  26  27
ENDBRANCH  25  26
ENDBRANCH  24  25
ENDBRANCH  23  24
BRANCH  23  36
HETATM   36  C   UNK N   1      20.526  15.857   6.533  0.00  0.00     0.139 C 
HETATM   37  N   UNK N   1      20.240  14.782   7.197  0.00  0.00    -0.339 N 
ATOM     38  HN  UNK N   1      19.259  14.509   7.143  1.00  0.00     0.168 HD
BRANCH  37  39
HETATM   39  C   UNK N   1      21.040  13.914   7.989  0.00  0.00     0.033 A 
HETATM   40  C   UNK N   1      21.815  12.878   7.455  0.00  0.00     0.029 A 
HETATM   41  C   UNK N   1      22.556  12.043   8.299  0.00  0.00     0.002 A 
HETATM   42  C   UNK N   1      22.533  12.245   9.681  0.00  0.00     0.000 A 
HETATM   43  C   UNK N   1      21.777  13.287  10.220  0.00  0.00     0.002 A 
HETATM   44  C   UNK N   1      21.037  14.116   9.376  0.00  0.00     0.029 A 
ENDBRANCH  37  39
BRANCH  36  45
HETATM   45  O   UNK N   1      19.506  16.456   5.881  0.00  0.00    -0.348 OA
HETATM   46  H   UNK N   1      19.591  17.271   5.426  0.00  0.00     0.219 HD
ENDBRANCH  36  45
ENDBRANCH  23  36
ENDBRANCH   2  23
TORSDOF 16
ENDMDL
MODEL 6
REMARK VINA RESULT:      -7.5      8.968     12.990
REMARK  16 active torsions:
REMARK  status: ('A' for Active; 'I' for Inactive)
REMARK    1  A    between atoms: C_13  and  C_8 
REMARK    2  A    between atoms: C_16  and  C_8 
REMARK    3  A    between atoms: C_20  and  C_13 
REMARK    4  A    between atoms: C_15  and  C_14 
REMARK    5  A    between atoms: C_18  and  C_14 
REMARK    6  A    between atoms: C_21  and  C_15 
REMARK    7  A    between atoms: N_28  and  C_16 
REMARK    8  A    between atoms: C_24  and  C_17 
REMARK    9  A    between atoms: N_29  and  C_17 
REMARK   10  A    between atoms: N_30  and  C_19 
REMARK   11  A    between atoms: C_22  and  C_20 
REMARK   12  A    between atoms: C_20  and  N_32 
REMARK   13  A    between atoms: C_23  and  C_21 
REMARK   14  A    between atoms: C_21  and  N_29 
REMARK   15  A    between atoms: O_34  and  C_22 
REMARK   16  A    between atoms: O_37  and  C_24 
REMARK       I    between atoms: N_27  and  C_25 
REMARK       I    between atoms: N_28  and  C_25 
ROOT
HETATM    1  C   UNK N   1      32.198  16.527   8.927  0.00  0.00     0.135 C 
HETATM    2  N   UNK N   1      33.496  16.567   8.982  0.00  0.00    -0.361 N 
ATOM      3  HN  UNK N   1      33.986  17.282   8.444  1.00  0.00     0.162 HD
HETATM    4  O   UNK N   1      31.507  15.667   9.703  0.00  0.00    -0.348 OA
HETATM    5  H   UNK N   1      31.038  15.121  10.304  0.00  0.00     0.219 HD
ENDROOT
BRANCH   1   6
HETATM    6  C   UNK N   1      31.474  17.357   7.895  0.00  0.00     0.152 C 
BRANCH   6   7
HETATM    7  C   UNK N   1      30.030  17.751   8.250  0.00  0.00     0.038 C 
BRANCH   7   8
HETATM    8  C   UNK N   1      28.939  17.301   7.288  0.00  0.00     0.041 C 
BRANCH   8   9
HETATM    9  C   UNK N   1      28.389  18.490   6.572  0.00  0.00    -0.058 A 
HETATM   10  C   UNK N   1      28.428  18.543   5.174  0.00  0.00     0.007 A 
HETATM   11  C   UNK N   1      27.934  19.666   4.501  0.00  0.00     0.001 A 
HETATM   12  C   UNK N   1      27.398  20.736   5.225  0.00  0.00     0.000 A 
HETATM   13  C   UNK N   1      27.353  20.683   6.622  0.00  0.00     0.001 A 
HETATM   14  C   UNK N   1      27.849  19.563   7.295  0.00  0.00     0.007 A 
ENDBRANCH   8   9
ENDBRANCH   7   8
ENDBRANCH   6   7
BRANCH   6  15
HETATM   15  N   UNK N   1      31.669  16.793   6.540  0.00  0.00    -0.397 N 
HETATM   16  H   UNK N   1      31.184  15.935   6.276  0.00  0.00     0.154 HD
BRANCH  15  17
HETATM   17  C   UNK N   1      32.556  17.457   5.567  0.00  0.00     0.172 C 
HETATM   18  C   UNK N   1      31.954  17.547   4.174  0.00  0.00     0.043 C 
BRANCH  17  19
HETATM   19  C   UNK N   1      33.816  16.647   5.456  0.00  0.00     0.162 C 
HETATM   20  O   UNK N   1      34.757  16.866   6.206  0.00  0.00    -0.648 OA
BRANCH  19  21
HETATM   21  O   UNK N   1      33.916  15.673   4.531  0.00  0.00    -0.775 OA
HETATM   22  H   UNK N   1      33.519  14.834   4.660  0.00  0.00     0.167 HD
ENDBRANCH  19  21
ENDBRANCH  17  19
ENDBRANCH  15  17
ENDBRANCH   6  15
ENDBRANCH   1   6
BRANCH   2  23
HETATM   23  C   UNK N   1      34.283  15.632   9.778  0.00  0.00     0.158 C 
BRANCH  23  24
HETATM   24  C   UNK N   1      34.902  14.599   8.809  0.00  0.00     0.035 C 
BRANCH  24  25
HETATM   25  C   UNK N   1      34.042  13.373   8.509  0.00  0.00     0.023 C 
BRANCH  25  26
HETATM   26  C   UNK N   1      33.822  13.212   7.020  0.00  0.00     0.138 C 
BRANCH  26  27
HETATM   27  N   UNK N   1      32.452  13.535   6.704  0.00  0.00    -0.227 N 
HETATM   28  C   UNK N   1      31.841  13.123   5.488  0.00  0.00     0.665 C 
HETATM   29  N   UNK N   1      32.486  12.412   4.638  0.00  0.00    -0.235 N 
HETATM   30  N   UNK N   1      30.513  13.507   5.211  0.00  0.00    -0.235 N 
HETATM   31  H   UNK N   1      32.028  12.042   3.849  0.00  0.00     0.174 HD
HETATM   32  H   UNK N   1      33.445  12.234   4.776  0.00  0.00     0.174 HD
HETATM   33  H   UNK N   1      30.008  14.056   5.854  0.00  0.00     0.174 HD
HETATM   34  H   UNK N   1      30.087  13.225   4.369  0.00  0.00     0.174 HD
HETATM   35  H   UNK N   1      31.924  14.059   7.350  0.00  0.00     0.177 HD
ENDBRANCH  26  27
ENDBRANCH  25  26
ENDBRANCH  24  25
ENDBRANCH  23  24
BRANCH  23  36
HETATM   36  C   UNK N   1      35.439  16.299  10.532  0.00  0.00     0.139 C 
HETATM   37  N   UNK N   1      36.234  15.708  11.367  0.00  0.00    -0.339 N 
ATOM     38  HN  UNK N   1      36.943  16.320  11.770  1.00  0.00     0.168 HD
BRANCH  37  39
HETATM   39  C   UNK N   1      36.301  14.364  11.826  0.00  0.00     0.033 A 
HETATM   40  C   UNK N   1      37.225  13.429  11.344  0.00  0.00     0.029 A 
HETATM   41  C   UNK N   1      37.214  12.114  11.822  0.00  0.00     0.002 A 
HETATM   42  C   UNK N   1      36.283  11.728  12.790  0.00  0.00     0.000 A 
HETATM   43  C   UNK N   1      35.370  12.659  13.289  0.00  0.00     0.002 A 
HETATM   44  C   UNK N   1      35.383  13.970  12.808  0.00  0.00     0.029 A 
ENDBRANCH  37  39
BRANCH  36  45
HETATM   45  O   UNK N   1      35.661  17.613  10.310  0.00  0.00    -0.348 OA
HETATM   46  H   UNK N   1      36.039  18.187  10.947  0.00  0.00     0.219 HD
ENDBRANCH  36  45
ENDBRANCH  23  36
ENDBRANCH   2  23
TORSDOF 16
ENDMDL
MODEL 7
REMARK VINA RESULT:      -7.5      9.553     13.623
REMARK  16 active torsions:
REMARK  status: ('A' for Active; 'I' for Inactive)
REMARK    1  A    between atoms: C_13  and  C_8 
REMARK    2  A    between atoms: C_16  and  C_8 
REMARK    3  A    between atoms: C_20  and  C_13 
REMARK    4  A    between atoms: C_15  and  C_14 
REMARK    5  A    between atoms: C_18  and  C_14 
REMARK    6  A    between atoms: C_21  and  C_15 
REMARK    7  A    between atoms: N_28  and  C_16 
REMARK    8  A    between atoms: C_24  and  C_17 
REMARK    9  A    between atoms: N_29  and  C_17 
REMARK   10  A    between atoms: N_30  and  C_19 
REMARK   11  A    between atoms: C_22  and  C_20 
REMARK   12  A    between atoms: C_20  and  N_32 
REMARK   13  A    between atoms: C_23  and  C_21 
REMARK   14  A    between atoms: C_21  and  N_29 
REMARK   15  A    between atoms: O_34  and  C_22 
REMARK   16  A    between atoms: O_37  and  C_24 
REMARK       I    between atoms: N_27  and  C_25 
REMARK       I    between atoms: N_28  and  C_25 
ROOT
HETATM    1  C   UNK N   1      32.325  16.512   8.930  0.00  0.00     0.135 C 
HETATM    2  N   UNK N   1      33.624  16.524   8.973  0.00  0.00    -0.361 N 
ATOM      3  HN  UNK N   1      34.124  17.225   8.424  1.00  0.00     0.162 HD
HETATM    4  O   UNK N   1      31.623  15.673   9.720  0.00  0.00    -0.348 OA
HETATM    5  H   UNK N   1      31.148  15.143  10.330  0.00  0.00     0.219 HD
ENDROOT
BRANCH   1   6
HETATM    6  C   UNK N   1      31.609  17.349   7.898  0.00  0.00     0.152 C 
BRANCH   6   7
HETATM    7  C   UNK N   1      30.180  17.782   8.265  0.00  0.00     0.038 C 
BRANCH   7   8
HETATM    8  C   UNK N   1      29.060  17.299   7.352  0.00  0.00     0.041 C 
BRANCH   8   9
HETATM    9  C   UNK N   1      28.487  18.465   6.615  0.00  0.00    -0.058 A 
HETATM   10  C   UNK N   1      27.884  19.510   7.324  0.00  0.00     0.007 A 
HETATM   11  C   UNK N   1      27.326  20.594   6.636  0.00  0.00     0.001 A 
HETATM   12  C   UNK N   1      27.373  20.634   5.239  0.00  0.00     0.000 A 
HETATM   13  C   UNK N   1      27.981  19.593   4.529  0.00  0.00     0.001 A 
HETATM   14  C   UNK N   1      28.536  18.510   5.216  0.00  0.00     0.007 A 
ENDBRANCH   8   9
ENDBRANCH   7   8
ENDBRANCH   6   7
BRANCH   6  15
HETATM   15  N   UNK N   1      31.775  16.767   6.546  0.00  0.00    -0.397 N 
HETATM   16  H   UNK N   1      31.285  15.906   6.304  0.00  0.00     0.154 HD
BRANCH  15  17
HETATM   17  C   UNK N   1      32.641  17.417   5.546  0.00  0.00     0.172 C 
HETATM   18  C   UNK N   1      31.981  17.554   4.184  0.00  0.00     0.043 C 
BRANCH  17  19
HETATM   19  C   UNK N   1      33.865  16.565   5.363  0.00  0.00     0.162 C 
HETATM   20  O   UNK N   1      34.820  16.691   6.117  0.00  0.00    -0.648 OA
BRANCH  19  21
HETATM   21  O   UNK N   1      33.915  15.657   4.371  0.00  0.00    -0.775 OA
HETATM   22  H   UNK N   1      33.294  14.958   4.316  0.00  0.00     0.167 HD
ENDBRANCH  19  21
ENDBRANCH  17  19
ENDBRANCH  15  17
ENDBRANCH   6  15
ENDBRANCH   1   6
BRANCH   2  23
HETATM   23  C   UNK N   1      34.398  15.579   9.770  0.00  0.00     0.158 C 
BRANCH  23  24
HETATM   24  C   UNK N   1      35.108  14.615   8.792  0.00  0.00     0.035 C 
BRANCH  24  25
HETATM   25  C   UNK N   1      34.194  13.679   8.004  0.00  0.00     0.023 C 
BRANCH  25  26
HETATM   26  C   UNK N   1      34.867  13.198   6.737  0.00  0.00     0.138 C 
BRANCH  26  27
HETATM   27  N   UNK N   1      36.162  13.820   6.621  0.00  0.00    -0.227 N 
HETATM   28  C   UNK N   1      36.814  13.980   5.368  0.00  0.00     0.665 C 
HETATM   29  N   UNK N   1      36.247  13.603   4.281  0.00  0.00    -0.235 N 
HETATM   30  N   UNK N   1      38.101  14.554   5.320  0.00  0.00    -0.235 N 
HETATM   31  H   UNK N   1      36.654  13.809   3.409  0.00  0.00     0.174 HD
HETATM   32  H   UNK N   1      35.399  13.103   4.319  0.00  0.00     0.174 HD
HETATM   33  H   UNK N   1      38.549  14.845   6.147  0.00  0.00     0.174 HD
HETATM   34  H   UNK N   1      38.556  14.665   4.453  0.00  0.00     0.174 HD
HETATM   35  H   UNK N   1      36.611  14.144   7.437  0.00  0.00     0.177 HD
ENDBRANCH  26  27
ENDBRANCH  25  26
ENDBRANCH  24  25
ENDBRANCH  23  24
BRANCH  23  36
HETATM   36  C   UNK N   1      35.485  16.248  10.619  0.00  0.00     0.139 C 
HETATM   37  N   UNK N   1      36.230  15.650  11.494  0.00  0.00    -0.339 N 
ATOM     38  HN  UNK N   1      36.897  16.265  11.961  1.00  0.00     0.168 HD
BRANCH  37  39
HETATM   39  C   UNK N   1      36.291  14.297  11.924  0.00  0.00     0.033 A 
HETATM   40  C   UNK N   1      37.226  13.374  11.440  0.00  0.00     0.029 A 
HETATM   41  C   UNK N   1      37.208  12.049  11.888  0.00  0.00     0.002 A 
HETATM   42  C   UNK N   1      36.261  11.640  12.830  0.00  0.00     0.000 A 
HETATM   43  C   UNK N   1      35.337  12.559  13.332  0.00  0.00     0.002 A 
HETATM   44  C   UNK N   1      35.356  13.879  12.880  0.00  0.00     0.029 A 
ENDBRANCH  37  39
BRANCH  36  45
HETATM   45  O   UNK N   1      35.696  17.570  10.445  0.00  0.00    -0.348 OA
HETATM   46  H   UNK N   1      36.007  17.943   9.643  0.00  0.00     0.219 HD
ENDBRANCH  36  45
ENDBRANCH  23  36
ENDBRANCH   2  23
TORSDOF 16
ENDMDL
MODEL 8
REMARK VINA RESULT:      -7.4      2.132      2.742
REMARK  16 active torsions:
REMARK  status: ('A' for Active; 'I' for Inactive)
REMARK    1  A    between atoms: C_13  and  C_8 
REMARK    2  A    between atoms: C_16  and  C_8 
REMARK    3  A    between atoms: C_20  and  C_13 
REMARK    4  A    between atoms: C_15  and  C_14 
REMARK    5  A    between atoms: C_18  and  C_14 
REMARK    6  A    between atoms: C_21  and  C_15 
REMARK    7  A    between atoms: N_28  and  C_16 
REMARK    8  A    between atoms: C_24  and  C_17 
REMARK    9  A    between atoms: N_29  and  C_17 
REMARK   10  A    between atoms: N_30  and  C_19 
REMARK   11  A    between atoms: C_22  and  C_20 
REMARK   12  A    between atoms: C_20  and  N_32 
REMARK   13  A    between atoms: C_23  and  C_21 
REMARK   14  A    between atoms: C_21  and  N_29 
REMARK   15  A    between atoms: O_34  and  C_22 
REMARK   16  A    between atoms: O_37  and  C_24 
REMARK       I    between atoms: N_27  and  C_25 
REMARK       I    between atoms: N_28  and  C_25 
ROOT
HETATM    1  C   UNK N   1      21.300  15.459   6.868  0.00  0.00     0.135 C 
HETATM    2  N   UNK N   1      22.474  15.861   6.480  0.00  0.00    -0.361 N 
ATOM      3  HN  UNK N   1      23.091  16.298   7.165  1.00  0.00     0.162 HD
HETATM    4  O   UNK N   1      20.496  14.782   6.022  0.00  0.00    -0.348 OA
HETATM    5  H   UNK N   1      19.982  14.246   5.450  0.00  0.00     0.219 HD
ENDROOT
BRANCH   1   6
HETATM    6  C   UNK N   1      20.789  15.865   8.229  0.00  0.00     0.152 C 
BRANCH   6   7
HETATM    7  C   UNK N   1      20.809  14.766   9.304  0.00  0.00     0.038 C 
BRANCH   7   8
HETATM    8  C   UNK N   1      21.265  13.382   8.863  0.00  0.00     0.041 C 
BRANCH   8   9
HETATM    9  C   UNK N   1      22.376  12.922   9.749  0.00  0.00    -0.058 A 
HETATM   10  C   UNK N   1      23.706  13.094   9.346  0.00  0.00     0.007 A 
HETATM   11  C   UNK N   1      24.750  12.645  10.164  0.00  0.00     0.001 A 
HETATM   12  C   UNK N   1      24.465  12.027  11.385  0.00  0.00     0.000 A 
HETATM   13  C   UNK N   1      23.137  11.860  11.792  0.00  0.00     0.001 A 
HETATM   14  C   UNK N   1      22.095  12.306  10.975  0.00  0.00     0.007 A 
ENDBRANCH   8   9
ENDBRANCH   7   8
ENDBRANCH   6   7
BRANCH   6  15
HETATM   15  N   UNK N   1      19.520  16.619   8.107  0.00  0.00    -0.397 N 
HETATM   16  H   UNK N   1      19.071  16.706   7.195  0.00  0.00     0.154 HD
BRANCH  15  17
HETATM   17  C   UNK N   1      18.898  17.245   9.287  0.00  0.00     0.172 C 
HETATM   18  C   UNK N   1      17.392  17.401   9.157  0.00  0.00     0.043 C 
BRANCH  17  19
HETATM   19  C   UNK N   1      19.475  18.624   9.443  0.00  0.00     0.162 C 
HETATM   20  O   UNK N   1      19.274  19.262  10.467  0.00  0.00    -0.648 OA
BRANCH  19  21
HETATM   21  O   UNK N   1      20.218  19.162   8.459  0.00  0.00    -0.775 OA
HETATM   22  H   UNK N   1      20.958  18.710   8.101  0.00  0.00     0.167 HD
ENDBRANCH  19  21
ENDBRANCH  17  19
ENDBRANCH  15  17
ENDBRANCH   6  15
ENDBRANCH   1   6
BRANCH   2  23
HETATM   23  C   UNK N   1      22.946  15.716   5.108  0.00  0.00     0.158 C 
BRANCH  23  24
HETATM   24  C   UNK N   1      22.452  16.946   4.312  0.00  0.00     0.035 C 
BRANCH  24  25
HETATM   25  C   UNK N   1      21.530  16.645   3.132  0.00  0.00     0.023 C 
BRANCH  25  26
HETATM   26  C   UNK N   1      20.276  17.490   3.190  0.00  0.00     0.138 C 
BRANCH  26  27
HETATM   27  N   UNK N   1      20.640  18.866   3.419  0.00  0.00    -0.227 N 
HETATM   28  C   UNK N   1      20.696  19.818   2.364  0.00  0.00     0.665 C 
HETATM   29  N   UNK N   1      20.386  19.486   1.164  0.00  0.00    -0.235 N 
HETATM   30  N   UNK N   1      21.104  21.140   2.638  0.00  0.00    -0.235 N 
HETATM   31  H   UNK N   1      20.326  20.169   0.458  0.00  0.00     0.174 HD
HETATM   32  H   UNK N   1      20.208  18.542   0.948  0.00  0.00     0.174 HD
HETATM   33  H   UNK N   1      21.348  21.406   3.554  0.00  0.00     0.174 HD
HETATM   34  H   UNK N   1      21.146  21.801   1.910  0.00  0.00     0.174 HD
HETATM   35  H   UNK N   1      20.858  19.157   4.335  0.00  0.00     0.177 HD
ENDBRANCH  26  27
ENDBRANCH  25  26
ENDBRANCH  24  25
ENDBRANCH  23  24
BRANCH  23  36
HETATM   36  C   UNK N   1      24.474  15.683   4.991  0.00  0.00     0.139 C 
HETATM   37  N   UNK N   1      25.146  15.037   4.091  0.00  0.00    -0.339 N 
ATOM     38  HN  UNK N   1      26.157  15.135   4.178  1.00  0.00     0.168 HD
BRANCH  37  39
HETATM   39  C   UNK N   1      24.735  14.218   3.004  0.00  0.00     0.033 A 
HETATM   40  C   UNK N   1      24.591  12.829   3.096  0.00  0.00     0.029 A 
HETATM   41  C   UNK N   1      24.211  12.082   1.976  0.00  0.00     0.002 A 
HETATM   42  C   UNK N   1      23.964  12.722   0.759  0.00  0.00     0.000 A 
HETATM   43  C   UNK N   1      24.087  14.109   0.663  0.00  0.00     0.002 A 
HETATM   44  C   UNK N   1      24.470  14.850   1.782  0.00  0.00     0.029 A 
ENDBRANCH  37  39
BRANCH  36  45
HETATM   45  O   UNK N   1      25.190  16.386   5.894  0.00  0.00    -0.348 OA
HETATM   46  H   UNK N   1      24.821  16.755   6.673  0.00  0.00     0.219 HD
ENDBRANCH  36  45
ENDBRANCH  23  36
ENDBRANCH   2  23
TORSDOF 16
ENDMDL
MODEL 9
REMARK VINA RESULT:      -7.3     10.282     14.597
REMARK  16 active torsions:
REMARK  status: ('A' for Active; 'I' for Inactive)
REMARK    1  A    between atoms: C_13  and  C_8 
REMARK    2  A    between atoms: C_16  and  C_8 
REMARK    3  A    between atoms: C_20  and  C_13 
REMARK    4  A    between atoms: C_15  and  C_14 
REMARK    5  A    between atoms: C_18  and  C_14 
REMARK    6  A    between atoms: C_21  and  C_15 
REMARK    7  A    between atoms: N_28  and  C_16 
REMARK    8  A    between atoms: C_24  and  C_17 
REMARK    9  A    between atoms: N_29  and  C_17 
REMARK   10  A    between atoms: N_30  and  C_19 
REMARK   11  A    between atoms: C_22  and  C_20 
REMARK   12  A    between atoms: C_20  and  N_32 
REMARK   13  A    between atoms: C_23  and  C_21 
REMARK   14  A    between atoms: C_21  and  N_29 
REMARK   15  A    between atoms: O_34  and  C_22 
REMARK   16  A    between atoms: O_37  and  C_24 
REMARK       I    between atoms: N_27  and  C_25 
REMARK       I    between atoms: N_28  and  C_25 
ROOT
HETATM    1  C   UNK N   1      33.631  15.030  10.018  0.00  0.00     0.135 C 
HETATM    2  N   UNK N   1      34.818  14.502  10.074  0.00  0.00    -0.361 N 
ATOM      3  HN  UNK N   1      35.424  14.576   9.257  1.00  0.00     0.162 HD
HETATM    4  O   UNK N   1      32.838  15.047  11.109  0.00  0.00    -0.348 OA
HETATM    5  H   UNK N   1      32.331  15.122  11.894  0.00  0.00     0.219 HD
ENDROOT
BRANCH   1   6
HETATM    6  C   UNK N   1      33.094  15.509   8.691  0.00  0.00     0.152 C 
BRANCH   6   7
HETATM    7  C   UNK N   1      34.045  16.390   7.865  0.00  0.00     0.038 C 
BRANCH   7   8
HETATM    8  C   UNK N   1      34.714  15.739   6.662  0.00  0.00     0.041 C 
BRANCH   8   9
HETATM    9  C   UNK N   1      33.978  16.122   5.420  0.00  0.00    -0.058 A 
HETATM   10  C   UNK N   1      33.431  17.405   5.301  0.00  0.00     0.007 A 
HETATM   11  C   UNK N   1      32.721  17.760   4.148  0.00  0.00     0.001 A 
HETATM   12  C   UNK N   1      32.560  16.834   3.113  0.00  0.00     0.000 A 
HETATM   13  C   UNK N   1      33.111  15.554   3.227  0.00  0.00     0.001 A 
HETATM   14  C   UNK N   1      33.818  15.197   4.379  0.00  0.00     0.007 A 
ENDBRANCH   8   9
ENDBRANCH   7   8
ENDBRANCH   6   7
BRANCH   6  15
HETATM   15  N   UNK N   1      31.713  16.022   8.841  0.00  0.00    -0.397 N 
HETATM   16  H   UNK N   1      31.050  15.522   9.434  0.00  0.00     0.154 HD
BRANCH  15  17
HETATM   17  C   UNK N   1      31.284  17.248   8.143  0.00  0.00     0.172 C 
HETATM   18  C   UNK N   1      30.558  18.228   9.050  0.00  0.00     0.043 C 
BRANCH  17  19
HETATM   19  C   UNK N   1      30.325  16.855   7.055  0.00  0.00     0.162 C 
HETATM   20  O   UNK N   1      29.386  17.585   6.770  0.00  0.00    -0.648 OA
BRANCH  19  21
HETATM   21  O   UNK N   1      30.496  15.699   6.387  0.00  0.00    -0.775 OA
HETATM   22  H   UNK N   1      31.078  15.638   5.656  0.00  0.00     0.167 HD
ENDBRANCH  19  21
ENDBRANCH  17  19
ENDBRANCH  15  17
ENDBRANCH   6  15
ENDBRANCH   1   6
BRANCH   2  23
HETATM   23  C   UNK N   1      35.319  13.807  11.254  0.00  0.00     0.158 C 
BRANCH  23  24
HETATM   24  C   UNK N   1      36.086  12.556  10.768  0.00  0.00     0.035 C 
BRANCH  24  25
HETATM   25  C   UNK N   1      36.544  12.584   9.311  0.00  0.00     0.023 C 
BRANCH  25  26
HETATM   26  C   UNK N   1      35.871  11.493   8.506  0.00  0.00     0.138 C 
BRANCH  26  27
HETATM   27  N   UNK N   1      34.723  11.007   9.231  0.00  0.00    -0.227 N 
HETATM   28  C   UNK N   1      33.393  11.320   8.835  0.00  0.00     0.665 C 
HETATM   29  N   UNK N   1      33.169  12.023   7.787  0.00  0.00    -0.235 N 
HETATM   30  N   UNK N   1      32.309  10.855   9.609  0.00  0.00    -0.235 N 
HETATM   31  H   UNK N   1      32.250  12.149   7.459  0.00  0.00     0.174 HD
HETATM   32  H   UNK N   1      33.922  12.440   7.307  0.00  0.00     0.174 HD
HETATM   33  H   UNK N   1      32.468  10.317  10.418  0.00  0.00     0.174 HD
HETATM   34  H   UNK N   1      31.387  11.071   9.338  0.00  0.00     0.174 HD
HETATM   35  H   UNK N   1      34.864  10.443  10.026  0.00  0.00     0.177 HD
ENDBRANCH  26  27
ENDBRANCH  25  26
ENDBRANCH  24  25
ENDBRANCH  23  24
BRANCH  23  36
HETATM   36  C   UNK N   1      36.296  14.646  12.085  0.00  0.00     0.139 C 
HETATM   37  N   UNK N   1      36.718  14.352  13.274  0.00  0.00    -0.339 N 
ATOM     38  HN  UNK N   1      37.366  15.035  13.666  1.00  0.00     0.168 HD
BRANCH  37  39
HETATM   39  C   UNK N   1      36.448  13.252  14.133  0.00  0.00     0.033 A 
HETATM   40  C   UNK N   1      37.264  12.118  14.216  0.00  0.00     0.029 A 
HETATM   41  C   UNK N   1      36.919  11.060  15.064  0.00  0.00     0.002 A 
HETATM   42  C   UNK N   1      35.760  11.134  15.841  0.00  0.00     0.000 A 
HETATM   43  C   UNK N   1      34.951  12.269  15.778  0.00  0.00     0.002 A 
HETATM   44  C   UNK N   1      35.296  13.322  14.929  0.00  0.00     0.029 A 
ENDBRANCH  37  39
BRANCH  36  45
HETATM   45  O   UNK N   1      36.767  15.788  11.539  0.00  0.00    -0.348 OA
HETATM   46  H   UNK N   1      37.456  16.296  11.920  0.00  0.00     0.219 HD
ENDBRANCH  36  45
ENDBRANCH  23  36
ENDBRANCH   2  23
TORSDOF 16
ENDMDL
