MODEL 1
REMARK VINA RESULT:      -8.8      0.000      0.000
REMARK  4 active torsions:
REMARK  status: ('A' for Active; 'I' for Inactive)
REMARK    1  A    between atoms: C_13  and  C_15 
REMARK    2  A    between atoms: C_15  and  C_17 
REMARK    3  A    between atoms: C_24  and  C_27 
REMARK    4  A    between atoms: C_27  and  O_28 
ROOT
HETATM    1  C   UNK N   1      34.169  16.060   7.835  0.00  0.00     0.192 C 
HETATM    2  O   UNK N   1      35.040  16.217   6.992  0.00  0.00    -0.287 OA
ENDROOT
BRANCH   1   3
HETATM    3  C   UNK N   1      32.725  16.203   7.474  0.00  0.00     0.015 A 
HETATM    4  C   UNK N   1      32.309  15.770   6.210  0.00  0.00     0.016 A 
HETATM    5  C   UNK N   1      31.032  15.994   5.748  0.00  0.00     0.009 A 
HETATM    6  C   UNK N   1      30.110  16.677   6.535  0.00  0.00    -0.043 A 
HETATM    7  C   UNK N   1      30.487  17.104   7.841  0.00  0.00    -0.042 A 
HETATM    8  C   UNK N   1      28.742  16.956   5.942  0.00  0.00    -0.020 C 
HETATM    9  C   UNK N   1      29.539  17.929   8.694  0.00  0.00    -0.020 C 
HETATM   10  C   UNK N   1      31.797  16.834   8.310  0.00  0.00     0.024 A 
HETATM   11  C   UNK N   1      28.419  18.549   7.854  0.00  0.00     0.015 C 
HETATM   12  C   UNK N   1      28.958  17.066   9.801  0.00  0.00     0.020 C 
HETATM   13  C   UNK N   1      30.274  19.099   9.328  0.00  0.00     0.020 C 
HETATM   14  C   UNK N   1      27.762  17.508   6.971  0.00  0.00     0.015 C 
HETATM   15  C   UNK N   1      28.127  15.677   5.396  0.00  0.00     0.020 C 
HETATM   16  C   UNK N   1      28.898  17.940   4.790  0.00  0.00     0.020 C 
ENDBRANCH   1   3
BRANCH   1  17
HETATM   17  C   UNK N   1      34.525  15.708   9.243  0.00  0.00     0.016 A 
HETATM   18  C   UNK N   1      34.400  14.408   9.761  0.00  0.00     0.028 A 
HETATM   19  C   UNK N   1      34.911  14.128  11.045  0.00  0.00    -0.025 A 
HETATM   20  C   UNK N   1      35.509  15.163  11.805  0.00  0.00    -0.025 A 
HETATM   21  C   UNK N   1      34.899  12.828  11.557  0.00  0.00     0.013 A 
HETATM   22  C   UNK N   1      35.551  16.453  11.321  0.00  0.00     0.013 A 
HETATM   23  C   UNK N   1      36.110  14.889  13.024  0.00  0.00     0.030 A 
HETATM   24  C   UNK N   1      35.067  16.716  10.058  0.00  0.00     0.016 A 
HETATM   25  C   UNK N   1      36.141  13.589  13.516  0.00  0.00     0.038 A 
HETATM   26  C   UNK N   1      35.517  12.557  12.790  0.00  0.00     0.019 A 
BRANCH  25  27
HETATM   27  C   UNK N   1      36.880  13.315  14.761  0.00  0.00     0.176 C 
HETATM   28  O   UNK N   1      36.945  12.183  15.207  0.00  0.00    -0.646 OA
BRANCH  27  29
HETATM   29  O   UNK N   1      37.531  14.316  15.392  0.00  0.00    -0.773 OA
HETATM   30  H   UNK N   1      37.812  15.110  14.980  0.00  0.00     0.167 HD
ENDBRANCH  27  29
ENDBRANCH  25  27
ENDBRANCH   1  17
TORSDOF 4
ENDMDL
MODEL 2
REMARK VINA RESULT:      -8.8      6.473     12.591
REMARK  4 active torsions:
REMARK  status: ('A' for Active; 'I' for Inactive)
REMARK    1  A    between atoms: C_13  and  C_15 
REMARK    2  A    between atoms: C_15  and  C_17 
REMARK    3  A    between atoms: C_24  and  C_27 
REMARK    4  A    between atoms: C_27  and  O_28 
ROOT
HETATM    1  C   UNK N   1      35.419   9.363  17.208  0.00  0.00     0.192 C 
HETATM    2  O   UNK N   1      36.156   8.426  16.936  0.00  0.00    -0.287 OA
ENDROOT
BRANCH   1   3
HETATM    3  C   UNK N   1      34.700   9.411  18.518  0.00  0.00     0.015 A 
HETATM    4  C   UNK N   1      35.173  10.282  19.506  0.00  0.00     0.016 A 
HETATM    5  C   UNK N   1      34.658  10.283  20.782  0.00  0.00     0.009 A 
HETATM    6  C   UNK N   1      33.643   9.398  21.131  0.00  0.00    -0.043 A 
HETATM    7  C   UNK N   1      33.112   8.519  20.143  0.00  0.00    -0.042 A 
HETATM    8  C   UNK N   1      33.166   9.398  22.571  0.00  0.00    -0.020 C 
HETATM    9  C   UNK N   1      32.068   7.478  20.507  0.00  0.00    -0.020 C 
HETATM   10  C   UNK N   1      33.635   8.556  18.826  0.00  0.00     0.024 A 
HETATM   11  C   UNK N   1      32.011   7.240  22.019  0.00  0.00     0.015 C 
HETATM   12  C   UNK N   1      30.708   7.908  19.986  0.00  0.00     0.020 C 
HETATM   13  C   UNK N   1      32.418   6.133  19.891  0.00  0.00     0.020 C 
HETATM   14  C   UNK N   1      31.916   8.550  22.773  0.00  0.00     0.015 C 
HETATM   15  C   UNK N   1      32.813  10.809  23.015  0.00  0.00     0.020 C 
HETATM   16  C   UNK N   1      34.292   8.887  23.461  0.00  0.00     0.020 C 
ENDBRANCH   1   3
BRANCH   1  17
HETATM   17  C   UNK N   1      35.229  10.489  16.244  0.00  0.00     0.016 A 
HETATM   18  C   UNK N   1      35.985  11.673  16.294  0.00  0.00     0.028 A 
HETATM   19  C   UNK N   1      35.858  12.613  15.251  0.00  0.00    -0.025 A 
HETATM   20  C   UNK N   1      34.949  12.371  14.192  0.00  0.00    -0.025 A 
HETATM   21  C   UNK N   1      36.663  13.755  15.208  0.00  0.00     0.013 A 
HETATM   22  C   UNK N   1      34.152  11.246  14.197  0.00  0.00     0.013 A 
HETATM   23  C   UNK N   1      34.883  13.229  13.105  0.00  0.00     0.030 A 
HETATM   24  C   UNK N   1      34.295  10.321  15.209  0.00  0.00     0.016 A 
HETATM   25  C   UNK N   1      35.715  14.341  13.037  0.00  0.00     0.038 A 
HETATM   26  C   UNK N   1      36.595  14.616  14.100  0.00  0.00     0.019 A 
BRANCH  25  27
HETATM   27  C   UNK N   1      35.695  15.173  11.820  0.00  0.00     0.176 C 
HETATM   28  O   UNK N   1      34.652  15.371  11.223  0.00  0.00    -0.646 OA
BRANCH  27  29
HETATM   29  O   UNK N   1      36.832  15.758  11.385  0.00  0.00    -0.773 OA
HETATM   30  H   UNK N   1      37.207  16.532  11.757  0.00  0.00     0.167 HD
ENDBRANCH  27  29
ENDBRANCH  25  27
ENDBRANCH   1  17
TORSDOF 4
ENDMDL
MODEL 3
REMARK VINA RESULT:      -8.7      5.379     11.253
REMARK  4 active torsions:
REMARK  status: ('A' for Active; 'I' for Inactive)
REMARK    1  A    between atoms: C_13  and  C_15 
REMARK    2  A    between atoms: C_15  and  C_17 
REMARK    3  A    between atoms: C_24  and  C_27 
REMARK    4  A    between atoms: C_27  and  O_28 
ROOT
HETATM    1  C   UNK N   1      28.281  18.469   6.376  0.00  0.00     0.192 C 
HETATM    2  O   UNK N   1      28.128  18.625   7.579  0.00  0.00    -0.287 OA
ENDROOT
BRANCH   1   3
HETATM    3  C   UNK N   1      29.538  17.861   5.841  0.00  0.00     0.015 A 
HETATM    4  C   UNK N   1      29.550  17.418   4.514  0.00  0.00     0.016 A 
HETATM    5  C   UNK N   1      30.615  16.721   3.989  0.00  0.00     0.009 A 
HETATM    6  C   UNK N   1      31.721  16.427   4.780  0.00  0.00    -0.043 A 
HETATM    7  C   UNK N   1      31.759  16.891   6.127  0.00  0.00    -0.042 A 
HETATM    8  C   UNK N   1      32.830  15.595   4.167  0.00  0.00    -0.020 C 
HETATM    9  C   UNK N   1      32.907  16.515   7.049  0.00  0.00    -0.020 C 
HETATM   10  C   UNK N   1      30.666  17.635   6.638  0.00  0.00     0.024 A 
HETATM   11  C   UNK N   1      33.697  15.320   6.506  0.00  0.00     0.015 C 
HETATM   12  C   UNK N   1      33.821  17.710   7.248  0.00  0.00     0.020 C 
HETATM   13  C   UNK N   1      32.380  16.077   8.406  0.00  0.00     0.020 C 
HETATM   14  C   UNK N   1      34.069  15.529   5.052  0.00  0.00     0.015 C 
HETATM   15  C   UNK N   1      33.273  16.193   2.841  0.00  0.00     0.020 C 
HETATM   16  C   UNK N   1      32.303  14.191   3.903  0.00  0.00     0.020 C 
ENDBRANCH   1   3
BRANCH   1  17
HETATM   17  C   UNK N   1      27.211  18.870   5.414  0.00  0.00     0.016 A 
HETATM   18  C   UNK N   1      25.988  18.187   5.302  0.00  0.00     0.028 A 
HETATM   19  C   UNK N   1      24.972  18.727   4.488  0.00  0.00    -0.025 A 
HETATM   20  C   UNK N   1      25.207  19.926   3.771  0.00  0.00    -0.025 A 
HETATM   21  C   UNK N   1      23.706  18.136   4.428  0.00  0.00     0.013 A 
HETATM   22  C   UNK N   1      26.439  20.542   3.821  0.00  0.00     0.013 A 
HETATM   23  C   UNK N   1      24.189  20.530   3.048  0.00  0.00     0.030 A 
HETATM   24  C   UNK N   1      27.422  20.019   4.633  0.00  0.00     0.016 A 
HETATM   25  C   UNK N   1      22.917  19.969   3.023  0.00  0.00     0.038 A 
HETATM   26  C   UNK N   1      22.678  18.759   3.700  0.00  0.00     0.019 A 
BRANCH  25  27
HETATM   27  C   UNK N   1      21.833  20.693   2.335  0.00  0.00     0.176 C 
HETATM   28  O   UNK N   1      21.731  20.648   1.121  0.00  0.00    -0.646 OA
BRANCH  27  29
HETATM   29  O   UNK N   1      20.916  21.375   3.054  0.00  0.00    -0.773 OA
HETATM   30  H   UNK N   1      20.092  21.026   3.333  0.00  0.00     0.167 HD
ENDBRANCH  27  29
ENDBRANCH  25  27
ENDBRANCH   1  17
TORSDOF 4
ENDMDL
MODEL 4
REMARK VINA RESULT:      -8.6      0.832      2.395
REMARK  4 active torsions:
REMARK  status: ('A' for Active; 'I' for Inactive)
REMARK    1  A    between atoms: C_13  and  C_15 
REMARK    2  A    between atoms: C_15  and  C_17 
REMARK    3  A    between atoms: C_24  and  C_27 
REMARK    4  A    between atoms: C_27  and  O_28 
ROOT
HETATM    1  C   UNK N   1      34.053  16.528   7.881  0.00  0.00     0.192 C 
HETATM    2  O   UNK N   1      34.880  16.629   6.986  0.00  0.00    -0.287 OA
ENDROOT
BRANCH   1   3
HETATM    3  C   UNK N   1      32.628  16.914   7.648  0.00  0.00     0.015 A 
HETATM    4  C   UNK N   1      32.012  17.772   8.567  0.00  0.00     0.016 A 
HETATM    5  C   UNK N   1      30.667  18.061   8.503  0.00  0.00     0.009 A 
HETATM    6  C   UNK N   1      29.872  17.492   7.514  0.00  0.00    -0.043 A 
HETATM    7  C   UNK N   1      30.470  16.640   6.540  0.00  0.00    -0.042 A 
HETATM    8  C   UNK N   1      28.386  17.793   7.540  0.00  0.00    -0.020 C 
HETATM    9  C   UNK N   1      29.621  15.930   5.500  0.00  0.00    -0.020 C 
HETATM   10  C   UNK N   1      31.862  16.381   6.605  0.00  0.00     0.024 A 
HETATM   11  C   UNK N   1      28.142  15.913   5.896  0.00  0.00     0.015 C 
HETATM   12  C   UNK N   1      29.801  16.595   4.147  0.00  0.00     0.020 C 
HETATM   13  C   UNK N   1      30.033  14.472   5.381  0.00  0.00     0.020 C 
HETATM   14  C   UNK N   1      27.668  17.296   6.290  0.00  0.00     0.015 C 
HETATM   15  C   UNK N   1      28.147  19.293   7.613  0.00  0.00     0.020 C 
HETATM   16  C   UNK N   1      27.777  17.153   8.781  0.00  0.00     0.020 C 
ENDBRANCH   1   3
BRANCH   1  17
HETATM   17  C   UNK N   1      34.445  16.005   9.225  0.00  0.00     0.016 A 
HETATM   18  C   UNK N   1      34.260  14.665   9.607  0.00  0.00     0.028 A 
HETATM   19  C   UNK N   1      34.805  14.217  10.827  0.00  0.00    -0.025 A 
HETATM   20  C   UNK N   1      35.497  15.126  11.665  0.00  0.00    -0.025 A 
HETATM   21  C   UNK N   1      34.733  12.871  11.198  0.00  0.00     0.013 A 
HETATM   22  C   UNK N   1      35.599  16.457  11.320  0.00  0.00     0.013 A 
HETATM   23  C   UNK N   1      36.130  14.687  12.817  0.00  0.00     0.030 A 
HETATM   24  C   UNK N   1      35.081  16.885  10.116  0.00  0.00     0.016 A 
HETATM   25  C   UNK N   1      36.099  13.341  13.165  0.00  0.00     0.038 A 
HETATM   26  C   UNK N   1      35.383  12.432  12.364  0.00  0.00     0.019 A 
BRANCH  25  27
HETATM   27  C   UNK N   1      36.871  12.890  14.338  0.00  0.00     0.176 C 
HETATM   28  O   UNK N   1      36.967  11.704  14.597  0.00  0.00    -0.646 OA
BRANCH  27  29
HETATM   29  O   UNK N   1      37.515  13.794  15.107  0.00  0.00    -0.773 OA
HETATM   30  H   UNK N   1      37.859  13.616  15.961  0.00  0.00     0.167 HD
ENDBRANCH  27  29
ENDBRANCH  25  27
ENDBRANCH   1  17
TORSDOF 4
ENDMDL
MODEL 5
REMARK VINA RESULT:      -8.6     16.559     19.856
REMARK  4 active torsions:
REMARK  status: ('A' for Active; 'I' for Inactive)
REMARK    1  A    between atoms: C_13  and  C_15 
REMARK    2  A    between atoms: C_15  and  C_17 
REMARK    3  A    between atoms: C_24  and  C_27 
REMARK    4  A    between atoms: C_27  and  O_28 
ROOT
HETATM    1  C   UNK N   1      25.819  23.163  -6.744  0.00  0.00     0.192 C 
HETATM    2  O   UNK N   1      24.727  22.615  -6.708  0.00  0.00    -0.287 OA
ENDROOT
BRANCH   1   3
HETATM    3  C   UNK N   1      27.044  22.395  -7.124  0.00  0.00     0.015 A 
HETATM    4  C   UNK N   1      26.968  21.513  -8.208  0.00  0.00     0.016 A 
HETATM    5  C   UNK N   1      28.005  20.667  -8.532  0.00  0.00     0.009 A 
HETATM    6  C   UNK N   1      29.170  20.661  -7.773  0.00  0.00    -0.043 A 
HETATM    7  C   UNK N   1      29.298  21.568  -6.681  0.00  0.00    -0.042 A 
HETATM    8  C   UNK N   1      30.247  19.657  -8.136  0.00  0.00    -0.020 C 
HETATM    9  C   UNK N   1      30.516  21.529  -5.774  0.00  0.00    -0.020 C 
HETATM   10  C   UNK N   1      28.231  22.453  -6.384  0.00  0.00     0.024 A 
HETATM   11  C   UNK N   1      31.286  20.213  -5.920  0.00  0.00     0.015 C 
HETATM   12  C   UNK N   1      31.420  22.711  -6.076  0.00  0.00     0.020 C 
HETATM   13  C   UNK N   1      30.096  21.601  -4.315  0.00  0.00     0.020 C 
HETATM   14  C   UNK N   1      31.548  19.895  -7.378  0.00  0.00     0.015 C 
HETATM   15  C   UNK N   1      30.581  19.747  -9.616  0.00  0.00     0.020 C 
HETATM   16  C   UNK N   1      29.727  18.254  -7.850  0.00  0.00     0.020 C 
ENDBRANCH   1   3
BRANCH   1  17
HETATM   17  C   UNK N   1      25.954  24.616  -6.423  0.00  0.00     0.016 A 
HETATM   18  C   UNK N   1      25.738  25.138  -5.136  0.00  0.00     0.028 A 
HETATM   19  C   UNK N   1      26.045  26.490  -4.883  0.00  0.00    -0.025 A 
HETATM   20  C   UNK N   1      26.530  27.310  -5.931  0.00  0.00    -0.025 A 
HETATM   21  C   UNK N   1      25.941  27.024  -3.595  0.00  0.00     0.013 A 
HETATM   22  C   UNK N   1      26.658  26.810  -7.209  0.00  0.00     0.013 A 
HETATM   23  C   UNK N   1      26.936  28.612  -5.682  0.00  0.00     0.030 A 
HETATM   24  C   UNK N   1      26.375  25.482  -7.446  0.00  0.00     0.016 A 
HETATM   25  C   UNK N   1      26.878  29.131  -4.393  0.00  0.00     0.038 A 
HETATM   26  C   UNK N   1      26.362  28.342  -3.349  0.00  0.00     0.019 A 
BRANCH  25  27
HETATM   27  C   UNK N   1      27.417  30.481  -4.144  0.00  0.00     0.176 C 
HETATM   28  O   UNK N   1      27.172  31.062  -3.101  0.00  0.00    -0.646 OA
BRANCH  27  29
HETATM   29  O   UNK N   1      28.225  31.062  -5.056  0.00  0.00    -0.773 OA
HETATM   30  H   UNK N   1      28.887  30.612  -5.543  0.00  0.00     0.167 HD
ENDBRANCH  27  29
ENDBRANCH  25  27
ENDBRANCH   1  17
TORSDOF 4
ENDMDL
MODEL 6
REMARK VINA RESULT:      -8.6      6.386     12.383
REMARK  4 active torsions:
REMARK  status: ('A' for Active; 'I' for Inactive)
REMARK    1  A    between atoms: C_13  and  C_15 
REMARK    2  A    between atoms: C_15  and  C_17 
REMARK    3  A    between atoms: C_24  and  C_27 
REMARK    4  A    between atoms: C_27  and  O_28 
ROOT
HETATM    1  C   UNK N   1      26.957  19.576   4.214  0.00  0.00     0.192 C 
HETATM    2  O   UNK N   1      27.519  20.294   3.399  0.00  0.00    -0.287 OA
ENDROOT
BRANCH   1   3
HETATM    3  C   UNK N   1      27.725  18.940   5.327  0.00  0.00     0.015 A 
HETATM    4  C   UNK N   1      27.498  19.387   6.633  0.00  0.00     0.016 A 
HETATM    5  C   UNK N   1      28.263  18.955   7.693  0.00  0.00     0.009 A 
HETATM    6  C   UNK N   1      29.303  18.055   7.488  0.00  0.00    -0.043 A 
HETATM    7  C   UNK N   1      29.544  17.551   6.177  0.00  0.00    -0.042 A 
HETATM    8  C   UNK N   1      30.155  17.672   8.683  0.00  0.00    -0.020 C 
HETATM    9  C   UNK N   1      30.725  16.638   5.897  0.00  0.00    -0.020 C 
HETATM   10  C   UNK N   1      28.724  17.985   5.105  0.00  0.00     0.024 A 
HETATM   11  C   UNK N   1      31.764  16.700   7.021  0.00  0.00     0.015 C 
HETATM   12  C   UNK N   1      30.239  15.213   5.701  0.00  0.00     0.020 C 
HETATM   13  C   UNK N   1      31.453  17.078   4.638  0.00  0.00     0.020 C 
HETATM   14  C   UNK N   1      31.111  16.525   8.376  0.00  0.00     0.015 C 
HETATM   15  C   UNK N   1      29.277  17.212   9.837  0.00  0.00     0.020 C 
HETATM   16  C   UNK N   1      30.939  18.895   9.140  0.00  0.00     0.020 C 
ENDBRANCH   1   3
BRANCH   1  17
HETATM   17  C   UNK N   1      25.486  19.329   4.124  0.00  0.00     0.016 A 
HETATM   18  C   UNK N   1      24.598  20.217   3.493  0.00  0.00     0.028 A 
HETATM   19  C   UNK N   1      23.255  19.831   3.308  0.00  0.00    -0.025 A 
HETATM   20  C   UNK N   1      22.811  18.575   3.789  0.00  0.00    -0.025 A 
HETATM   21  C   UNK N   1      22.364  20.640   2.597  0.00  0.00     0.013 A 
HETATM   22  C   UNK N   1      23.670  17.748   4.482  0.00  0.00     0.013 A 
HETATM   23  C   UNK N   1      21.524  18.131   3.529  0.00  0.00     0.030 A 
HETATM   24  C   UNK N   1      24.986  18.122   4.642  0.00  0.00     0.016 A 
HETATM   25  C   UNK N   1      20.649  18.913   2.782  0.00  0.00     0.038 A 
HETATM   26  C   UNK N   1      21.063  20.180   2.330  0.00  0.00     0.019 A 
BRANCH  25  27
HETATM   27  C   UNK N   1      19.326  18.366   2.432  0.00  0.00     0.176 C 
HETATM   28  O   UNK N   1      18.317  19.028   2.602  0.00  0.00    -0.646 OA
BRANCH  27  29
HETATM   29  O   UNK N   1      19.231  17.139   1.877  0.00  0.00    -0.773 OA
HETATM   30  H   UNK N   1      19.847  16.445   2.011  0.00  0.00     0.167 HD
ENDBRANCH  27  29
ENDBRANCH  25  27
ENDBRANCH   1  17
TORSDOF 4
ENDMDL
MODEL 7
REMARK VINA RESULT:      -8.5     14.268     16.860
REMARK  4 active torsions:
REMARK  status: ('A' for Active; 'I' for Inactive)
REMARK    1  A    between atoms: C_13  and  C_15 
REMARK    2  A    between atoms: C_15  and  C_17 
REMARK    3  A    between atoms: C_24  and  C_27 
REMARK    4  A    between atoms: C_27  and  O_28 
ROOT
HETATM    1  C   UNK N   1      29.102  23.177  -2.649  0.00  0.00     0.192 C 
HETATM    2  O   UNK N   1      28.790  22.886  -1.504  0.00  0.00    -0.287 OA
ENDROOT
BRANCH   1   3
HETATM    3  C   UNK N   1      28.434  24.314  -3.355  0.00  0.00     0.015 A 
HETATM    4  C   UNK N   1      27.045  24.272  -3.518  0.00  0.00     0.016 A 
HETATM    5  C   UNK N   1      26.373  25.205  -4.276  0.00  0.00     0.009 A 
HETATM    6  C   UNK N   1      27.071  26.223  -4.917  0.00  0.00    -0.043 A 
HETATM    7  C   UNK N   1      28.483  26.318  -4.747  0.00  0.00    -0.042 A 
HETATM    8  C   UNK N   1      26.284  27.177  -5.796  0.00  0.00    -0.020 C 
HETATM    9  C   UNK N   1      29.290  27.360  -5.501  0.00  0.00    -0.020 C 
HETATM   10  C   UNK N   1      29.150  25.366  -3.936  0.00  0.00     0.024 A 
HETATM   11  C   UNK N   1      28.505  27.933  -6.685  0.00  0.00     0.015 C 
HETATM   12  C   UNK N   1      29.709  28.471  -4.555  0.00  0.00     0.020 C 
HETATM   13  C   UNK N   1      30.540  26.736  -6.099  0.00  0.00     0.020 C 
HETATM   14  C   UNK N   1      27.117  28.366  -6.260  0.00  0.00     0.015 C 
HETATM   15  C   UNK N   1      25.098  27.746  -5.034  0.00  0.00     0.020 C 
HETATM   16  C   UNK N   1      25.753  26.410  -7.000  0.00  0.00     0.020 C 
ENDBRANCH   1   3
BRANCH   1  17
HETATM   17  C   UNK N   1      30.166  22.413  -3.367  0.00  0.00     0.016 A 
HETATM   18  C   UNK N   1      31.458  22.226  -2.844  0.00  0.00     0.028 A 
HETATM   19  C   UNK N   1      32.348  21.357  -3.507  0.00  0.00    -0.025 A 
HETATM   20  C   UNK N   1      31.944  20.714  -4.703  0.00  0.00    -0.025 A 
HETATM   21  C   UNK N   1      33.604  21.064  -2.968  0.00  0.00     0.013 A 
HETATM   22  C   UNK N   1      30.706  20.970  -5.252  0.00  0.00     0.013 A 
HETATM   23  C   UNK N   1      32.763  19.777  -5.314  0.00  0.00     0.030 A 
HETATM   24  C   UNK N   1      29.833  21.806  -4.589  0.00  0.00     0.016 A 
HETATM   25  C   UNK N   1      33.994  19.449  -4.756  0.00  0.00     0.038 A 
HETATM   26  C   UNK N   1      34.424  20.107  -3.589  0.00  0.00     0.019 A 
BRANCH  25  27
HETATM   27  C   UNK N   1      34.791  18.373  -5.371  0.00  0.00     0.176 C 
HETATM   28  O   UNK N   1      34.641  18.085  -6.546  0.00  0.00    -0.646 OA
BRANCH  27  29
HETATM   29  O   UNK N   1      35.728  17.728  -4.643  0.00  0.00    -0.773 OA
HETATM   30  H   UNK N   1      36.639  17.694  -4.859  0.00  0.00     0.167 HD
ENDBRANCH  27  29
ENDBRANCH  25  27
ENDBRANCH   1  17
TORSDOF 4
ENDMDL
MODEL 8
REMARK VINA RESULT:      -8.5      5.624     11.496
REMARK  4 active torsions:
REMARK  status: ('A' for Active; 'I' for Inactive)
REMARK    1  A    between atoms: C_13  and  C_15 
REMARK    2  A    between atoms: C_15  and  C_17 
REMARK    3  A    between atoms: C_24  and  C_27 
REMARK    4  A    between atoms: C_27  and  O_28 
ROOT
HETATM    1  C   UNK N   1      27.898  16.198   3.650  0.00  0.00     0.192 C 
HETATM    2  O   UNK N   1      28.092  15.501   2.664  0.00  0.00    -0.287 OA
ENDROOT
BRANCH   1   3
HETATM    3  C   UNK N   1      28.920  16.278   4.739  0.00  0.00     0.015 A 
HETATM    4  C   UNK N   1      28.475  16.376   6.062  0.00  0.00     0.016 A 
HETATM    5  C   UNK N   1      29.344  16.596   7.107  0.00  0.00     0.009 A 
HETATM    6  C   UNK N   1      30.707  16.738   6.869  0.00  0.00    -0.043 A 
HETATM    7  C   UNK N   1      31.202  16.611   5.539  0.00  0.00    -0.042 A 
HETATM    8  C   UNK N   1      31.604  17.050   8.052  0.00  0.00    -0.020 C 
HETATM    9  C   UNK N   1      32.669  16.848   5.227  0.00  0.00    -0.020 C 
HETATM   10  C   UNK N   1      30.293  16.352   4.482  0.00  0.00     0.024 A 
HETATM   11  C   UNK N   1      33.371  17.604   6.358  0.00  0.00     0.015 C 
HETATM   12  C   UNK N   1      33.361  15.522   4.965  0.00  0.00     0.020 C 
HETATM   13  C   UNK N   1      32.817  17.722   3.992  0.00  0.00     0.020 C 
HETATM   14  C   UNK N   1      33.085  16.964   7.701  0.00  0.00     0.015 C 
HETATM   15  C   UNK N   1      31.364  16.057   9.178  0.00  0.00     0.020 C 
HETATM   16  C   UNK N   1      31.271  18.444   8.567  0.00  0.00     0.020 C 
ENDBRANCH   1   3
BRANCH   1  17
HETATM   17  C   UNK N   1      26.642  16.996   3.783  0.00  0.00     0.016 A 
HETATM   18  C   UNK N   1      26.550  18.346   3.401  0.00  0.00     0.028 A 
HETATM   19  C   UNK N   1      25.289  18.976   3.406  0.00  0.00    -0.025 A 
HETATM   20  C   UNK N   1      24.144  18.257   3.829  0.00  0.00    -0.025 A 
HETATM   21  C   UNK N   1      25.135  20.284   2.937  0.00  0.00     0.013 A 
HETATM   22  C   UNK N   1      24.260  16.960   4.283  0.00  0.00     0.013 A 
HETATM   23  C   UNK N   1      22.882  18.823   3.745  0.00  0.00     0.030 A 
HETATM   24  C   UNK N   1      25.492  16.343   4.257  0.00  0.00     0.016 A 
HETATM   25  C   UNK N   1      22.720  20.106   3.236  0.00  0.00     0.038 A 
HETATM   26  C   UNK N   1      23.851  20.847   2.847  0.00  0.00     0.019 A 
BRANCH  25  27
HETATM   27  C   UNK N   1      21.355  20.637   3.060  0.00  0.00     0.176 C 
HETATM   28  O   UNK N   1      20.480  20.374   3.866  0.00  0.00    -0.646 OA
BRANCH  27  29
HETATM   29  O   UNK N   1      21.080  21.457   2.023  0.00  0.00    -0.773 OA
HETATM   30  H   UNK N   1      20.242  21.529   1.610  0.00  0.00     0.167 HD
ENDBRANCH  27  29
ENDBRANCH  25  27
ENDBRANCH   1  17
TORSDOF 4
ENDMDL
MODEL 9
REMARK VINA RESULT:      -8.3      3.395      6.279
REMARK  4 active torsions:
REMARK  status: ('A' for Active; 'I' for Inactive)
REMARK    1  A    between atoms: C_13  and  C_15 
REMARK    2  A    between atoms: C_15  and  C_17 
REMARK    3  A    between atoms: C_24  and  C_27 
REMARK    4  A    between atoms: C_27  and  O_28 
ROOT
HETATM    1  C   UNK N   1      29.616  16.790   3.541  0.00  0.00     0.192 C 
HETATM    2  O   UNK N   1      29.926  16.422   2.417  0.00  0.00    -0.287 OA
ENDROOT
BRANCH   1   3
HETATM    3  C   UNK N   1      28.178  16.944   3.922  0.00  0.00     0.015 A 
HETATM    4  C   UNK N   1      27.428  15.789   4.170  0.00  0.00     0.016 A 
HETATM    5  C   UNK N   1      26.069  15.837   4.386  0.00  0.00     0.009 A 
HETATM    6  C   UNK N   1      25.395  17.053   4.354  0.00  0.00    -0.043 A 
HETATM    7  C   UNK N   1      26.131  18.255   4.138  0.00  0.00    -0.042 A 
HETATM    8  C   UNK N   1      23.888  17.033   4.528  0.00  0.00    -0.020 C 
HETATM    9  C   UNK N   1      25.420  19.591   4.008  0.00  0.00    -0.020 C 
HETATM   10  C   UNK N   1      27.534  18.186   3.950  0.00  0.00     0.024 A 
HETATM   11  C   UNK N   1      23.926  19.409   3.721  0.00  0.00     0.015 C 
HETATM   12  C   UNK N   1      25.623  20.408   5.271  0.00  0.00     0.020 C 
HETATM   13  C   UNK N   1      25.973  20.376   2.829  0.00  0.00     0.020 C 
HETATM   14  C   UNK N   1      23.301  18.430   4.693  0.00  0.00     0.015 C 
HETATM   15  C   UNK N   1      23.507  16.250   5.775  0.00  0.00     0.020 C 
HETATM   16  C   UNK N   1      23.264  16.344   3.322  0.00  0.00     0.020 C 
ENDBRANCH   1   3
BRANCH   1  17
HETATM   17  C   UNK N   1      30.665  17.081   4.565  0.00  0.00     0.016 A 
HETATM   18  C   UNK N   1      30.424  17.008   5.948  0.00  0.00     0.028 A 
HETATM   19  C   UNK N   1      31.508  17.137   6.841  0.00  0.00    -0.025 A 
HETATM   20  C   UNK N   1      32.811  17.372   6.337  0.00  0.00    -0.025 A 
HETATM   21  C   UNK N   1      31.330  16.970   8.217  0.00  0.00     0.013 A 
HETATM   22  C   UNK N   1      33.021  17.526   4.984  0.00  0.00     0.013 A 
HETATM   23  C   UNK N   1      33.904  17.398   7.188  0.00  0.00     0.030 A 
HETATM   24  C   UNK N   1      31.961  17.380   4.114  0.00  0.00     0.016 A 
HETATM   25  C   UNK N   1      33.738  17.187   8.553  0.00  0.00     0.038 A 
HETATM   26  C   UNK N   1      32.445  16.991   9.072  0.00  0.00     0.019 A 
BRANCH  25  27
HETATM   27  C   UNK N   1      34.933  17.115   9.414  0.00  0.00     0.176 C 
HETATM   28  O   UNK N   1      35.618  18.104   9.606  0.00  0.00    -0.646 OA
BRANCH  27  29
HETATM   29  O   UNK N   1      35.248  15.957  10.032  0.00  0.00    -0.773 OA
HETATM   30  H   UNK N   1      34.661  15.466  10.574  0.00  0.00     0.167 HD
ENDBRANCH  27  29
ENDBRANCH  25  27
ENDBRANCH   1  17
TORSDOF 4
ENDMDL
