REMARK  4 active torsions:
REMARK  status: ('A' for Active; 'I' for Inactive)
REMARK    1  A    between atoms: C_6  and  C_4 
REMARK    2  A    between atoms: C_9  and  C_7 
REMARK    3  A    between atoms: C_10  and  C_8 
REMARK    4  A    between atoms: O_18  and  C_10 
ROOT
HETATM    1  C   UNK N   1       1.108   2.140   0.141  0.00  0.00     0.100 C 
HETATM    2  C   UNK N   1       4.085   1.939  -0.703  0.00  0.00     0.082 C 
HETATM    3  C   UNK N   1       1.100   0.795   0.090  0.00  0.00     0.015 C 
HETATM    4  C   UNK N   1       3.371   2.977  -0.273  0.00  0.00     0.112 C 
HETATM    5  C   UNK N   1       2.000  -0.080  -0.819  0.00  0.00     0.141 C 
HETATM    6  N   UNK N   1       1.989   3.023  -0.526  0.00  0.00    -0.359 N 
HETATM    7  S   UNK N   1       3.352   0.711  -1.800  0.00  0.00    -0.123 SA
HETATM    8  H   UNK N   1       1.631   3.675  -1.171  0.00  0.00     0.165 HD
ENDROOT
BRANCH   5   9
HETATM    9  C   UNK N   1       2.469  -1.417  -0.258  0.00  0.00     0.059 A 
HETATM   10  C   UNK N   1       3.763  -1.915  -0.209  0.00  0.00     0.135 A 
HETATM   11  N   UNK N   1       3.649  -3.191   0.204  0.00  0.00    -0.289 N 
HETATM   12  C   UNK N   1       4.725  -4.146   0.382  0.00  0.00     0.174 C 
HETATM   13  N   UNK N   1       2.372  -3.474   0.383  0.00  0.00    -0.021 NA
HETATM   14  N   UNK N   1       1.633  -2.416   0.100  0.00  0.00    -0.285 N 
ATOM     15  HN  UNK N   1       0.615  -2.363   0.145  1.00  0.00     0.184 HD
ENDBRANCH   5   9
BRANCH   3  16
HETATM   16  C   UNK N   1      -0.032   0.209   0.845  0.00  0.00     0.268 C 
HETATM   17  O   UNK N   1      -0.374  -0.954   0.738  0.00  0.00    -0.302 OA
ENDBRANCH   3  16
BRANCH   4  18
HETATM   18  C   UNK N   1       4.010   4.123   0.412  0.00  0.00     0.194 C 
HETATM   19  O   UNK N   1       3.333   5.085   0.744  0.00  0.00    -0.645 OA
BRANCH  18  20
HETATM   20  O   UNK N   1       5.337   4.139   0.636  0.00  0.00    -0.772 OA
HETATM   21  H   UNK N   1       5.809   3.345   0.792  0.00  0.00     0.167 HD
ENDBRANCH  18  20
ENDBRANCH   4  18
TORSDOF 4
