REMARK  13 active torsions:
REMARK  status: ('A' for Active; 'I' for Inactive)
REMARK    1  A    between atoms: C_7  and  C_6 
REMARK    2  A    between atoms: C_13  and  C_8 
REMARK    3  A    between atoms: C_16  and  C_8 
REMARK    4  A    between atoms: C_14  and  C_11 
REMARK    5  A    between atoms: O_28  and  C_11 
REMARK    6  A    between atoms: N_22  and  C_14 
REMARK    7  A    between atoms: O_28  and  C_15 
REMARK    8  A    between atoms: C_20  and  C_16 
REMARK    9  A    between atoms: C_16  and  N_21 
REMARK   10  A    between atoms: N_22  and  C_17 
REMARK   11  A    between atoms: O_24  and  C_18 
REMARK   12  A    between atoms: O_25  and  C_19 
REMARK   13  A    between atoms: O_27  and  C_20 
ROOT
HETATM    1  C   UNK N   1      -0.955   9.324   0.005  0.00  0.00     0.042 A 
HETATM    2  C   UNK N   1      -3.053  11.172  -0.110  0.00  0.00     0.076 A 
HETATM    3  C   UNK N   1      -0.776  10.622   0.501  0.00  0.00    -0.020 A 
HETATM    4  C   UNK N   1      -2.186   8.949  -0.556  0.00  0.00     0.066 A 
HETATM    5  C   UNK N   1      -1.840  11.537   0.468  0.00  0.00     0.074 A 
HETATM    6  C   UNK N   1      -3.225   9.894  -0.638  0.00  0.00     0.095 A 
ENDROOT
BRANCH   4   7
HETATM    7  N   UNK N   1      -2.388   7.619  -1.001  0.00  0.00    -0.355 N 
HETATM    8  H   UNK N   1      -2.322   7.398  -1.959  0.00  0.00     0.166 HD
BRANCH   7   9
HETATM    9  C   UNK N   1      -2.687   6.606  -0.048  0.00  0.00     0.037 C 
HETATM   10  C   UNK N   1      -3.958   6.373   0.326  0.00  0.00     0.068 C 
BRANCH  10  11
HETATM   11  C   UNK N   1      -5.094   7.076  -0.281  0.00  0.00     0.260 C 
HETATM   12  O   UNK N   1      -6.233   6.841   0.085  0.00  0.00    -0.302 OA
ENDBRANCH  10  11
BRANCH   9  13
HETATM   13  C   UNK N   1      -1.570   5.841   0.611  0.00  0.00     0.232 C 
BRANCH  13  14
HETATM   14  O   UNK N   1      -1.224   4.710  -0.110  0.00  0.00    -0.345 OA
BRANCH  14  15
HETATM   15  C   UNK N   1      -1.934   3.549  -0.110  0.00  0.00     0.069 A 
HETATM   16  C   UNK N   1      -1.479   2.466  -0.871  0.00  0.00     0.037 A 
HETATM   17  C   UNK N   1      -2.208   1.270  -0.905  0.00  0.00     0.009 A 
HETATM   18  C   UNK N   1      -3.398   1.153  -0.180  0.00  0.00    -0.062 A 
HETATM   19  C   UNK N   1      -4.185  -0.107  -0.230  0.00  0.00     0.048 C 
HETATM   20  C   UNK N   1      -3.852   2.222   0.591  0.00  0.00     0.009 A 
HETATM   21  C   UNK N   1      -3.119   3.409   0.631  0.00  0.00     0.037 A 
ENDBRANCH  14  15
ENDBRANCH  13  14
ENDBRANCH   9  13
ENDBRANCH   7   9
ENDBRANCH   4   7
BRANCH   6  22
HETATM   22  O   UNK N   1      -4.397   9.580  -1.212  0.00  0.00    -0.358 OA
HETATM   23  H   UNK N   1      -4.995  10.179  -1.613  0.00  0.00     0.217 HD
ENDBRANCH   6  22
BRANCH   3  24
HETATM   24  C   UNK N   1       0.559  11.067   1.011  0.00  0.00     0.077 C 
BRANCH  24  25
HETATM   25  C   UNK N   1       1.462  11.519  -0.147  0.00  0.00     0.177 C 
BRANCH  25  26
HETATM   26  C   UNK N   1       2.685  12.196   0.389  0.00  0.00     0.163 C 
HETATM   27  O   UNK N   1       2.581  13.207   1.067  0.00  0.00    -0.648 OA
BRANCH  26  28
HETATM   28  O   UNK N   1       3.907  11.710   0.099  0.00  0.00    -0.775 OA
HETATM   29  H   UNK N   1       4.039  10.805  -0.102  0.00  0.00     0.167 HD
ENDBRANCH  26  28
ENDBRANCH  25  26
BRANCH  25  30
HETATM   30  N   UNK N   1       0.759  12.457  -1.013  0.00  0.00    -0.417 N 
HETATM   31  H   UNK N   1       1.081  13.212  -1.618  0.00  0.00     0.150 HD
HETATM   32  H   UNK N   1      -0.254  12.336  -1.013  0.00  0.00     0.150 HD
ENDBRANCH  25  30
ENDBRANCH  24  25
ENDBRANCH   3  24
BRANCH   5  33
HETATM   33  O   UNK N   1      -1.691  12.777   0.965  0.00  0.00    -0.360 OA
HETATM   34  H   UNK N   1      -0.891  13.120   1.311  0.00  0.00     0.217 HD
ENDBRANCH   5  33
TORSDOF 13
