REMARK  11 active torsions:
REMARK  status: ('A' for Active; 'I' for Inactive)
REMARK    1  A    between atoms: C_2  and  C_1 
REMARK    2  A    between atoms: O_16  and  C_1 
REMARK    3  A    between atoms: C_6  and  C_2 
REMARK    4  A    between atoms: C_2  and  O_8 
REMARK    5  A    between atoms: C_3  and  O_9 
REMARK    6  A    between atoms: C_4  and  O_10 
REMARK    7  A    between atoms: C_5  and  O_11 
REMARK    8  A    between atoms: C_7  and  O_12 
REMARK    9  A    between atoms: P_18  and  O_13 
REMARK   10  A    between atoms: P_18  and  O_14 
REMARK   11  A    between atoms: P_18  and  O_16 
ROOT
HETATM    1  C   UNK N   1       2.423   0.874   0.571  0.00  0.00     0.183 C 
HETATM    2  C   UNK N   1       1.224   1.822   0.412  0.00  0.00     0.181 C 
HETATM    3  C   UNK N   1       2.281  -0.248  -0.453  0.00  0.00     0.204 C 
HETATM    4  C   UNK N   1      -0.131   1.035   0.369  0.00  0.00     0.186 C 
HETATM    5  C   UNK N   1       1.019  -1.058  -0.087  0.00  0.00     0.288 C 
HETATM    6  O   UNK N   1      -0.008  -0.365   0.610  0.00  0.00    -0.348 OA
ENDROOT
BRANCH   4   7
HETATM    7  C   UNK N   1      -1.022   1.291  -0.869  0.00  0.00     0.174 C 
BRANCH   7   8
HETATM    8  C   UNK N   1      -2.305   0.459  -0.832  0.00  0.00     0.215 C 
BRANCH   8   9
HETATM    9  O   UNK N   1      -3.079   0.744   0.300  0.00  0.00    -0.294 OA
BRANCH   9  10
HETATM   10  P   UNK N   1      -4.725   0.658  -0.255  0.00  0.00     0.390 P 
HETATM   11  O   UNK N   1      -4.607  -0.643   0.585  0.00  0.00    -0.632 OA
BRANCH  10  12
HETATM   12  O   UNK N   1      -6.051   0.797   0.857  0.00  0.00    -0.307 OA
HETATM   13  H   UNK N   1      -6.354   1.477   1.478  0.00  0.00     0.222 HD
ENDBRANCH  10  12
BRANCH  10  14
HETATM   14  O   UNK N   1      -4.518   2.035   0.782  0.00  0.00    -0.307 OA
HETATM   15  H   UNK N   1      -3.794   2.320   1.362  0.00  0.00     0.222 HD
ENDBRANCH  10  14
ENDBRANCH   9  10
ENDBRANCH   8   9
ENDBRANCH   7   8
BRANCH   7  16
HETATM   16  O   UNK N   1      -1.357   2.647  -0.954  0.00  0.00    -0.391 OA
HETATM   17  H   UNK N   1      -0.660   3.318  -1.012  0.00  0.00     0.210 HD
ENDBRANCH   7  16
ENDBRANCH   4   7
BRANCH   2  18
HETATM   18  O   UNK N   1       1.384   2.595  -0.748  0.00  0.00    -0.390 OA
HETATM   19  H   UNK N   1       1.903   2.766  -1.550  0.00  0.00     0.210 HD
ENDBRANCH   2  18
BRANCH   1  20
HETATM   20  O   UNK N   1       3.622   1.567   0.391  0.00  0.00    -0.390 OA
HETATM   21  H   UNK N   1       4.455   1.086   0.265  0.00  0.00     0.210 HD
ENDBRANCH   1  20
BRANCH   5  22
HETATM   22  O   UNK N   1       0.502  -1.726  -1.202  0.00  0.00    -0.369 OA
HETATM   23  H   UNK N   1      -0.078  -1.646  -1.975  0.00  0.00     0.212 HD
ENDBRANCH   5  22
BRANCH   3  24
HETATM   24  O   UNK N   1       2.183   0.280  -1.745  0.00  0.00    -0.388 OA
HETATM   25  H   UNK N   1       2.467   0.521  -2.641  0.00  0.00     0.210 HD
ENDBRANCH   3  24
TORSDOF 11
