REMARK  4 active torsions:
REMARK  status: ('A' for Active; 'I' for Inactive)
REMARK    1  A    between atoms: C_2  and  C_1 
REMARK    2  A    between atoms: O_12  and  C_1 
REMARK    3  A    between atoms: C_3  and  O_13 
REMARK    4  A    between atoms: C_5  and  O_15 
ROOT
HETATM    1  C   UNK N   1       1.361   0.318   0.395  0.00  0.00     0.162 C 
HETATM    2  C   UNK N   1       2.611   0.915  -0.309  0.00  0.00     0.176 C 
HETATM    3  C   UNK N   1       2.838   2.355   0.208  0.00  0.00     0.185 C 
HETATM    4  C   UNK N   1       1.644   3.283  -0.145  0.00  0.00     0.219 C 
HETATM    5  C   UNK N   1       0.338   2.550  -0.031  0.00  0.00     0.141 A 
HETATM    6  N   UNK N   1      -0.888   3.069  -0.218  0.00  0.00    -0.271 N 
ATOM      7  HN  UNK N   1      -1.122   4.041  -0.420  1.00  0.00     0.185 HD
HETATM    8  N   UNK N   1      -1.729   2.049  -0.086  0.00  0.00    -0.007 NA
HETATM    9  N   UNK N   1      -1.046   0.938   0.164  0.00  0.00    -0.004 NA
HETATM   10  N   UNK N   1       0.239   1.236   0.199  0.00  0.00    -0.253 N 
HETATM   11  O   UNK N   1       3.006   2.318   1.597  0.00  0.00    -0.390 OA
HETATM   12  H   UNK N   1       3.041   2.203   2.559  0.00  0.00     0.210 HD
ENDROOT
BRANCH   2  13
HETATM   13  O   UNK N   1       3.740   0.133  -0.047  0.00  0.00    -0.391 OA
HETATM   14  H   UNK N   1       3.661  -0.816   0.135  0.00  0.00     0.210 HD
ENDBRANCH   2  13
BRANCH   4  15
HETATM   15  O   UNK N   1       1.768   3.730  -1.462  0.00  0.00    -0.385 OA
HETATM   16  H   UNK N   1       2.080   3.811  -2.377  0.00  0.00     0.210 HD
ENDBRANCH   4  15
BRANCH   1  17
HETATM   17  C   UNK N   1       1.014  -1.081  -0.112  0.00  0.00     0.193 C 
BRANCH  17  18
HETATM   18  O   UNK N   1       1.968  -2.008   0.315  0.00  0.00    -0.399 OA
HETATM   19  H   UNK N   1       1.742  -2.903   0.612  0.00  0.00     0.209 HD
ENDBRANCH  17  18
ENDBRANCH   1  17
TORSDOF 4
