MODEL 1
REMARK VINA RESULT:      -7.5      0.000      0.000
REMARK  12 active torsions:
REMARK  status: ('A' for Active; 'I' for Inactive)
REMARK    1  A    between atoms: C_7  and  C_6 
REMARK    2  A    between atoms: C_13  and  C_6 
REMARK    3  A    between atoms: C_14  and  C_7 
REMARK    4  A    between atoms: C_15  and  C_10 
REMARK    5  A    between atoms: N_28  and  C_10 
REMARK    6  A    between atoms: C_14  and  C_11 
REMARK    7  A    between atoms: S_32  and  C_11 
REMARK    8  A    between atoms: C_14  and  C_18 
REMARK    9  A    between atoms: C_17  and  C_16 
REMARK   10  A    between atoms: C_19  and  C_17 
REMARK   11  A    between atoms: N_22  and  C_17 
REMARK       I    between atoms: N_22  and  C_18 
REMARK   12  A    between atoms: O_31  and  C_19 
ROOT
HETATM    1  C   UNK N   1      34.161  17.051   9.052  0.00  0.00     0.104 C 
ENDROOT
BRANCH   1   2
HETATM    2  C   UNK N   1      35.235  16.141   9.521  0.00  0.00     0.131 C 
HETATM    3  C   UNK N   1      35.894  16.568  10.662  0.00  0.00    -0.004 C 
HETATM    4  C   UNK N   1      35.814  15.657  11.726  0.00  0.00     0.013 C 
HETATM    5  C   UNK N   1      35.147  14.493  11.373  0.00  0.00    -0.001 C 
HETATM    6  S   UNK N   1      34.831  14.555   9.784  0.00  0.00    -0.117 SA
BRANCH   5   7
HETATM    7  C   UNK N   1      34.799  13.394  12.280  0.00  0.00     0.197 C 
BRANCH   7   8
HETATM    8  N   UNK N   1      36.003  13.030  12.979  0.00  0.00    -0.266 N 
HETATM    9  C   UNK N   1      36.268  13.229  14.269  0.00  0.00     0.220 A 
HETATM   10  N   UNK N   1      37.441  12.630  14.553  0.00  0.00    -0.279 N 
HETATM   11  N   UNK N   1      37.863  12.073  13.426  0.00  0.00    -0.227 N 
ATOM     12  HN  UNK N   1      37.912  12.609  15.458  1.00  0.00     0.189 HD
HETATM   13  N   UNK N   1      36.989  12.312  12.475  0.00  0.00    -0.225 N 
ATOM     14  HN  UNK N   1      38.728  11.544  13.316  1.00  0.00     0.210 HD
ATOM     15  HN  UNK N   1      37.061  11.995  11.507  1.00  0.00     0.210 HD
ENDBRANCH   7   8
ENDBRANCH   5   7
ENDBRANCH   1   2
BRANCH   1  16
HETATM   16  C   UNK N   1      34.450  18.139   8.070  0.00  0.00     0.190 C 
HETATM   17  O   UNK N   1      34.501  17.852   6.888  0.00  0.00    -0.645 OA
BRANCH  16  18
HETATM   18  O   UNK N   1      34.906  19.349   8.448  0.00  0.00    -0.772 OA
HETATM   19  H   UNK N   1      35.360  19.450   9.261  0.00  0.00     0.167 HD
ENDBRANCH  16  18
ENDBRANCH   1  16
BRANCH   1  20
HETATM   20  N   UNK N   1      32.919  16.696   9.025  0.00  0.00    -0.323 N 
HETATM   21  C   UNK N   1      31.620  16.680   8.634  0.00  0.00     0.227 C 
HETATM   22  O   UNK N   1      30.836  16.104   9.364  0.00  0.00    -0.273 OA
ATOM     23  HN  UNK N   1      32.909  15.978   9.751  1.00  0.00     0.169 HD
BRANCH  21  24
HETATM   24  C   UNK N   1      31.091  17.188   7.317  0.00  0.00     0.087 C 
BRANCH  24  25
HETATM   25  C   UNK N   1      29.557  17.184   7.336  0.00  0.00     0.019 C 
BRANCH  25  26
HETATM   26  C   UNK N   1      28.869  18.525   7.664  0.00  0.00     0.039 C 
BRANCH  26  27
HETATM   27  C   UNK N   1      28.105  19.188   6.557  0.00  0.00    -0.058 A 
HETATM   28  C   UNK N   1      28.210  18.688   5.250  0.00  0.00     0.007 A 
HETATM   29  C   UNK N   1      27.589  19.356   4.188  0.00  0.00     0.001 A 
HETATM   30  C   UNK N   1      26.863  20.526   4.429  0.00  0.00     0.000 A 
HETATM   31  C   UNK N   1      26.754  21.025   5.731  0.00  0.00     0.001 A 
HETATM   32  C   UNK N   1      27.384  20.364   6.792  0.00  0.00     0.007 A 
ENDBRANCH  26  27
ENDBRANCH  25  26
ENDBRANCH  24  25
BRANCH  24  33
HETATM   33  C   UNK N   1      31.689  16.431   6.130  0.00  0.00     0.084 C 
BRANCH  33  34
HETATM   34  S   UNK N   1      31.755  17.368   4.565  0.00  0.00    -0.181 SA
HETATM   35  H   UNK N   1      32.785  17.995   3.936  0.00  0.00     0.101 HD
ENDBRANCH  33  34
ENDBRANCH  24  33
ENDBRANCH  21  24
ENDBRANCH   1  20
TORSDOF 12
ENDMDL
MODEL 2
REMARK VINA RESULT:      -7.5      3.364      9.502
REMARK  12 active torsions:
REMARK  status: ('A' for Active; 'I' for Inactive)
REMARK    1  A    between atoms: C_7  and  C_6 
REMARK    2  A    between atoms: C_13  and  C_6 
REMARK    3  A    between atoms: C_14  and  C_7 
REMARK    4  A    between atoms: C_15  and  C_10 
REMARK    5  A    between atoms: N_28  and  C_10 
REMARK    6  A    between atoms: C_14  and  C_11 
REMARK    7  A    between atoms: S_32  and  C_11 
REMARK    8  A    between atoms: C_14  and  C_18 
REMARK    9  A    between atoms: C_17  and  C_16 
REMARK   10  A    between atoms: C_19  and  C_17 
REMARK   11  A    between atoms: N_22  and  C_17 
REMARK       I    between atoms: N_22  and  C_18 
REMARK   12  A    between atoms: O_31  and  C_19 
ROOT
HETATM    1  C   UNK N   1      34.014  16.805   8.480  0.00  0.00     0.104 C 
ENDROOT
BRANCH   1   2
HETATM    2  C   UNK N   1      32.608  16.350   8.609  0.00  0.00     0.131 C 
HETATM    3  C   UNK N   1      31.699  17.357   8.885  0.00  0.00    -0.004 C 
HETATM    4  C   UNK N   1      30.688  17.476   7.920  0.00  0.00     0.013 C 
HETATM    5  C   UNK N   1      30.786  16.507   6.933  0.00  0.00    -0.001 C 
HETATM    6  S   UNK N   1      31.969  15.479   7.350  0.00  0.00    -0.117 SA
BRANCH   5   7
HETATM    7  C   UNK N   1      29.956  16.421   5.727  0.00  0.00     0.197 C 
BRANCH   7   8
HETATM    8  N   UNK N   1      30.795  16.772   4.613  0.00  0.00    -0.266 N 
HETATM    9  C   UNK N   1      30.645  16.385   3.347  0.00  0.00     0.220 A 
HETATM   10  N   UNK N   1      31.560  17.033   2.600  0.00  0.00    -0.279 N 
HETATM   11  N   UNK N   1      32.246  17.807   3.429  0.00  0.00    -0.227 N 
ATOM     12  HN  UNK N   1      31.697  16.946   1.592  1.00  0.00     0.189 HD
HETATM   13  N   UNK N   1      31.780  17.652   4.647  0.00  0.00    -0.225 N 
ATOM     14  HN  UNK N   1      33.014  18.424   3.163  1.00  0.00     0.210 HD
ATOM     15  HN  UNK N   1      32.121  18.131   5.481  1.00  0.00     0.210 HD
ENDBRANCH   7   8
ENDBRANCH   5   7
ENDBRANCH   1   2
BRANCH   1  16
HETATM   16  C   UNK N   1      34.349  18.068   7.757  0.00  0.00     0.190 C 
HETATM   17  O   UNK N   1      34.262  18.080   6.542  0.00  0.00    -0.645 OA
BRANCH  16  18
HETATM   18  O   UNK N   1      34.982  19.097   8.355  0.00  0.00    -0.772 OA
HETATM   19  H   UNK N   1      34.504  19.695   8.895  0.00  0.00     0.167 HD
ENDBRANCH  16  18
ENDBRANCH   1  16
BRANCH   1  20
HETATM   20  N   UNK N   1      34.924  16.486   9.340  0.00  0.00    -0.323 N 
HETATM   21  C   UNK N   1      35.490  15.865  10.405  0.00  0.00     0.227 C 
HETATM   22  O   UNK N   1      36.542  16.324  10.808  0.00  0.00    -0.273 OA
ATOM     23  HN  UNK N   1      35.704  17.056   9.014  1.00  0.00     0.169 HD
BRANCH  21  24
HETATM   24  C   UNK N   1      35.005  14.586  11.039  0.00  0.00     0.087 C 
BRANCH  24  25
HETATM   25  C   UNK N   1      35.520  14.493  12.481  0.00  0.00     0.019 C 
BRANCH  25  26
HETATM   26  C   UNK N   1      36.340  13.237  12.840  0.00  0.00     0.039 C 
BRANCH  26  27
HETATM   27  C   UNK N   1      35.694  12.240  13.755  0.00  0.00    -0.058 A 
HETATM   28  C   UNK N   1      34.541  11.562  13.333  0.00  0.00     0.007 A 
HETATM   29  C   UNK N   1      33.865  10.707  14.212  0.00  0.00     0.001 A 
HETATM   30  C   UNK N   1      34.340  10.529  15.515  0.00  0.00     0.000 A 
HETATM   31  C   UNK N   1      35.490  11.201  15.937  0.00  0.00     0.001 A 
HETATM   32  C   UNK N   1      36.160  12.065  15.063  0.00  0.00     0.007 A 
ENDBRANCH  26  27
ENDBRANCH  25  26
ENDBRANCH  24  25
BRANCH  24  33
HETATM   33  C   UNK N   1      35.346  13.362  10.188  0.00  0.00     0.084 C 
BRANCH  33  34
HETATM   34  S   UNK N   1      33.940  12.631   9.282  0.00  0.00    -0.181 SA
HETATM   35  H   UNK N   1      33.016  11.707   9.653  0.00  0.00     0.101 HD
ENDBRANCH  33  34
ENDBRANCH  24  33
ENDBRANCH  21  24
ENDBRANCH   1  20
TORSDOF 12
ENDMDL
MODEL 3
REMARK VINA RESULT:      -7.2      2.803      4.360
REMARK  12 active torsions:
REMARK  status: ('A' for Active; 'I' for Inactive)
REMARK    1  A    between atoms: C_7  and  C_6 
REMARK    2  A    between atoms: C_13  and  C_6 
REMARK    3  A    between atoms: C_14  and  C_7 
REMARK    4  A    between atoms: C_15  and  C_10 
REMARK    5  A    between atoms: N_28  and  C_10 
REMARK    6  A    between atoms: C_14  and  C_11 
REMARK    7  A    between atoms: S_32  and  C_11 
REMARK    8  A    between atoms: C_14  and  C_18 
REMARK    9  A    between atoms: C_17  and  C_16 
REMARK   10  A    between atoms: C_19  and  C_17 
REMARK   11  A    between atoms: N_22  and  C_17 
REMARK       I    between atoms: N_22  and  C_18 
REMARK   12  A    between atoms: O_31  and  C_19 
ROOT
HETATM    1  C   UNK N   1      33.455  17.280   8.765  0.00  0.00     0.104 C 
ENDROOT
BRANCH   1   2
HETATM    2  C   UNK N   1      33.715  15.832   8.959  0.00  0.00     0.131 C 
HETATM    3  C   UNK N   1      33.428  15.042   7.858  0.00  0.00    -0.004 C 
HETATM    4  C   UNK N   1      34.534  14.320   7.387  0.00  0.00     0.013 C 
HETATM    5  C   UNK N   1      35.660  14.506   8.176  0.00  0.00    -0.001 C 
HETATM    6  S   UNK N   1      35.231  15.390   9.466  0.00  0.00    -0.117 SA
BRANCH   5   7
HETATM    7  C   UNK N   1      37.001  13.983   7.896  0.00  0.00     0.197 C 
BRANCH   7   8
HETATM    8  N   UNK N   1      37.538  13.513   9.145  0.00  0.00    -0.266 N 
HETATM    9  C   UNK N   1      37.300  12.337   9.724  0.00  0.00     0.220 A 
HETATM   10  N   UNK N   1      38.090  12.238  10.811  0.00  0.00    -0.279 N 
HETATM   11  N   UNK N   1      38.798  13.357  10.868  0.00  0.00    -0.227 N 
ATOM     12  HN  UNK N   1      38.135  11.454  11.463  1.00  0.00     0.189 HD
HETATM   13  N   UNK N   1      38.466  14.127   9.856  0.00  0.00    -0.225 N 
ATOM     14  HN  UNK N   1      39.489  13.584  11.582  1.00  0.00     0.210 HD
ATOM     15  HN  UNK N   1      38.860  15.047   9.654  1.00  0.00     0.210 HD
ENDBRANCH   7   8
ENDBRANCH   5   7
ENDBRANCH   1   2
BRANCH   1  16
HETATM   16  C   UNK N   1      34.322  18.102   7.869  0.00  0.00     0.190 C 
HETATM   17  O   UNK N   1      34.937  19.035   8.356  0.00  0.00    -0.645 OA
BRANCH  16  18
HETATM   18  O   UNK N   1      34.254  18.023   6.526  0.00  0.00    -0.772 OA
HETATM   19  H   UNK N   1      34.550  18.736   5.995  0.00  0.00     0.167 HD
ENDBRANCH  16  18
ENDBRANCH   1  16
BRANCH   1  20
HETATM   20  N   UNK N   1      32.277  17.793   8.899  0.00  0.00    -0.323 N 
HETATM   21  C   UNK N   1      30.972  18.043   8.625  0.00  0.00     0.227 C 
HETATM   22  O   UNK N   1      30.467  18.992   9.194  0.00  0.00    -0.273 OA
ATOM     23  HN  UNK N   1      32.411  18.367   9.732  1.00  0.00     0.169 HD
BRANCH  21  24
HETATM   24  C   UNK N   1      30.064  17.175   7.791  0.00  0.00     0.087 C 
BRANCH  24  25
HETATM   25  C   UNK N   1      30.573  17.129   6.345  0.00  0.00     0.019 C 
BRANCH  25  26
HETATM   26  C   UNK N   1      30.549  15.752   5.650  0.00  0.00     0.039 C 
BRANCH  26  27
HETATM   27  C   UNK N   1      31.603  15.491   4.617  0.00  0.00    -0.058 A 
HETATM   28  C   UNK N   1      32.090  14.186   4.443  0.00  0.00     0.007 A 
HETATM   29  C   UNK N   1      33.148  13.941   3.558  0.00  0.00     0.001 A 
HETATM   30  C   UNK N   1      33.722  14.999   2.847  0.00  0.00     0.000 A 
HETATM   31  C   UNK N   1      33.236  16.299   3.017  0.00  0.00     0.001 A 
HETATM   32  C   UNK N   1      32.187  16.547   3.909  0.00  0.00     0.007 A 
ENDBRANCH  26  27
ENDBRANCH  25  26
ENDBRANCH  24  25
BRANCH  24  33
HETATM   33  C   UNK N   1      28.600  17.600   7.911  0.00  0.00     0.084 C 
BRANCH  33  34
HETATM   34  S   UNK N   1      27.979  18.639   6.545  0.00  0.00    -0.181 SA
HETATM   35  H   UNK N   1      26.917  19.485   6.472  0.00  0.00     0.101 HD
ENDBRANCH  33  34
ENDBRANCH  24  33
ENDBRANCH  21  24
ENDBRANCH   1  20
TORSDOF 12
ENDMDL
MODEL 4
REMARK VINA RESULT:      -7.2      8.744     12.327
REMARK  12 active torsions:
REMARK  status: ('A' for Active; 'I' for Inactive)
REMARK    1  A    between atoms: C_7  and  C_6 
REMARK    2  A    between atoms: C_13  and  C_6 
REMARK    3  A    between atoms: C_14  and  C_7 
REMARK    4  A    between atoms: C_15  and  C_10 
REMARK    5  A    between atoms: N_28  and  C_10 
REMARK    6  A    between atoms: C_14  and  C_11 
REMARK    7  A    between atoms: S_32  and  C_11 
REMARK    8  A    between atoms: C_14  and  C_18 
REMARK    9  A    between atoms: C_17  and  C_16 
REMARK   10  A    between atoms: C_19  and  C_17 
REMARK   11  A    between atoms: N_22  and  C_17 
REMARK       I    between atoms: N_22  and  C_18 
REMARK   12  A    between atoms: O_31  and  C_19 
ROOT
HETATM    1  C   UNK N   1      21.757  18.885   4.259  0.00  0.00     0.104 C 
ENDROOT
BRANCH   1   2
HETATM    2  C   UNK N   1      23.141  18.776   3.737  0.00  0.00     0.131 C 
HETATM    3  C   UNK N   1      23.526  19.813   2.903  0.00  0.00    -0.004 C 
HETATM    4  C   UNK N   1      24.652  20.511   3.365  0.00  0.00     0.013 C 
HETATM    5  C   UNK N   1      25.174  19.959   4.526  0.00  0.00    -0.001 C 
HETATM    6  S   UNK N   1      24.362  18.592   4.844  0.00  0.00    -0.117 SA
BRANCH   5   7
HETATM    7  C   UNK N   1      26.276  20.512   5.319  0.00  0.00     0.197 C 
BRANCH   7   8
HETATM    8  N   UNK N   1      27.402  19.634   5.143  0.00  0.00    -0.266 N 
HETATM    9  C   UNK N   1      27.891  18.775   6.036  0.00  0.00     0.220 A 
HETATM   10  N   UNK N   1      28.860  18.056   5.438  0.00  0.00    -0.279 N 
HETATM   11  N   UNK N   1      28.937  18.490   4.188  0.00  0.00    -0.227 N 
ATOM     12  HN  UNK N   1      29.425  17.320   5.864  1.00  0.00     0.189 HD
HETATM   13  N   UNK N   1      28.050  19.443   4.009  0.00  0.00    -0.225 N 
ATOM     14  HN  UNK N   1      29.581  18.141   3.479  1.00  0.00     0.210 HD
ATOM     15  HN  UNK N   1      27.890  19.951   3.139  1.00  0.00     0.210 HD
ENDBRANCH   7   8
ENDBRANCH   5   7
ENDBRANCH   1   2
BRANCH   1  16
HETATM   16  C   UNK N   1      20.580  18.637   3.374  0.00  0.00     0.190 C 
HETATM   17  O   UNK N   1      20.262  17.484   3.145  0.00  0.00    -0.645 OA
BRANCH  16  18
HETATM   18  O   UNK N   1      20.026  19.607   2.621  0.00  0.00    -0.772 OA
HETATM   19  H   UNK N   1      19.857  19.460   1.711  0.00  0.00     0.167 HD
ENDBRANCH  16  18
ENDBRANCH   1  16
BRANCH   1  20
HETATM   20  N   UNK N   1      21.472  18.691   5.505  0.00  0.00    -0.323 N 
HETATM   21  C   UNK N   1      21.096  18.020   6.622  0.00  0.00     0.227 C 
HETATM   22  O   UNK N   1      20.797  18.694   7.589  0.00  0.00    -0.273 OA
ATOM     23  HN  UNK N   1      21.628  19.625   5.885  1.00  0.00     0.169 HD
BRANCH  21  24
HETATM   24  C   UNK N   1      21.150  16.525   6.813  0.00  0.00     0.087 C 
BRANCH  24  25
HETATM   25  C   UNK N   1      20.871  16.178   8.280  0.00  0.00     0.019 C 
BRANCH  25  26
HETATM   26  C   UNK N   1      20.288  14.777   8.557  0.00  0.00     0.039 C 
BRANCH  26  27
HETATM   27  C   UNK N   1      21.046  13.898   9.505  0.00  0.00    -0.058 A 
HETATM   28  C   UNK N   1      22.430  13.737   9.340  0.00  0.00     0.007 A 
HETATM   29  C   UNK N   1      23.137  12.839  10.149  0.00  0.00     0.001 A 
HETATM   30  C   UNK N   1      22.462  12.100  11.125  0.00  0.00     0.000 A 
HETATM   31  C   UNK N   1      21.084  12.260  11.294  0.00  0.00     0.001 A 
HETATM   32  C   UNK N   1      20.375  13.149  10.478  0.00  0.00     0.007 A 
ENDBRANCH  26  27
ENDBRANCH  25  26
ENDBRANCH  24  25
BRANCH  24  33
HETATM   33  C   UNK N   1      22.453  15.928   6.280  0.00  0.00     0.084 C 
BRANCH  33  34
HETATM   34  S   UNK N   1      22.283  14.914   4.771  0.00  0.00    -0.181 SA
HETATM   35  H   UNK N   1      22.403  15.235   3.456  0.00  0.00     0.101 HD
ENDBRANCH  33  34
ENDBRANCH  24  33
ENDBRANCH  21  24
ENDBRANCH   1  20
TORSDOF 12
ENDMDL
MODEL 5
REMARK VINA RESULT:      -7.1      1.520      2.087
REMARK  12 active torsions:
REMARK  status: ('A' for Active; 'I' for Inactive)
REMARK    1  A    between atoms: C_7  and  C_6 
REMARK    2  A    between atoms: C_13  and  C_6 
REMARK    3  A    between atoms: C_14  and  C_7 
REMARK    4  A    between atoms: C_15  and  C_10 
REMARK    5  A    between atoms: N_28  and  C_10 
REMARK    6  A    between atoms: C_14  and  C_11 
REMARK    7  A    between atoms: S_32  and  C_11 
REMARK    8  A    between atoms: C_14  and  C_18 
REMARK    9  A    between atoms: C_17  and  C_16 
REMARK   10  A    between atoms: C_19  and  C_17 
REMARK   11  A    between atoms: N_22  and  C_17 
REMARK       I    between atoms: N_22  and  C_18 
REMARK   12  A    between atoms: O_31  and  C_19 
ROOT
HETATM    1  C   UNK N   1      33.680  17.254   8.963  0.00  0.00     0.104 C 
ENDROOT
BRANCH   1   2
HETATM    2  C   UNK N   1      34.007  15.848   9.305  0.00  0.00     0.131 C 
HETATM    3  C   UNK N   1      34.370  15.061   8.225  0.00  0.00    -0.004 C 
HETATM    4  C   UNK N   1      35.652  14.505   8.346  0.00  0.00     0.013 C 
HETATM    5  C   UNK N   1      36.247  14.814   9.561  0.00  0.00    -0.001 C 
HETATM    6  S   UNK N   1      35.156  15.594  10.473  0.00  0.00    -0.117 SA
BRANCH   5   7
HETATM    7  C   UNK N   1      37.620  14.481   9.954  0.00  0.00     0.197 C 
BRANCH   7   8
HETATM    8  N   UNK N   1      37.533  13.428  10.931  0.00  0.00    -0.266 N 
HETATM    9  C   UNK N   1      37.757  12.131  10.729  0.00  0.00     0.220 A 
HETATM   10  N   UNK N   1      37.696  11.505  11.921  0.00  0.00    -0.279 N 
HETATM   11  N   UNK N   1      37.441  12.439  12.826  0.00  0.00    -0.227 N 
ATOM     12  HN  UNK N   1      37.823  10.507  12.093  1.00  0.00     0.189 HD
HETATM   13  N   UNK N   1      37.347  13.604  12.227  0.00  0.00    -0.225 N 
ATOM     14  HN  UNK N   1      37.335  12.278  13.828  1.00  0.00     0.210 HD
ATOM     15  HN  UNK N   1      37.161  14.496  12.686  1.00  0.00     0.210 HD
ENDBRANCH   7   8
ENDBRANCH   5   7
ENDBRANCH   1   2
BRANCH   1  16
HETATM   16  C   UNK N   1      34.548  18.040   8.035  0.00  0.00     0.190 C 
HETATM   17  O   UNK N   1      35.190  18.968   8.491  0.00  0.00    -0.645 OA
BRANCH  16  18
HETATM   18  O   UNK N   1      34.452  17.935   6.695  0.00  0.00    -0.772 OA
HETATM   19  H   UNK N   1      34.940  17.279   6.237  0.00  0.00     0.167 HD
ENDBRANCH  16  18
ENDBRANCH   1  16
BRANCH   1  20
HETATM   20  N   UNK N   1      32.471  17.708   8.992  0.00  0.00    -0.323 N 
HETATM   21  C   UNK N   1      31.236  18.038   8.536  0.00  0.00     0.227 C 
HETATM   22  O   UNK N   1      30.571  18.769   9.245  0.00  0.00    -0.273 OA
ATOM     23  HN  UNK N   1      32.399  17.998   9.968  1.00  0.00     0.169 HD
BRANCH  21  24
HETATM   24  C   UNK N   1      30.571  17.473   7.308  0.00  0.00     0.087 C 
BRANCH  24  25
HETATM   25  C   UNK N   1      29.092  17.192   7.600  0.00  0.00     0.019 C 
BRANCH  25  26
HETATM   26  C   UNK N   1      28.162  18.419   7.691  0.00  0.00     0.039 C 
BRANCH  26  27
HETATM   27  C   UNK N   1      27.824  19.115   6.408  0.00  0.00    -0.058 A 
HETATM   28  C   UNK N   1      27.404  20.454   6.438  0.00  0.00     0.007 A 
HETATM   29  C   UNK N   1      26.983  21.088   5.263  0.00  0.00     0.001 A 
HETATM   30  C   UNK N   1      26.981  20.385   4.054  0.00  0.00     0.000 A 
HETATM   31  C   UNK N   1      27.402  19.052   4.020  0.00  0.00     0.001 A 
HETATM   32  C   UNK N   1      27.811  18.415   5.197  0.00  0.00     0.007 A 
ENDBRANCH  26  27
ENDBRANCH  25  26
ENDBRANCH  24  25
BRANCH  24  33
HETATM   33  C   UNK N   1      31.325  16.263   6.755  0.00  0.00     0.084 C 
BRANCH  33  34
HETATM   34  S   UNK N   1      31.564  16.257   4.945  0.00  0.00    -0.181 SA
HETATM   35  H   UNK N   1      31.128  15.400   3.985  0.00  0.00     0.101 HD
ENDBRANCH  33  34
ENDBRANCH  24  33
ENDBRANCH  21  24
ENDBRANCH   1  20
TORSDOF 12
ENDMDL
MODEL 6
REMARK VINA RESULT:      -7.1      2.422      3.303
REMARK  12 active torsions:
REMARK  status: ('A' for Active; 'I' for Inactive)
REMARK    1  A    between atoms: C_7  and  C_6 
REMARK    2  A    between atoms: C_13  and  C_6 
REMARK    3  A    between atoms: C_14  and  C_7 
REMARK    4  A    between atoms: C_15  and  C_10 
REMARK    5  A    between atoms: N_28  and  C_10 
REMARK    6  A    between atoms: C_14  and  C_11 
REMARK    7  A    between atoms: S_32  and  C_11 
REMARK    8  A    between atoms: C_14  and  C_18 
REMARK    9  A    between atoms: C_17  and  C_16 
REMARK   10  A    between atoms: C_19  and  C_17 
REMARK   11  A    between atoms: N_22  and  C_17 
REMARK       I    between atoms: N_22  and  C_18 
REMARK   12  A    between atoms: O_31  and  C_19 
ROOT
HETATM    1  C   UNK N   1      34.789  15.777   9.108  0.00  0.00     0.104 C 
ENDROOT
BRANCH   1   2
HETATM    2  C   UNK N   1      35.120  14.340   8.945  0.00  0.00     0.131 C 
HETATM    3  C   UNK N   1      36.438  14.087   8.602  0.00  0.00    -0.004 C 
HETATM    4  C   UNK N   1      37.108  13.272   9.527  0.00  0.00     0.013 C 
HETATM    5  C   UNK N   1      36.275  12.842  10.550  0.00  0.00    -0.001 C 
HETATM    6  S   UNK N   1      34.766  13.327  10.209  0.00  0.00    -0.117 SA
BRANCH   5   7
HETATM    7  C   UNK N   1      36.689  12.073  11.728  0.00  0.00     0.197 C 
BRANCH   7   8
HETATM    8  N   UNK N   1      36.584  12.952  12.861  0.00  0.00    -0.266 N 
HETATM    9  C   UNK N   1      36.344  12.601  14.124  0.00  0.00     0.220 A 
HETATM   10  N   UNK N   1      36.452  13.703  14.892  0.00  0.00    -0.279 N 
HETATM   11  N   UNK N   1      36.761  14.702  14.079  0.00  0.00    -0.227 N 
ATOM     12  HN  UNK N   1      36.322  13.757  15.903  1.00  0.00     0.189 HD
HETATM   13  N   UNK N   1      36.845  14.246  12.850  0.00  0.00    -0.225 N 
ATOM     14  HN  UNK N   1      36.910  15.671  14.362  1.00  0.00     0.210 HD
ATOM     15  HN  UNK N   1      37.074  14.800  12.024  1.00  0.00     0.210 HD
ENDBRANCH   7   8
ENDBRANCH   5   7
ENDBRANCH   1   2
BRANCH   1  16
HETATM   16  C   UNK N   1      35.310  16.558  10.269  0.00  0.00     0.190 C 
HETATM   17  O   UNK N   1      35.180  16.090  11.386  0.00  0.00    -0.645 OA
BRANCH  16  18
HETATM   18  O   UNK N   1      35.676  17.851  10.164  0.00  0.00    -0.772 OA
HETATM   19  H   UNK N   1      35.480  18.335   9.387  0.00  0.00     0.167 HD
ENDBRANCH  16  18
ENDBRANCH   1  16
BRANCH   1  20
HETATM   20  N   UNK N   1      34.509  16.538   8.102  0.00  0.00    -0.323 N 
HETATM   21  C   UNK N   1      34.143  16.876   6.840  0.00  0.00     0.227 C 
HETATM   22  O   UNK N   1      34.344  18.028   6.504  0.00  0.00    -0.273 OA
ATOM     23  HN  UNK N   1      34.646  17.461   8.515  1.00  0.00     0.169 HD
BRANCH  21  24
HETATM   24  C   UNK N   1      33.391  15.996   5.874  0.00  0.00     0.087 C 
BRANCH  24  25
HETATM   25  C   UNK N   1      32.044  15.589   6.483  0.00  0.00     0.019 C 
BRANCH  25  26
HETATM   26  C   UNK N   1      30.826  16.456   6.101  0.00  0.00     0.039 C 
BRANCH  26  27
HETATM   27  C   UNK N   1      30.136  17.190   7.211  0.00  0.00    -0.058 A 
HETATM   28  C   UNK N   1      30.904  17.845   8.186  0.00  0.00     0.007 A 
HETATM   29  C   UNK N   1      30.281  18.446   9.287  0.00  0.00     0.001 A 
HETATM   30  C   UNK N   1      28.890  18.394   9.415  0.00  0.00     0.000 A 
HETATM   31  C   UNK N   1      28.123  17.745   8.443  0.00  0.00     0.001 A 
HETATM   32  C   UNK N   1      28.745  17.134   7.349  0.00  0.00     0.007 A 
ENDBRANCH  26  27
ENDBRANCH  25  26
ENDBRANCH  24  25
BRANCH  24  33
HETATM   33  C   UNK N   1      34.235  14.809   5.408  0.00  0.00     0.084 C 
BRANCH  33  34
HETATM   34  S   UNK N   1      33.479  13.168   5.672  0.00  0.00    -0.181 SA
HETATM   35  H   UNK N   1      32.181  12.765   5.660  0.00  0.00     0.101 HD
ENDBRANCH  33  34
ENDBRANCH  24  33
ENDBRANCH  21  24
ENDBRANCH   1  20
TORSDOF 12
ENDMDL
MODEL 7
REMARK VINA RESULT:      -7.1      9.135     12.573
REMARK  12 active torsions:
REMARK  status: ('A' for Active; 'I' for Inactive)
REMARK    1  A    between atoms: C_7  and  C_6 
REMARK    2  A    between atoms: C_13  and  C_6 
REMARK    3  A    between atoms: C_14  and  C_7 
REMARK    4  A    between atoms: C_15  and  C_10 
REMARK    5  A    between atoms: N_28  and  C_10 
REMARK    6  A    between atoms: C_14  and  C_11 
REMARK    7  A    between atoms: S_32  and  C_11 
REMARK    8  A    between atoms: C_14  and  C_18 
REMARK    9  A    between atoms: C_17  and  C_16 
REMARK   10  A    between atoms: C_19  and  C_17 
REMARK   11  A    between atoms: N_22  and  C_17 
REMARK       I    between atoms: N_22  and  C_18 
REMARK   12  A    between atoms: O_31  and  C_19 
ROOT
HETATM    1  C   UNK N   1      22.050  16.569   6.181  0.00  0.00     0.104 C 
ENDROOT
BRANCH   1   2
HETATM    2  C   UNK N   1      21.061  15.662   6.815  0.00  0.00     0.131 C 
HETATM    3  C   UNK N   1      21.272  15.432   8.164  0.00  0.00    -0.004 C 
HETATM    4  C   UNK N   1      20.187  15.808   8.970  0.00  0.00     0.013 C 
HETATM    5  C   UNK N   1      19.111  16.265   8.224  0.00  0.00    -0.001 C 
HETATM    6  S   UNK N   1      19.457  16.050   6.654  0.00  0.00    -0.117 SA
BRANCH   5   7
HETATM    7  C   UNK N   1      17.871  16.834   8.763  0.00  0.00     0.197 C 
BRANCH   7   8
HETATM    8  N   UNK N   1      18.240  17.998   9.524  0.00  0.00    -0.266 N 
HETATM    9  C   UNK N   1      17.643  18.454  10.625  0.00  0.00     0.220 A 
HETATM   10  N   UNK N   1      18.370  19.485  11.099  0.00  0.00    -0.279 N 
HETATM   11  N   UNK N   1      19.399  19.631  10.277  0.00  0.00    -0.227 N 
ATOM     12  HN  UNK N   1      18.167  20.043  11.928  1.00  0.00     0.189 HD
HETATM   13  N   UNK N   1      19.323  18.727   9.327  0.00  0.00    -0.225 N 
ATOM     14  HN  UNK N   1      20.134  20.333  10.368  1.00  0.00     0.210 HD
ATOM     15  HN  UNK N   1      19.989  18.609   8.563  1.00  0.00     0.210 HD
ENDBRANCH   7   8
ENDBRANCH   5   7
ENDBRANCH   1   2
BRANCH   1  16
HETATM   16  C   UNK N   1      21.765  18.027   6.025  0.00  0.00     0.190 C 
HETATM   17  O   UNK N   1      22.152  18.586   5.015  0.00  0.00    -0.645 OA
BRANCH  16  18
HETATM   18  O   UNK N   1      21.338  18.793   7.048  0.00  0.00    -0.772 OA
HETATM   19  H   UNK N   1      20.570  18.553   7.528  0.00  0.00     0.167 HD
ENDBRANCH  16  18
ENDBRANCH   1  16
BRANCH   1  20
HETATM   20  N   UNK N   1      23.318  16.324   6.197  0.00  0.00    -0.323 N 
HETATM   21  C   UNK N   1      24.533  15.931   5.735  0.00  0.00     0.227 C 
HETATM   22  O   UNK N   1      25.402  15.755   6.568  0.00  0.00    -0.273 OA
ATOM     23  HN  UNK N   1      23.556  16.601   7.149  1.00  0.00     0.169 HD
BRANCH  21  24
HETATM   24  C   UNK N   1      24.934  15.829   4.286  0.00  0.00     0.087 C 
BRANCH  24  25
HETATM   25  C   UNK N   1      25.229  17.226   3.728  0.00  0.00     0.019 C 
BRANCH  25  26
HETATM   26  C   UNK N   1      26.701  17.686   3.763  0.00  0.00     0.039 C 
BRANCH  26  27
HETATM   27  C   UNK N   1      27.044  18.802   4.703  0.00  0.00    -0.058 A 
HETATM   28  C   UNK N   1      27.594  18.502   5.959  0.00  0.00     0.007 A 
HETATM   29  C   UNK N   1      27.823  19.523   6.890  0.00  0.00     0.001 A 
HETATM   30  C   UNK N   1      27.503  20.845   6.568  0.00  0.00     0.000 A 
HETATM   31  C   UNK N   1      26.957  21.147   5.317  0.00  0.00     0.001 A 
HETATM   32  C   UNK N   1      26.717  20.126   4.390  0.00  0.00     0.007 A 
ENDBRANCH  26  27
ENDBRANCH  25  26
ENDBRANCH  24  25
BRANCH  24  33
HETATM   33  C   UNK N   1      23.909  15.046   3.464  0.00  0.00     0.084 C 
BRANCH  33  34
HETATM   34  S   UNK N   1      23.486  13.395   4.118  0.00  0.00    -0.181 SA
HETATM   35  H   UNK N   1      24.231  12.477   4.787  0.00  0.00     0.101 HD
ENDBRANCH  33  34
ENDBRANCH  24  33
ENDBRANCH  21  24
ENDBRANCH   1  20
TORSDOF 12
ENDMDL
MODEL 8
REMARK VINA RESULT:      -7.0      3.124     10.075
REMARK  12 active torsions:
REMARK  status: ('A' for Active; 'I' for Inactive)
REMARK    1  A    between atoms: C_7  and  C_6 
REMARK    2  A    between atoms: C_13  and  C_6 
REMARK    3  A    between atoms: C_14  and  C_7 
REMARK    4  A    between atoms: C_15  and  C_10 
REMARK    5  A    between atoms: N_28  and  C_10 
REMARK    6  A    between atoms: C_14  and  C_11 
REMARK    7  A    between atoms: S_32  and  C_11 
REMARK    8  A    between atoms: C_14  and  C_18 
REMARK    9  A    between atoms: C_17  and  C_16 
REMARK   10  A    between atoms: C_19  and  C_17 
REMARK   11  A    between atoms: N_22  and  C_17 
REMARK       I    between atoms: N_22  and  C_18 
REMARK   12  A    between atoms: O_31  and  C_19 
ROOT
HETATM    1  C   UNK N   1      33.124  16.140   8.738  0.00  0.00     0.104 C 
ENDROOT
BRANCH   1   2
HETATM    2  C   UNK N   1      32.324  17.261   8.188  0.00  0.00     0.131 C 
HETATM    3  C   UNK N   1      32.227  17.277   6.807  0.00  0.00    -0.004 C 
HETATM    4  C   UNK N   1      30.905  17.213   6.341  0.00  0.00     0.013 C 
HETATM    5  C   UNK N   1      29.981  17.218   7.375  0.00  0.00    -0.001 C 
HETATM    6  S   UNK N   1      30.781  17.453   8.766  0.00  0.00    -0.117 SA
BRANCH   5   7
HETATM    7  C   UNK N   1      28.531  17.050   7.232  0.00  0.00     0.197 C 
BRANCH   7   8
HETATM    8  N   UNK N   1      27.950  18.366   7.281  0.00  0.00    -0.266 N 
HETATM    9  C   UNK N   1      27.638  19.139   6.242  0.00  0.00     0.220 A 
HETATM   10  N   UNK N   1      27.001  20.231   6.710  0.00  0.00    -0.279 N 
HETATM   11  N   UNK N   1      26.935  20.095   8.027  0.00  0.00    -0.227 N 
ATOM     12  HN  UNK N   1      26.640  21.010   6.158  1.00  0.00     0.189 HD
HETATM   13  N   UNK N   1      27.506  18.963   8.372  0.00  0.00    -0.225 N 
ATOM     14  HN  UNK N   1      26.510  20.763   8.669  1.00  0.00     0.210 HD
ATOM     15  HN  UNK N   1      27.592  18.606   9.323  1.00  0.00     0.210 HD
ENDBRANCH   7   8
ENDBRANCH   5   7
ENDBRANCH   1   2
BRANCH   1  16
HETATM   16  C   UNK N   1      33.188  14.824   8.034  0.00  0.00     0.190 C 
HETATM   17  O   UNK N   1      32.284  14.027   8.214  0.00  0.00    -0.645 OA
BRANCH  16  18
HETATM   18  O   UNK N   1      34.307  14.384   7.426  0.00  0.00    -0.772 OA
HETATM   19  H   UNK N   1      34.998  14.982   7.220  0.00  0.00     0.167 HD
ENDBRANCH  16  18
ENDBRANCH   1  16
BRANCH   1  20
HETATM   20  N   UNK N   1      34.155  16.333   9.492  0.00  0.00    -0.323 N 
HETATM   21  C   UNK N   1      35.019  16.141  10.521  0.00  0.00     0.227 C 
HETATM   22  O   UNK N   1      35.815  17.034  10.739  0.00  0.00    -0.273 OA
ATOM     23  HN  UNK N   1      34.595  17.121   9.017  1.00  0.00     0.169 HD
BRANCH  21  24
HETATM   24  C   UNK N   1      35.169  14.872  11.321  0.00  0.00     0.087 C 
BRANCH  24  25
HETATM   25  C   UNK N   1      35.985  15.149  12.589  0.00  0.00     0.019 C 
BRANCH  25  26
HETATM   26  C   UNK N   1      36.396  13.921  13.426  0.00  0.00     0.039 C 
BRANCH  26  27
HETATM   27  C   UNK N   1      36.062  13.948  14.887  0.00  0.00    -0.058 A 
HETATM   28  C   UNK N   1      36.824  14.745  15.754  0.00  0.00     0.007 A 
HETATM   29  C   UNK N   1      36.595  14.703  17.135  0.00  0.00     0.001 A 
HETATM   30  C   UNK N   1      35.604  13.864  17.652  0.00  0.00     0.000 A 
HETATM   31  C   UNK N   1      34.841  13.071  16.789  0.00  0.00     0.001 A 
HETATM   32  C   UNK N   1      35.077  13.104  15.410  0.00  0.00     0.007 A 
ENDBRANCH  26  27
ENDBRANCH  25  26
ENDBRANCH  24  25
BRANCH  24  33
HETATM   33  C   UNK N   1      35.725  13.726  10.474  0.00  0.00     0.084 C 
BRANCH  33  34
HETATM   34  S   UNK N   1      37.301  14.081   9.625  0.00  0.00    -0.181 SA
HETATM   35  H   UNK N   1      37.847  15.250   9.199  0.00  0.00     0.101 HD
ENDBRANCH  33  34
ENDBRANCH  24  33
ENDBRANCH  21  24
ENDBRANCH   1  20
TORSDOF 12
ENDMDL
MODEL 9
REMARK VINA RESULT:      -6.9      4.742     10.056
REMARK  12 active torsions:
REMARK  status: ('A' for Active; 'I' for Inactive)
REMARK    1  A    between atoms: C_7  and  C_6 
REMARK    2  A    between atoms: C_13  and  C_6 
REMARK    3  A    between atoms: C_14  and  C_7 
REMARK    4  A    between atoms: C_15  and  C_10 
REMARK    5  A    between atoms: N_28  and  C_10 
REMARK    6  A    between atoms: C_14  and  C_11 
REMARK    7  A    between atoms: S_32  and  C_11 
REMARK    8  A    between atoms: C_14  and  C_18 
REMARK    9  A    between atoms: C_17  and  C_16 
REMARK   10  A    between atoms: C_19  and  C_17 
REMARK   11  A    between atoms: N_22  and  C_17 
REMARK       I    between atoms: N_22  and  C_18 
REMARK   12  A    between atoms: O_31  and  C_19 
ROOT
HETATM    1  C   UNK N   1      36.258  13.494  12.799  0.00  0.00     0.104 C 
ENDROOT
BRANCH   1   2
HETATM    2  C   UNK N   1      35.251  14.305  12.072  0.00  0.00     0.131 C 
HETATM    3  C   UNK N   1      35.615  15.626  11.865  0.00  0.00    -0.004 C 
HETATM    4  C   UNK N   1      35.651  15.988  10.510  0.00  0.00     0.013 C 
HETATM    5  C   UNK N   1      35.246  14.955   9.678  0.00  0.00    -0.001 C 
HETATM    6  S   UNK N   1      34.723  13.733  10.607  0.00  0.00    -0.117 SA
BRANCH   5   7
HETATM    7  C   UNK N   1      35.274  14.972   8.212  0.00  0.00     0.197 C 
BRANCH   7   8
HETATM    8  N   UNK N   1      34.272  15.911   7.783  0.00  0.00    -0.266 N 
HETATM    9  C   UNK N   1      32.952  15.784   7.912  0.00  0.00     0.220 A 
HETATM   10  N   UNK N   1      32.379  16.933   7.503  0.00  0.00    -0.279 N 
HETATM   11  N   UNK N   1      33.366  17.739   7.137  0.00  0.00    -0.227 N 
ATOM     12  HN  UNK N   1      31.380  17.142   7.479  1.00  0.00     0.189 HD
HETATM   13  N   UNK N   1      34.512  17.121   7.312  0.00  0.00    -0.225 N 
ATOM     14  HN  UNK N   1      33.253  18.687   6.778  1.00  0.00     0.210 HD
ATOM     15  HN  UNK N   1      35.435  17.511   7.116  1.00  0.00     0.210 HD
ENDBRANCH   7   8
ENDBRANCH   5   7
ENDBRANCH   1   2
BRANCH   1  16
HETATM   16  C   UNK N   1      37.247  12.654  12.059  0.00  0.00     0.190 C 
HETATM   17  O   UNK N   1      37.287  11.461  12.299  0.00  0.00    -0.645 OA
BRANCH  16  18
HETATM   18  O   UNK N   1      38.256  13.189  11.342  0.00  0.00    -0.772 OA
HETATM   19  H   UNK N   1      38.667  12.692  10.664  0.00  0.00     0.167 HD
ENDBRANCH  16  18
ENDBRANCH   1  16
BRANCH   1  20
HETATM   20  N   UNK N   1      36.684  13.816  13.975  0.00  0.00    -0.323 N 
HETATM   21  C   UNK N   1      36.684  13.936  15.327  0.00  0.00     0.227 C 
HETATM   22  O   UNK N   1      37.504  14.696  15.807  0.00  0.00    -0.273 OA
ATOM     23  HN  UNK N   1      37.578  14.249  13.744  1.00  0.00     0.169 HD
BRANCH  21  24
HETATM   24  C   UNK N   1      35.860  13.114  16.285  0.00  0.00     0.087 C 
BRANCH  24  25
HETATM   25  C   UNK N   1      34.628  12.555  15.564  0.00  0.00     0.019 C 
BRANCH  25  26
HETATM   26  C   UNK N   1      34.420  11.029  15.636  0.00  0.00     0.039 C 
BRANCH  26  27
HETATM   27  C   UNK N   1      34.637  10.251  14.372  0.00  0.00    -0.058 A 
HETATM   28  C   UNK N   1      33.906  10.586  13.222  0.00  0.00     0.007 A 
HETATM   29  C   UNK N   1      34.017   9.806  12.064  0.00  0.00     0.001 A 
HETATM   30  C   UNK N   1      34.858   8.690  12.054  0.00  0.00     0.000 A 
HETATM   31  C   UNK N   1      35.589   8.355  13.198  0.00  0.00     0.001 A 
HETATM   32  C   UNK N   1      35.470   9.128  14.359  0.00  0.00     0.007 A 
ENDBRANCH  26  27
ENDBRANCH  25  26
ENDBRANCH  24  25
BRANCH  24  33
HETATM   33  C   UNK N   1      35.524  13.889  17.560  0.00  0.00     0.084 C 
BRANCH  33  34
HETATM   34  S   UNK N   1      35.214  12.860  19.036  0.00  0.00    -0.181 SA
HETATM   35  H   UNK N   1      34.074  12.612  19.733  0.00  0.00     0.101 HD
ENDBRANCH  33  34
ENDBRANCH  24  33
ENDBRANCH  21  24
ENDBRANCH   1  20
TORSDOF 12
ENDMDL
