MODEL 1
REMARK VINA RESULT:      -7.8      0.000      0.000
REMARK WARNING: 32 MAX_TORS EXCEEDED!!!
REMARK  44 active torsions:
REMARK  status: ('A' for Active; 'I' for Inactive)
REMARK    1  A    between atoms: C_5  and  C_1 
REMARK    2  A    between atoms: C_9  and  C_1 
REMARK    3  A    between atoms: C_6  and  C_2 
REMARK    4  A    between atoms: C_10  and  C_2 
REMARK    5  A    between atoms: C_7  and  C_3 
REMARK    6  A    between atoms: C_11  and  C_3 
REMARK    7  A    between atoms: C_8  and  C_4 
REMARK    8  A    between atoms: C_12  and  C_4 
REMARK    9  A    between atoms: N_53  and  C_5 
REMARK   10  A    between atoms: N_55  and  C_6 
REMARK   11  A    between atoms: N_57  and  C_7 
REMARK   12  A    between atoms: N_59  and  C_8 
REMARK   13  A    between atoms: N_61  and  C_9 
REMARK   14  A    between atoms: N_62  and  C_10 
REMARK   15  A    between atoms: N_63  and  C_11 
REMARK   16  A    between atoms: N_64  and  C_12 
REMARK   17  A    between atoms: C_38  and  C_27 
REMARK   18  A    between atoms: O_67  and  C_27 
REMARK   19  A    between atoms: C_39  and  C_28 
REMARK   20  A    between atoms: O_68  and  C_28 
REMARK   21  A    between atoms: C_33  and  C_29 
REMARK   22  A    between atoms: O_83  and  C_29 
REMARK   23  A    between atoms: C_33  and  C_30 
REMARK   24  A    between atoms: O_84  and  C_30 
REMARK   25  A    between atoms: C_46  and  C_31 
REMARK   26  A    between atoms: C_47  and  C_32 
REMARK   27  A    between atoms: N_52  and  C_33 
REMARK   28  A    between atoms: N_65  and  C_34 
REMARK   29  A    between atoms: N_66  and  C_35 
REMARK   30  A    between atoms: O_85  and  C_36 
REMARK   31  A    between atoms: O_86  and  C_37 
REMARK   32  A    between atoms: C_40  and  O_69 
REMARK   33  A    between atoms: O_70  and  C_41 
REMARK   34  A    between atoms: C_42  and  O_71 
REMARK   35  A    between atoms: O_72  and  C_43 
REMARK   36  A    between atoms: O_74  and  C_45 
REMARK   37  A    between atoms: O_75  and  C_46 
REMARK   38  A    between atoms: O_76  and  C_47 
REMARK   39  A    between atoms: C_48  and  O_85 
REMARK   40  A    between atoms: O_86  and  C_49 
REMARK   41  A    between atoms: O_77  and  C_50 
REMARK   42  A    between atoms: O_83  and  C_50 
REMARK   43  A    between atoms: O_78  and  C_51 
REMARK   44  A    between atoms: O_84  and  C_51 
ROOT
HETATM    1  C   UNK N   1      35.449   9.122  12.264  0.00  0.00     0.179 C 
HETATM    2  C   UNK N   1      35.751   7.618  12.054  0.00  0.00     0.180 C 
HETATM    3  C   UNK N   1      37.078   7.287  12.726  0.00  0.00     0.183 C 
HETATM    4  C   UNK N   1      37.026   7.711  14.179  0.00  0.00     0.205 C 
HETATM    5  C   UNK N   1      36.624   9.204  14.283  0.00  0.00     0.298 C 
HETATM    6  O   UNK N   1      36.105   6.929  14.886  0.00  0.00    -0.388 OA
HETATM    7  O   UNK N   1      35.377   9.413  13.647  0.00  0.00    -0.348 OA
HETATM    8  H   UNK N   1      35.489   6.274  15.253  0.00  0.00     0.210 HD
ENDROOT
BRANCH   3   9
HETATM    9  O   UNK N   1      37.351   5.917  12.644  0.00  0.00    -0.390 OA
HETATM   10  H   UNK N   1      36.970   5.243  13.228  0.00  0.00     0.210 HD
ENDBRANCH   3   9
BRANCH   5  11
HETATM   11  O   UNK N   1      36.484   9.665  15.587  0.00  0.00    -0.318 OA
BRANCH  11  12
HETATM   12  C   UNK N   1      36.107  10.895  16.015  0.00  0.00     0.075 A 
HETATM   13  C   UNK N   1      36.283  11.964  15.161  0.00  0.00     0.052 A 
HETATM   14  C   UNK N   1      35.991  13.257  15.592  0.00  0.00     0.019 A 
HETATM   15  C   UNK N   1      35.464  13.479  16.858  0.00  0.00     0.052 A 
HETATM   16  C   UNK N   1      35.313  12.424  17.739  0.00  0.00     0.106 A 
HETATM   17  C   UNK N   1      35.656  11.147  17.314  0.00  0.00     0.073 A 
BRANCH  14  18
HETATM   18  C   UNK N   1      36.784  14.341  15.016  0.00  0.00     0.146 C 
HETATM   19  N   UNK N   1      36.571  14.841  13.841  0.00  0.00    -0.370 N 
ATOM     20  HN  UNK N   1      37.046  15.710  13.600  1.00  0.00     0.161 HD
BRANCH  19  21
HETATM   21  C   UNK N   1      35.705  14.248  12.852  0.00  0.00     0.123 C 
BRANCH  21  22
HETATM   22  C   UNK N   1      36.550  13.875  11.630  0.00  0.00     0.050 C 
BRANCH  22  23
HETATM   23  C   UNK N   1      36.506  14.992  10.570  0.00  0.00     0.274 C 
BRANCH  23  24
HETATM   24  N   UNK N   1      35.166  15.346  10.069  0.00  0.00     0.091 N 
HETATM   25  C   UNK N   1      34.939  16.810   9.963  0.00  0.00     0.291 C 
HETATM   26  C   UNK N   1      33.853  17.180   8.968  0.00  0.00     0.147 C 
HETATM   27  N   UNK N   1      32.988  16.031   8.916  0.00  0.00    -0.409 N 
HETATM   28  C   UNK N   1      33.587  14.943   8.165  0.00  0.00     0.147 C 
HETATM   29  C   UNK N   1      34.978  14.656   8.775  0.00  0.00     0.291 C 
BRANCH  27  30
HETATM   30  C   UNK N   1      31.603  16.359   8.699  0.00  0.00     0.118 C 
BRANCH  30  31
HETATM   31  C   UNK N   1      31.353  16.289   7.191  0.00  0.00     0.039 C 
BRANCH  31  32
HETATM   32  C   UNK N   1      30.223  17.215   6.703  0.00  0.00     0.125 C 
BRANCH  32  33
HETATM   33  N   UNK N   1      29.264  17.473   7.765  0.00  0.00    -0.350 N 
HETATM   34  C   UNK N   1      28.387  18.436   7.821  0.00  0.00     0.258 C 
ATOM     35  HN  UNK N   1      29.280  16.828   8.555  1.00  0.00     0.163 HD
BRANCH  34  36
HETATM   36  O   UNK N   1      27.633  18.550   8.928  0.00  0.00    -0.327 OA
HETATM   37  H   UNK N   1      26.830  18.948   9.202  0.00  0.00     0.221 HD
ENDBRANCH  34  36
BRANCH  34  38
HETATM   38  O   UNK N   1      28.189  19.348   6.826  0.00  0.00    -0.315 OA
BRANCH  38  39
HETATM   39  C   UNK N   1      27.147  19.357   5.935  0.00  0.00     0.206 C 
BRANCH  39  40
HETATM   40  C   UNK N   1      26.725  17.940   5.568  0.00  0.00     0.123 C 
BRANCH  40  41
HETATM   41  C   UNK N   1      27.233  17.753   4.157  0.00  0.00     0.206 C 
BRANCH  41  42
HETATM   42  O   UNK N   1      26.292  17.291   3.272  0.00  0.00    -0.315 OA
BRANCH  42  43
HETATM   43  C   UNK N   1      26.165  15.977   2.968  0.00  0.00     0.258 C 
HETATM   44  N   UNK N   1      25.459  15.651   1.949  0.00  0.00    -0.350 N 
ATOM     45  HN  UNK N   1      25.063  16.403   1.382  1.00  0.00     0.163 HD
BRANCH  44  46
HETATM   46  C   UNK N   1      25.185  14.295   1.552  0.00  0.00     0.125 C 
BRANCH  46  47
HETATM   47  C   UNK N   1      23.735  14.187   1.077  0.00  0.00     0.050 C 
BRANCH  47  48
HETATM   48  C   UNK N   1      23.472  13.052   0.063  0.00  0.00     0.274 C 
BRANCH  48  49
HETATM   49  N   UNK N   1      22.891  11.846   0.666  0.00  0.00     0.091 N 
HETATM   50  C   UNK N   1      23.909  10.783   0.713  0.00  0.00     0.302 C 
HETATM   51  C   UNK N   1      24.578  10.636   2.095  0.00  0.00     0.302 C 
HETATM   52  N   UNK N   1      23.641  10.684   3.236  0.00  0.00     0.091 N 
HETATM   53  C   UNK N   1      22.264  10.938   2.858  0.00  0.00     0.302 C 
HETATM   54  C   UNK N   1      22.284  12.152   1.973  0.00  0.00     0.302 C 
BRANCH  52  55
HETATM   55  C   UNK N   1      23.699   9.508   4.095  0.00  0.00     0.274 C 
BRANCH  55  56
HETATM   56  C   UNK N   1      23.051   9.710   5.464  0.00  0.00     0.050 C 
BRANCH  56  57
HETATM   57  C   UNK N   1      24.055  10.446   6.319  0.00  0.00     0.123 C 
BRANCH  57  58
HETATM   58  N   UNK N   1      23.594  11.793   6.397  0.00  0.00    -0.370 N 
HETATM   59  C   UNK N   1      24.270  12.811   5.994  0.00  0.00     0.146 C 
ATOM     60  HN  UNK N   1      22.671  11.960   6.796  1.00  0.00     0.161 HD
BRANCH  59  61
HETATM   61  C   UNK N   1      23.652  14.080   6.207  0.00  0.00     0.019 A 
HETATM   62  C   UNK N   1      22.735  14.179   7.266  0.00  0.00     0.052 A 
HETATM   63  C   UNK N   1      21.610  14.997   7.164  0.00  0.00     0.106 A 
HETATM   64  C   UNK N   1      21.392  15.663   5.968  0.00  0.00     0.073 A 
HETATM   65  C   UNK N   1      22.333  15.601   4.940  0.00  0.00     0.075 A 
HETATM   66  C   UNK N   1      23.436  14.792   5.049  0.00  0.00     0.052 A 
BRANCH  63  67
HETATM   67  N   UNK N   1      20.684  15.128   8.238  0.00  0.00    -0.116 N 
HETATM   68  O   UNK N   1      20.682  16.115   8.911  0.00  0.00    -0.532 OA
HETATM   69  O   UNK N   1      19.937  14.235   8.502  0.00  0.00    -0.532 OA
ENDBRANCH  63  67
BRANCH  65  70
HETATM   70  O   UNK N   1      22.209  16.347   3.846  0.00  0.00    -0.318 OA
BRANCH  70  71
HETATM   71  C   UNK N   1      21.919  17.687   3.940  0.00  0.00     0.298 C 
HETATM   72  C   UNK N   1      20.676  18.050   3.067  0.00  0.00     0.205 C 
HETATM   73  C   UNK N   1      20.526  19.548   2.914  0.00  0.00     0.183 C 
HETATM   74  C   UNK N   1      21.861  20.188   2.551  0.00  0.00     0.180 C 
HETATM   75  C   UNK N   1      22.882  19.761   3.621  0.00  0.00     0.179 C 
HETATM   76  O   UNK N   1      23.074  18.369   3.505  0.00  0.00    -0.348 OA
BRANCH  72  77
HETATM   77  O   UNK N   1      19.484  17.606   3.646  0.00  0.00    -0.388 OA
HETATM   78  H   UNK N   1      18.604  18.011   3.708  0.00  0.00     0.210 HD
ENDBRANCH  72  77
BRANCH  73  79
HETATM   79  O   UNK N   1      19.563  19.819   1.938  0.00  0.00    -0.390 OA
HETATM   80  H   UNK N   1      19.806  19.921   1.004  0.00  0.00     0.210 HD
ENDBRANCH  73  79
BRANCH  74  81
HETATM   81  O   UNK N   1      21.705  21.574   2.522  0.00  0.00    -0.390 OA
HETATM   82  H   UNK N   1      21.478  22.136   3.279  0.00  0.00     0.210 HD
ENDBRANCH  74  81
BRANCH  75  83
HETATM   83  C   UNK N   1      24.232  20.435   3.437  0.00  0.00     0.198 C 
BRANCH  83  84
HETATM   84  O   UNK N   1      24.355  20.921   2.136  0.00  0.00    -0.398 OA
HETATM   85  H   UNK N   1      23.981  20.638   1.287  0.00  0.00     0.209 HD
ENDBRANCH  83  84
ENDBRANCH  75  83
ENDBRANCH  70  71
ENDBRANCH  65  70
ENDBRANCH  59  61
BRANCH  59  86
HETATM   86  O   UNK N   1      25.454  12.682   5.360  0.00  0.00    -0.346 OA
HETATM   87  H   UNK N   1      25.909  13.082   4.645  0.00  0.00     0.219 HD
ENDBRANCH  59  86
ENDBRANCH  57  58
ENDBRANCH  56  57
ENDBRANCH  55  56
ENDBRANCH  52  55
ENDBRANCH  48  49
ENDBRANCH  47  48
ENDBRANCH  46  47
ENDBRANCH  44  46
BRANCH  43  88
HETATM   88  O   UNK N   1      26.751  15.029   3.726  0.00  0.00    -0.327 OA
HETATM   89  H   UNK N   1      27.179  14.227   3.499  0.00  0.00     0.221 HD
ENDBRANCH  43  88
ENDBRANCH  42  43
ENDBRANCH  41  42
ENDBRANCH  40  41
BRANCH  40  90
HETATM   90  N   UNK N   1      25.280  17.809   5.633  0.00  0.00    -0.422 N 
HETATM   91  H   UNK N   1      24.827  17.134   6.248  0.00  0.00     0.150 HD
HETATM   92  H   UNK N   1      24.702  18.410   5.047  0.00  0.00     0.150 HD
ENDBRANCH  40  90
ENDBRANCH  39  40
ENDBRANCH  38  39
ENDBRANCH  34  38
ENDBRANCH  32  33
ENDBRANCH  31  32
ENDBRANCH  30  31
ENDBRANCH  27  30
ENDBRANCH  23  24
ENDBRANCH  22  23
ENDBRANCH  21  22
ENDBRANCH  19  21
BRANCH  18  93
HETATM   93  O   UNK N   1      37.737  14.892  15.793  0.00  0.00    -0.346 OA
HETATM   94  H   UNK N   1      38.517  15.393  15.653  0.00  0.00     0.219 HD
ENDBRANCH  18  93
ENDBRANCH  14  18
BRANCH  16  95
HETATM   95  N   UNK N   1      35.055  12.696  19.107  0.00  0.00    -0.116 N 
HETATM   96  O   UNK N   1      35.017  11.785  19.888  0.00  0.00    -0.532 OA
HETATM   97  O   UNK N   1      35.104  13.811  19.516  0.00  0.00    -0.532 OA
ENDBRANCH  16  95
ENDBRANCH  11  12
ENDBRANCH   5  11
BRANCH   2  98
HETATM   98  O   UNK N   1      35.838   7.308  10.696  0.00  0.00    -0.390 OA
HETATM   99  H   UNK N   1      36.683   7.283  10.219  0.00  0.00     0.210 HD
ENDBRANCH   2  98
BRANCH   1 100
HETATM  100  C   UNK N   1      34.103   9.501  11.658  0.00  0.00     0.198 C 
BRANCH 100 101
HETATM  101  O   UNK N   1      33.444  10.437  12.453  0.00  0.00    -0.398 OA
HETATM  102  H   UNK N   1      33.703  11.370  12.525  0.00  0.00     0.209 HD
ENDBRANCH 100 101
ENDBRANCH   1 100
TORSDOF 44
ENDMDL
MODEL 2
REMARK VINA RESULT:      -7.7      3.465      7.269
REMARK WARNING: 32 MAX_TORS EXCEEDED!!!
REMARK  44 active torsions:
REMARK  status: ('A' for Active; 'I' for Inactive)
REMARK    1  A    between atoms: C_5  and  C_1 
REMARK    2  A    between atoms: C_9  and  C_1 
REMARK    3  A    between atoms: C_6  and  C_2 
REMARK    4  A    between atoms: C_10  and  C_2 
REMARK    5  A    between atoms: C_7  and  C_3 
REMARK    6  A    between atoms: C_11  and  C_3 
REMARK    7  A    between atoms: C_8  and  C_4 
REMARK    8  A    between atoms: C_12  and  C_4 
REMARK    9  A    between atoms: N_53  and  C_5 
REMARK   10  A    between atoms: N_55  and  C_6 
REMARK   11  A    between atoms: N_57  and  C_7 
REMARK   12  A    between atoms: N_59  and  C_8 
REMARK   13  A    between atoms: N_61  and  C_9 
REMARK   14  A    between atoms: N_62  and  C_10 
REMARK   15  A    between atoms: N_63  and  C_11 
REMARK   16  A    between atoms: N_64  and  C_12 
REMARK   17  A    between atoms: C_38  and  C_27 
REMARK   18  A    between atoms: O_67  and  C_27 
REMARK   19  A    between atoms: C_39  and  C_28 
REMARK   20  A    between atoms: O_68  and  C_28 
REMARK   21  A    between atoms: C_33  and  C_29 
REMARK   22  A    between atoms: O_83  and  C_29 
REMARK   23  A    between atoms: C_33  and  C_30 
REMARK   24  A    between atoms: O_84  and  C_30 
REMARK   25  A    between atoms: C_46  and  C_31 
REMARK   26  A    between atoms: C_47  and  C_32 
REMARK   27  A    between atoms: N_52  and  C_33 
REMARK   28  A    between atoms: N_65  and  C_34 
REMARK   29  A    between atoms: N_66  and  C_35 
REMARK   30  A    between atoms: O_85  and  C_36 
REMARK   31  A    between atoms: O_86  and  C_37 
REMARK   32  A    between atoms: C_40  and  O_69 
REMARK   33  A    between atoms: O_70  and  C_41 
REMARK   34  A    between atoms: C_42  and  O_71 
REMARK   35  A    between atoms: O_72  and  C_43 
REMARK   36  A    between atoms: O_74  and  C_45 
REMARK   37  A    between atoms: O_75  and  C_46 
REMARK   38  A    between atoms: O_76  and  C_47 
REMARK   39  A    between atoms: C_48  and  O_85 
REMARK   40  A    between atoms: O_86  and  C_49 
REMARK   41  A    between atoms: O_77  and  C_50 
REMARK   42  A    between atoms: O_83  and  C_50 
REMARK   43  A    between atoms: O_78  and  C_51 
REMARK   44  A    between atoms: O_84  and  C_51 
ROOT
HETATM    1  C   UNK N   1      35.591  12.675  10.874  0.00  0.00     0.179 C 
HETATM    2  C   UNK N   1      36.476  13.815  11.433  0.00  0.00     0.180 C 
HETATM    3  C   UNK N   1      36.475  14.968  10.436  0.00  0.00     0.183 C 
HETATM    4  C   UNK N   1      35.047  15.379  10.143  0.00  0.00     0.205 C 
HETATM    5  C   UNK N   1      34.223  14.149   9.683  0.00  0.00     0.298 C 
HETATM    6  O   UNK N   1      34.454  15.939  11.282  0.00  0.00    -0.388 OA
HETATM    7  O   UNK N   1      34.269  13.140  10.675  0.00  0.00    -0.348 OA
HETATM    8  H   UNK N   1      34.201  16.357  12.120  0.00  0.00     0.210 HD
ENDROOT
BRANCH   3   9
HETATM    9  O   UNK N   1      37.187  16.062  10.937  0.00  0.00    -0.390 OA
HETATM   10  H   UNK N   1      38.110  16.266  10.719  0.00  0.00     0.210 HD
ENDBRANCH   3   9
BRANCH   5  11
HETATM   11  O   UNK N   1      32.878  14.419   9.456  0.00  0.00    -0.318 OA
BRANCH  11  12
HETATM   12  C   UNK N   1      32.326  15.302   8.589  0.00  0.00     0.075 A 
HETATM   13  C   UNK N   1      32.895  15.430   7.339  0.00  0.00     0.052 A 
HETATM   14  C   UNK N   1      32.415  16.389   6.448  0.00  0.00     0.019 A 
HETATM   15  C   UNK N   1      31.323  17.181   6.782  0.00  0.00     0.052 A 
HETATM   16  C   UNK N   1      30.762  17.091   8.042  0.00  0.00     0.106 A 
HETATM   17  C   UNK N   1      31.284  16.167   8.938  0.00  0.00     0.073 A 
BRANCH  14  18
HETATM   18  C   UNK N   1      33.379  16.965   5.514  0.00  0.00     0.146 C 
HETATM   19  N   UNK N   1      33.445  16.645   4.261  0.00  0.00    -0.370 N 
ATOM     20  HN  UNK N   1      34.017  17.228   3.650  1.00  0.00     0.161 HD
BRANCH  19  21
HETATM   21  C   UNK N   1      32.763  15.519   3.674  0.00  0.00     0.123 C 
BRANCH  21  22
HETATM   22  C   UNK N   1      33.708  14.313   3.700  0.00  0.00     0.050 C 
BRANCH  22  23
HETATM   23  C   UNK N   1      32.917  12.995   3.600  0.00  0.00     0.274 C 
BRANCH  23  24
HETATM   24  N   UNK N   1      31.489  13.129   3.261  0.00  0.00     0.091 N 
HETATM   25  C   UNK N   1      31.151  12.629   1.904  0.00  0.00     0.291 C 
HETATM   26  C   UNK N   1      29.691  12.241   1.751  0.00  0.00     0.147 C 
HETATM   27  N   UNK N   1      28.990  13.040   2.722  0.00  0.00    -0.409 N 
HETATM   28  C   UNK N   1      29.191  12.543   4.071  0.00  0.00     0.147 C 
HETATM   29  C   UNK N   1      30.713  12.446   4.317  0.00  0.00     0.291 C 
BRANCH  27  30
HETATM   30  C   UNK N   1      27.669  13.431   2.304  0.00  0.00     0.118 C 
BRANCH  30  31
HETATM   31  C   UNK N   1      27.714  14.932   2.010  0.00  0.00     0.039 C 
BRANCH  31  32
HETATM   32  C   UNK N   1      29.076  15.585   2.313  0.00  0.00     0.125 C 
BRANCH  32  33
HETATM   33  N   UNK N   1      28.907  16.819   3.063  0.00  0.00    -0.350 N 
HETATM   34  C   UNK N   1      28.684  16.941   4.342  0.00  0.00     0.258 C 
ATOM     35  HN  UNK N   1      28.970  17.685   2.529  1.00  0.00     0.163 HD
BRANCH  34  36
HETATM   36  O   UNK N   1      28.484  18.174   4.841  0.00  0.00    -0.327 OA
HETATM   37  H   UNK N   1      27.982  18.595   5.510  0.00  0.00     0.221 HD
ENDBRANCH  34  36
BRANCH  34  38
HETATM   38  O   UNK N   1      28.632  15.893   5.213  0.00  0.00    -0.315 OA
BRANCH  38  39
HETATM   39  C   UNK N   1      27.495  15.272   5.661  0.00  0.00     0.206 C 
BRANCH  39  40
HETATM   40  C   UNK N   1      26.654  16.212   6.515  0.00  0.00     0.123 C 
BRANCH  40  41
HETATM   41  C   UNK N   1      26.032  15.313   7.559  0.00  0.00     0.206 C 
BRANCH  41  42
HETATM   42  O   UNK N   1      25.538  14.131   7.068  0.00  0.00    -0.315 OA
BRANCH  42  43
HETATM   43  C   UNK N   1      24.967  13.197   7.865  0.00  0.00     0.258 C 
HETATM   44  N   UNK N   1      24.394  12.192   7.313  0.00  0.00    -0.350 N 
ATOM     45  HN  UNK N   1      24.438  12.116   6.296  1.00  0.00     0.163 HD
BRANCH  44  46
HETATM   46  C   UNK N   1      23.691  11.162   8.034  0.00  0.00     0.125 C 
BRANCH  46  47
HETATM   47  C   UNK N   1      23.527   9.935   7.136  0.00  0.00     0.050 C 
BRANCH  47  48
HETATM   48  C   UNK N   1      24.397   9.949   5.860  0.00  0.00     0.274 C 
BRANCH  48  49
HETATM   49  N   UNK N   1      23.646   9.674   4.630  0.00  0.00     0.091 N 
HETATM   50  C   UNK N   1      22.552  10.652   4.496  0.00  0.00     0.302 C 
HETATM   51  C   UNK N   1      22.880  11.811   3.532  0.00  0.00     0.302 C 
HETATM   52  N   UNK N   1      23.531  11.393   2.273  0.00  0.00     0.091 N 
HETATM   53  C   UNK N   1      23.816   9.974   2.200  0.00  0.00     0.302 C 
HETATM   54  C   UNK N   1      24.546   9.621   3.465  0.00  0.00     0.302 C 
BRANCH  52  55
HETATM   55  C   UNK N   1      22.813  11.807   1.074  0.00  0.00     0.274 C 
BRANCH  55  56
HETATM   56  C   UNK N   1      22.833  13.316   0.832  0.00  0.00     0.050 C 
BRANCH  56  57
HETATM   57  C   UNK N   1      21.394  13.771   0.787  0.00  0.00     0.123 C 
BRANCH  57  58
HETATM   58  N   UNK N   1      21.298  14.865   1.697  0.00  0.00    -0.370 N 
HETATM   59  C   UNK N   1      20.265  15.623   1.805  0.00  0.00     0.146 C 
ATOM     60  HN  UNK N   1      22.099  15.057   2.299  1.00  0.00     0.161 HD
BRANCH  59  61
HETATM   61  C   UNK N   1      20.388  16.695   2.741  0.00  0.00     0.019 A 
HETATM   62  C   UNK N   1      20.262  18.002   2.242  0.00  0.00     0.052 A 
HETATM   63  C   UNK N   1      21.016  19.047   2.776  0.00  0.00     0.106 A 
HETATM   64  C   UNK N   1      21.933  18.749   3.771  0.00  0.00     0.073 A 
HETATM   65  C   UNK N   1      22.015  17.460   4.298  0.00  0.00     0.075 A 
HETATM   66  C   UNK N   1      21.271  16.438   3.764  0.00  0.00     0.052 A 
BRANCH  63  67
HETATM   67  N   UNK N   1      20.882  20.382   2.299  0.00  0.00    -0.116 N 
HETATM   68  O   UNK N   1      20.916  21.299   3.063  0.00  0.00    -0.532 OA
HETATM   69  O   UNK N   1      20.688  20.590   1.139  0.00  0.00    -0.532 OA
ENDBRANCH  63  67
BRANCH  65  70
HETATM   70  O   UNK N   1      22.785  17.192   5.349  0.00  0.00    -0.318 OA
BRANCH  70  71
HETATM   71  C   UNK N   1      22.262  16.583   6.464  0.00  0.00     0.298 C 
HETATM   72  C   UNK N   1      21.770  15.139   6.131  0.00  0.00     0.205 C 
HETATM   73  C   UNK N   1      20.924  14.571   7.250  0.00  0.00     0.183 C 
HETATM   74  C   UNK N   1      19.885  15.587   7.708  0.00  0.00     0.180 C 
HETATM   75  C   UNK N   1      20.637  16.879   8.077  0.00  0.00     0.179 C 
HETATM   76  O   UNK N   1      21.199  17.404   6.897  0.00  0.00    -0.348 OA
BRANCH  72  77
HETATM   77  O   UNK N   1      22.836  14.249   5.970  0.00  0.00    -0.388 OA
HETATM   78  H   UNK N   1      23.302  13.931   5.181  0.00  0.00     0.210 HD
ENDBRANCH  72  77
BRANCH  73  79
HETATM   79  O   UNK N   1      20.310  13.394   6.812  0.00  0.00    -0.390 OA
HETATM   80  H   UNK N   1      19.546  13.019   7.279  0.00  0.00     0.210 HD
ENDBRANCH  73  79
BRANCH  74  81
HETATM   81  O   UNK N   1      19.198  15.067   8.805  0.00  0.00    -0.390 OA
HETATM   82  H   UNK N   1      18.291  14.720   8.795  0.00  0.00     0.210 HD
ENDBRANCH  74  81
BRANCH  75  83
HETATM   83  C   UNK N   1      19.717  17.936   8.667  0.00  0.00     0.198 C 
BRANCH  83  84
HETATM   84  O   UNK N   1      20.311  19.196   8.579  0.00  0.00    -0.398 OA
HETATM   85  H   UNK N   1      20.037  20.026   8.158  0.00  0.00     0.209 HD
ENDBRANCH  83  84
ENDBRANCH  75  83
ENDBRANCH  70  71
ENDBRANCH  65  70
ENDBRANCH  59  61
BRANCH  59  86
HETATM   86  O   UNK N   1      19.124  15.386   1.126  0.00  0.00    -0.346 OA
HETATM   87  H   UNK N   1      18.201  15.428   1.279  0.00  0.00     0.219 HD
ENDBRANCH  59  86
ENDBRANCH  57  58
ENDBRANCH  56  57
ENDBRANCH  55  56
ENDBRANCH  52  55
ENDBRANCH  48  49
ENDBRANCH  47  48
ENDBRANCH  46  47
ENDBRANCH  44  46
BRANCH  43  88
HETATM   88  O   UNK N   1      24.982  13.325   9.206  0.00  0.00    -0.327 OA
HETATM   89  H   UNK N   1      25.150  12.706   9.889  0.00  0.00     0.221 HD
ENDBRANCH  43  88
ENDBRANCH  42  43
ENDBRANCH  41  42
ENDBRANCH  40  41
BRANCH  40  90
HETATM   90  N   UNK N   1      25.640  16.863   5.704  0.00  0.00    -0.422 N 
HETATM   91  H   UNK N   1      25.185  17.726   6.001  0.00  0.00     0.150 HD
HETATM   92  H   UNK N   1      25.375  16.445   4.813  0.00  0.00     0.150 HD
ENDBRANCH  40  90
ENDBRANCH  39  40
ENDBRANCH  38  39
ENDBRANCH  34  38
ENDBRANCH  32  33
ENDBRANCH  31  32
ENDBRANCH  30  31
ENDBRANCH  27  30
ENDBRANCH  23  24
ENDBRANCH  22  23
ENDBRANCH  21  22
ENDBRANCH  19  21
BRANCH  18  93
HETATM   93  O   UNK N   1      34.188  17.938   5.979  0.00  0.00    -0.346 OA
HETATM   94  H   UNK N   1      35.100  18.144   5.920  0.00  0.00     0.219 HD
ENDBRANCH  18  93
ENDBRANCH  14  18
BRANCH  16  95
HETATM   95  N   UNK N   1      29.854  18.093   8.468  0.00  0.00    -0.116 N 
HETATM   96  O   UNK N   1      30.119  18.749   9.437  0.00  0.00    -0.532 OA
HETATM   97  O   UNK N   1      28.964  18.436   7.759  0.00  0.00    -0.532 OA
ENDBRANCH  16  95
ENDBRANCH  11  12
ENDBRANCH   5  11
BRANCH   2  98
HETATM   98  O   UNK N   1      37.788  13.383  11.628  0.00  0.00    -0.390 OA
HETATM   99  H   UNK N   1      38.015  12.657  12.230  0.00  0.00     0.210 HD
ENDBRANCH   2  98
BRANCH   1 100
HETATM  100  C   UNK N   1      35.510  11.512  11.857  0.00  0.00     0.198 C 
BRANCH 100 101
HETATM  101  O   UNK N   1      34.197  11.309  12.282  0.00  0.00    -0.398 OA
HETATM  102  H   UNK N   1      33.602  12.018  12.574  0.00  0.00     0.209 HD
ENDBRANCH 100 101
ENDBRANCH   1 100
TORSDOF 44
ENDMDL
MODEL 3
REMARK VINA RESULT:      -7.5      4.222     13.505
REMARK WARNING: 32 MAX_TORS EXCEEDED!!!
REMARK  44 active torsions:
REMARK  status: ('A' for Active; 'I' for Inactive)
REMARK    1  A    between atoms: C_5  and  C_1 
REMARK    2  A    between atoms: C_9  and  C_1 
REMARK    3  A    between atoms: C_6  and  C_2 
REMARK    4  A    between atoms: C_10  and  C_2 
REMARK    5  A    between atoms: C_7  and  C_3 
REMARK    6  A    between atoms: C_11  and  C_3 
REMARK    7  A    between atoms: C_8  and  C_4 
REMARK    8  A    between atoms: C_12  and  C_4 
REMARK    9  A    between atoms: N_53  and  C_5 
REMARK   10  A    between atoms: N_55  and  C_6 
REMARK   11  A    between atoms: N_57  and  C_7 
REMARK   12  A    between atoms: N_59  and  C_8 
REMARK   13  A    between atoms: N_61  and  C_9 
REMARK   14  A    between atoms: N_62  and  C_10 
REMARK   15  A    between atoms: N_63  and  C_11 
REMARK   16  A    between atoms: N_64  and  C_12 
REMARK   17  A    between atoms: C_38  and  C_27 
REMARK   18  A    between atoms: O_67  and  C_27 
REMARK   19  A    between atoms: C_39  and  C_28 
REMARK   20  A    between atoms: O_68  and  C_28 
REMARK   21  A    between atoms: C_33  and  C_29 
REMARK   22  A    between atoms: O_83  and  C_29 
REMARK   23  A    between atoms: C_33  and  C_30 
REMARK   24  A    between atoms: O_84  and  C_30 
REMARK   25  A    between atoms: C_46  and  C_31 
REMARK   26  A    between atoms: C_47  and  C_32 
REMARK   27  A    between atoms: N_52  and  C_33 
REMARK   28  A    between atoms: N_65  and  C_34 
REMARK   29  A    between atoms: N_66  and  C_35 
REMARK   30  A    between atoms: O_85  and  C_36 
REMARK   31  A    between atoms: O_86  and  C_37 
REMARK   32  A    between atoms: C_40  and  O_69 
REMARK   33  A    between atoms: O_70  and  C_41 
REMARK   34  A    between atoms: C_42  and  O_71 
REMARK   35  A    between atoms: O_72  and  C_43 
REMARK   36  A    between atoms: O_74  and  C_45 
REMARK   37  A    between atoms: O_75  and  C_46 
REMARK   38  A    between atoms: O_76  and  C_47 
REMARK   39  A    between atoms: C_48  and  O_85 
REMARK   40  A    between atoms: O_86  and  C_49 
REMARK   41  A    between atoms: O_77  and  C_50 
REMARK   42  A    between atoms: O_83  and  C_50 
REMARK   43  A    between atoms: O_78  and  C_51 
REMARK   44  A    between atoms: O_84  and  C_51 
ROOT
HETATM    1  C   UNK N   1      23.036   7.375   6.226  0.00  0.00     0.179 C 
HETATM    2  C   UNK N   1      23.261   7.481   4.698  0.00  0.00     0.180 C 
HETATM    3  C   UNK N   1      22.625   8.774   4.199  0.00  0.00     0.183 C 
HETATM    4  C   UNK N   1      23.175   9.943   4.989  0.00  0.00     0.205 C 
HETATM    5  C   UNK N   1      22.986   9.694   6.507  0.00  0.00     0.298 C 
HETATM    6  O   UNK N   1      24.535  10.127   4.711  0.00  0.00    -0.388 OA
HETATM    7  O   UNK N   1      23.620   8.485   6.881  0.00  0.00    -0.348 OA
HETATM    8  H   UNK N   1      25.444  10.172   4.376  0.00  0.00     0.210 HD
ENDROOT
BRANCH   3   9
HETATM    9  O   UNK N   1      22.881   8.963   2.837  0.00  0.00    -0.390 OA
HETATM   10  H   UNK N   1      22.715   9.788   2.354  0.00  0.00     0.210 HD
ENDBRANCH   3   9
BRANCH   5  11
HETATM   11  O   UNK N   1      23.525  10.689   7.317  0.00  0.00    -0.318 OA
BRANCH  11  12
HETATM   12  C   UNK N   1      22.961  11.312   8.381  0.00  0.00     0.075 A 
HETATM   13  C   UNK N   1      21.889  12.149   8.152  0.00  0.00     0.052 A 
HETATM   14  C   UNK N   1      21.336  12.878   9.204  0.00  0.00     0.019 A 
HETATM   15  C   UNK N   1      21.814  12.725  10.500  0.00  0.00     0.052 A 
HETATM   16  C   UNK N   1      22.910  11.917  10.742  0.00  0.00     0.106 A 
HETATM   17  C   UNK N   1      23.484  11.236   9.676  0.00  0.00     0.073 A 
BRANCH  14  18
HETATM   18  C   UNK N   1      20.749  14.175   8.874  0.00  0.00     0.146 C 
HETATM   19  N   UNK N   1      21.291  15.022   8.059  0.00  0.00    -0.370 N 
ATOM     20  HN  UNK N   1      20.726  15.811   7.747  1.00  0.00     0.161 HD
BRANCH  19  21
HETATM   21  C   UNK N   1      22.642  14.922   7.565  0.00  0.00     0.123 C 
BRANCH  21  22
HETATM   22  C   UNK N   1      22.847  16.000   6.496  0.00  0.00     0.050 C 
BRANCH  22  23
HETATM   23  C   UNK N   1      22.886  15.376   5.087  0.00  0.00     0.274 C 
BRANCH  23  24
HETATM   24  N   UNK N   1      22.020  16.015   4.080  0.00  0.00     0.091 N 
HETATM   25  C   UNK N   1      20.579  15.693   4.245  0.00  0.00     0.291 C 
HETATM   26  C   UNK N   1      19.657  16.727   3.624  0.00  0.00     0.147 C 
HETATM   27  N   UNK N   1      20.430  17.329   2.569  0.00  0.00    -0.409 N 
HETATM   28  C   UNK N   1      21.431  18.240   3.092  0.00  0.00     0.147 C 
HETATM   29  C   UNK N   1      22.277  17.469   4.129  0.00  0.00     0.291 C 
BRANCH  27  30
HETATM   30  C   UNK N   1      19.643  17.724   1.429  0.00  0.00     0.118 C 
BRANCH  30  31
HETATM   31  C   UNK N   1      20.102  16.870   0.246  0.00  0.00     0.039 C 
BRANCH  31  32
HETATM   32  C   UNK N   1      19.012  15.930  -0.305  0.00  0.00     0.125 C 
BRANCH  32  33
HETATM   33  N   UNK N   1      18.532  15.027   0.728  0.00  0.00    -0.350 N 
HETATM   34  C   UNK N   1      19.070  13.901   1.105  0.00  0.00     0.258 C 
ATOM     35  HN  UNK N   1      17.678  15.305   1.211  1.00  0.00     0.163 HD
BRANCH  34  36
HETATM   36  O   UNK N   1      18.432  13.167   2.033  0.00  0.00    -0.327 OA
HETATM   37  H   UNK N   1      17.628  12.697   2.137  0.00  0.00     0.221 HD
ENDBRANCH  34  36
BRANCH  34  38
HETATM   38  O   UNK N   1      20.243  13.410   0.609  0.00  0.00    -0.315 OA
BRANCH  38  39
HETATM   39  C   UNK N   1      21.483  13.563   1.171  0.00  0.00     0.206 C 
BRANCH  39  40
HETATM   40  C   UNK N   1      21.923  12.293   1.888  0.00  0.00     0.123 C 
BRANCH  40  41
HETATM   41  C   UNK N   1      23.243  11.938   1.242  0.00  0.00     0.206 C 
BRANCH  41  42
HETATM   42  O   UNK N   1      24.249  11.647   2.128  0.00  0.00    -0.315 OA
BRANCH  42  43
HETATM   43  C   UNK N   1      25.092  12.593   2.606  0.00  0.00     0.258 C 
HETATM   44  N   UNK N   1      25.842  13.219   1.775  0.00  0.00    -0.350 N 
ATOM     45  HN  UNK N   1      25.734  13.008   0.782  1.00  0.00     0.163 HD
BRANCH  44  46
HETATM   46  C   UNK N   1      26.828  14.198   2.152  0.00  0.00     0.125 C 
BRANCH  46  47
HETATM   47  C   UNK N   1      26.296  15.598   1.845  0.00  0.00     0.050 C 
BRANCH  47  48
HETATM   48  C   UNK N   1      26.103  16.501   3.083  0.00  0.00     0.274 C 
BRANCH  48  49
HETATM   49  N   UNK N   1      27.132  16.316   4.113  0.00  0.00     0.091 N 
HETATM   50  C   UNK N   1      28.139  17.385   3.998  0.00  0.00     0.302 C 
HETATM   51  C   UNK N   1      27.935  18.531   5.010  0.00  0.00     0.302 C 
HETATM   52  N   UNK N   1      27.622  18.086   6.383  0.00  0.00     0.091 N 
HETATM   53  C   UNK N   1      27.484  16.649   6.520  0.00  0.00     0.302 C 
HETATM   54  C   UNK N   1      26.524  16.210   5.451  0.00  0.00     0.302 C 
BRANCH  52  55
HETATM   55  C   UNK N   1      28.551  18.583   7.389  0.00  0.00     0.274 C 
BRANCH  55  56
HETATM   56  C   UNK N   1      29.359  17.485   8.080  0.00  0.00     0.050 C 
BRANCH  56  57
HETATM   57  C   UNK N   1      30.635  18.125   8.573  0.00  0.00     0.123 C 
BRANCH  57  58
HETATM   58  N   UNK N   1      31.678  17.607   7.751  0.00  0.00    -0.370 N 
HETATM   59  C   UNK N   1      32.914  17.553   8.105  0.00  0.00     0.146 C 
ATOM     60  HN  UNK N   1      31.430  17.257   6.826  1.00  0.00     0.161 HD
BRANCH  59  61
HETATM   61  C   UNK N   1      33.811  17.045   7.117  0.00  0.00     0.019 A 
HETATM   62  C   UNK N   1      33.383  17.078   5.780  0.00  0.00     0.052 A 
HETATM   63  C   UNK N   1      33.738  16.064   4.890  0.00  0.00     0.106 A 
HETATM   64  C   UNK N   1      34.476  14.996   5.376  0.00  0.00     0.073 A 
HETATM   65  C   UNK N   1      34.942  14.997   6.691  0.00  0.00     0.075 A 
HETATM   66  C   UNK N   1      34.586  15.997   7.559  0.00  0.00     0.052 A 
BRANCH  63  67
HETATM   67  N   UNK N   1      33.332  16.095   3.526  0.00  0.00    -0.116 N 
HETATM   68  O   UNK N   1      33.750  15.282   2.757  0.00  0.00    -0.532 OA
HETATM   69  O   UNK N   1      32.611  16.961   3.131  0.00  0.00    -0.532 OA
ENDBRANCH  63  67
BRANCH  65  70
HETATM   70  O   UNK N   1      35.770  14.052   7.128  0.00  0.00    -0.318 OA
BRANCH  70  71
HETATM   71  C   UNK N   1      36.459  14.214   8.307  0.00  0.00     0.298 C 
HETATM   72  C   UNK N   1      37.817  13.446   8.268  0.00  0.00     0.205 C 
HETATM   73  C   UNK N   1      38.442  13.357   9.643  0.00  0.00     0.183 C 
HETATM   74  C   UNK N   1      37.410  12.922  10.676  0.00  0.00     0.180 C 
HETATM   75  C   UNK N   1      36.225  13.901  10.582  0.00  0.00     0.179 C 
HETATM   76  O   UNK N   1      35.615  13.722   9.325  0.00  0.00    -0.348 OA
BRANCH  72  77
HETATM   77  O   UNK N   1      38.760  14.092   7.463  0.00  0.00    -0.388 OA
HETATM   78  H   UNK N   1      39.433  13.752   6.853  0.00  0.00     0.210 HD
ENDBRANCH  72  77
BRANCH  73  79
HETATM   79  O   UNK N   1      39.516  12.462   9.606  0.00  0.00    -0.390 OA
HETATM   80  H   UNK N   1      39.436  11.564   9.963  0.00  0.00     0.210 HD
ENDBRANCH  73  79
BRANCH  74  81
HETATM   81  O   UNK N   1      37.995  12.953  11.942  0.00  0.00    -0.390 OA
HETATM   82  H   UNK N   1      38.895  13.256  12.145  0.00  0.00     0.210 HD
ENDBRANCH  74  81
BRANCH  75  83
HETATM   83  C   UNK N   1      35.175  13.644  11.651  0.00  0.00     0.198 C 
BRANCH  83  84
HETATM   84  O   UNK N   1      34.020  14.379  11.380  0.00  0.00    -0.398 OA
HETATM   85  H   UNK N   1      33.216  14.557  11.893  0.00  0.00     0.209 HD
ENDBRANCH  83  84
ENDBRANCH  75  83
ENDBRANCH  70  71
ENDBRANCH  65  70
ENDBRANCH  59  61
BRANCH  59  86
HETATM   86  O   UNK N   1      33.324  17.896   9.343  0.00  0.00    -0.346 OA
HETATM   87  H   UNK N   1      33.120  18.542   9.990  0.00  0.00     0.219 HD
ENDBRANCH  59  86
ENDBRANCH  57  58
ENDBRANCH  56  57
ENDBRANCH  55  56
ENDBRANCH  52  55
ENDBRANCH  48  49
ENDBRANCH  47  48
ENDBRANCH  46  47
ENDBRANCH  44  46
BRANCH  43  88
HETATM   88  O   UNK N   1      25.157  12.862   3.925  0.00  0.00    -0.327 OA
HETATM   89  H   UNK N   1      24.577  12.657   4.632  0.00  0.00     0.221 HD
ENDBRANCH  43  88
ENDBRANCH  42  43
ENDBRANCH  41  42
ENDBRANCH  40  41
BRANCH  40  90
HETATM   90  N   UNK N   1      20.942  11.239   1.701  0.00  0.00    -0.422 N 
HETATM   91  H   UNK N   1      20.559  11.017   0.782  0.00  0.00     0.150 HD
HETATM   92  H   UNK N   1      20.627  10.706   2.511  0.00  0.00     0.150 HD
ENDBRANCH  40  90
ENDBRANCH  39  40
ENDBRANCH  38  39
ENDBRANCH  34  38
ENDBRANCH  32  33
ENDBRANCH  31  32
ENDBRANCH  30  31
ENDBRANCH  27  30
ENDBRANCH  23  24
ENDBRANCH  22  23
ENDBRANCH  21  22
ENDBRANCH  19  21
BRANCH  18  93
HETATM   93  O   UNK N   1      19.540  14.458   9.396  0.00  0.00    -0.346 OA
HETATM   94  H   UNK N   1      18.753  13.982   9.577  0.00  0.00     0.219 HD
ENDBRANCH  18  93
ENDBRANCH  14  18
BRANCH  16  95
HETATM   95  N   UNK N   1      23.563  11.995  11.998  0.00  0.00    -0.116 N 
HETATM   96  O   UNK N   1      22.914  11.888  13.003  0.00  0.00    -0.532 OA
HETATM   97  O   UNK N   1      24.748  11.934  12.062  0.00  0.00    -0.532 OA
ENDBRANCH  16  95
ENDBRANCH  11  12
ENDBRANCH   5  11
BRANCH   2  98
HETATM   98  O   UNK N   1      22.683   6.402   4.029  0.00  0.00    -0.390 OA
HETATM   99  H   UNK N   1      22.608   5.520   4.426  0.00  0.00     0.210 HD
ENDBRANCH   2  98
BRANCH   1 100
HETATM  100  C   UNK N   1      23.700   6.124   6.791  0.00  0.00     0.198 C 
BRANCH 100 101
HETATM  101  O   UNK N   1      23.331   5.922   8.121  0.00  0.00    -0.398 OA
HETATM  102  H   UNK N   1      23.062   5.064   8.488  0.00  0.00     0.209 HD
ENDBRANCH 100 101
ENDBRANCH   1 100
TORSDOF 44
ENDMDL
MODEL 4
REMARK VINA RESULT:      -7.5      2.057      4.669
REMARK WARNING: 32 MAX_TORS EXCEEDED!!!
REMARK  44 active torsions:
REMARK  status: ('A' for Active; 'I' for Inactive)
REMARK    1  A    between atoms: C_5  and  C_1 
REMARK    2  A    between atoms: C_9  and  C_1 
REMARK    3  A    between atoms: C_6  and  C_2 
REMARK    4  A    between atoms: C_10  and  C_2 
REMARK    5  A    between atoms: C_7  and  C_3 
REMARK    6  A    between atoms: C_11  and  C_3 
REMARK    7  A    between atoms: C_8  and  C_4 
REMARK    8  A    between atoms: C_12  and  C_4 
REMARK    9  A    between atoms: N_53  and  C_5 
REMARK   10  A    between atoms: N_55  and  C_6 
REMARK   11  A    between atoms: N_57  and  C_7 
REMARK   12  A    between atoms: N_59  and  C_8 
REMARK   13  A    between atoms: N_61  and  C_9 
REMARK   14  A    between atoms: N_62  and  C_10 
REMARK   15  A    between atoms: N_63  and  C_11 
REMARK   16  A    between atoms: N_64  and  C_12 
REMARK   17  A    between atoms: C_38  and  C_27 
REMARK   18  A    between atoms: O_67  and  C_27 
REMARK   19  A    between atoms: C_39  and  C_28 
REMARK   20  A    between atoms: O_68  and  C_28 
REMARK   21  A    between atoms: C_33  and  C_29 
REMARK   22  A    between atoms: O_83  and  C_29 
REMARK   23  A    between atoms: C_33  and  C_30 
REMARK   24  A    between atoms: O_84  and  C_30 
REMARK   25  A    between atoms: C_46  and  C_31 
REMARK   26  A    between atoms: C_47  and  C_32 
REMARK   27  A    between atoms: N_52  and  C_33 
REMARK   28  A    between atoms: N_65  and  C_34 
REMARK   29  A    between atoms: N_66  and  C_35 
REMARK   30  A    between atoms: O_85  and  C_36 
REMARK   31  A    between atoms: O_86  and  C_37 
REMARK   32  A    between atoms: C_40  and  O_69 
REMARK   33  A    between atoms: O_70  and  C_41 
REMARK   34  A    between atoms: C_42  and  O_71 
REMARK   35  A    between atoms: O_72  and  C_43 
REMARK   36  A    between atoms: O_74  and  C_45 
REMARK   37  A    between atoms: O_75  and  C_46 
REMARK   38  A    between atoms: O_76  and  C_47 
REMARK   39  A    between atoms: C_48  and  O_85 
REMARK   40  A    between atoms: O_86  and  C_49 
REMARK   41  A    between atoms: O_77  and  C_50 
REMARK   42  A    between atoms: O_83  and  C_50 
REMARK   43  A    between atoms: O_78  and  C_51 
REMARK   44  A    between atoms: O_84  and  C_51 
ROOT
HETATM    1  C   UNK N   1      35.270   9.247  11.832  0.00  0.00     0.179 C 
HETATM    2  C   UNK N   1      35.851   7.834  11.582  0.00  0.00     0.180 C 
HETATM    3  C   UNK N   1      37.134   7.682  12.391  0.00  0.00     0.183 C 
HETATM    4  C   UNK N   1      36.850   7.987  13.847  0.00  0.00     0.205 C 
HETATM    5  C   UNK N   1      36.185   9.381  13.979  0.00  0.00     0.298 C 
HETATM    6  O   UNK N   1      36.008   7.013  14.397  0.00  0.00    -0.388 OA
HETATM    7  O   UNK N   1      34.997   9.423  13.209  0.00  0.00    -0.348 OA
HETATM    8  H   UNK N   1      35.480   6.241  14.654  0.00  0.00     0.210 HD
ENDROOT
BRANCH   3   9
HETATM    9  O   UNK N   1      37.650   6.388  12.272  0.00  0.00    -0.390 OA
HETATM   10  H   UNK N   1      37.673   5.877  11.447  0.00  0.00     0.210 HD
ENDBRANCH   3   9
BRANCH   5  11
HETATM   11  O   UNK N   1      35.825   9.718  15.279  0.00  0.00    -0.318 OA
BRANCH  11  12
HETATM   12  C   UNK N   1      35.673  10.950  15.823  0.00  0.00     0.075 A 
HETATM   13  C   UNK N   1      35.946  12.049  15.035  0.00  0.00     0.052 A 
HETATM   14  C   UNK N   1      35.889  13.330  15.580  0.00  0.00     0.019 A 
HETATM   15  C   UNK N   1      35.498  13.522  16.899  0.00  0.00     0.052 A 
HETATM   16  C   UNK N   1      35.254  12.432  17.713  0.00  0.00     0.106 A 
HETATM   17  C   UNK N   1      35.365  11.157  17.172  0.00  0.00     0.073 A 
BRANCH  14  18
HETATM   18  C   UNK N   1      36.793  14.330  15.015  0.00  0.00     0.146 C 
HETATM   19  N   UNK N   1      36.704  14.775  13.802  0.00  0.00    -0.370 N 
ATOM     20  HN  UNK N   1      37.252  15.599  13.556  1.00  0.00     0.161 HD
BRANCH  19  21
HETATM   21  C   UNK N   1      35.881  14.182  12.778  0.00  0.00     0.123 C 
BRANCH  21  22
HETATM   22  C   UNK N   1      36.783  13.765  11.612  0.00  0.00     0.050 C 
BRANCH  22  23
HETATM   23  C   UNK N   1      36.707  14.792  10.466  0.00  0.00     0.274 C 
BRANCH  23  24
HETATM   24  N   UNK N   1      35.350  15.129   9.997  0.00  0.00     0.091 N 
HETATM   25  C   UNK N   1      35.047  16.582  10.051  0.00  0.00     0.291 C 
HETATM   26  C   UNK N   1      33.944  17.002   9.095  0.00  0.00     0.147 C 
HETATM   27  N   UNK N   1      33.140  15.822   8.912  0.00  0.00    -0.409 N 
HETATM   28  C   UNK N   1      33.796  14.855   8.052  0.00  0.00     0.147 C 
HETATM   29  C   UNK N   1      35.199  14.576   8.635  0.00  0.00     0.291 C 
BRANCH  27  30
HETATM   30  C   UNK N   1      31.739  16.100   8.724  0.00  0.00     0.118 C 
BRANCH  30  31
HETATM   31  C   UNK N   1      31.614  17.591   8.406  0.00  0.00     0.039 C 
BRANCH  31  32
HETATM   32  C   UNK N   1      30.159  18.074   8.252  0.00  0.00     0.125 C 
BRANCH  32  33
HETATM   33  N   UNK N   1      29.356  17.092   7.544  0.00  0.00    -0.350 N 
HETATM   34  C   UNK N   1      29.323  16.877   6.258  0.00  0.00     0.258 C 
ATOM     35  HN  UNK N   1      28.749  16.505   8.116  1.00  0.00     0.163 HD
BRANCH  34  36
HETATM   36  O   UNK N   1      28.455  15.967   5.784  0.00  0.00    -0.327 OA
HETATM   37  H   UNK N   1      28.416  15.047   5.608  0.00  0.00     0.221 HD
ENDBRANCH  34  36
BRANCH  34  38
HETATM   38  O   UNK N   1      30.112  17.527   5.354  0.00  0.00    -0.315 OA
BRANCH  38  39
HETATM   39  C   UNK N   1      31.272  17.047   4.803  0.00  0.00     0.206 C 
BRANCH  39  40
HETATM   40  C   UNK N   1      31.030  16.493   3.406  0.00  0.00     0.123 C 
BRANCH  40  41
HETATM   41  C   UNK N   1      31.443  15.041   3.503  0.00  0.00     0.206 C 
BRANCH  41  42
HETATM   42  O   UNK N   1      30.879  14.360   4.552  0.00  0.00    -0.315 OA
BRANCH  42  43
HETATM   43  C   UNK N   1      29.938  13.403   4.373  0.00  0.00     0.258 C 
HETATM   44  N   UNK N   1      28.876  13.704   3.721  0.00  0.00    -0.350 N 
ATOM     45  HN  UNK N   1      28.811  14.642   3.322  1.00  0.00     0.163 HD
BRANCH  44  46
HETATM   46  C   UNK N   1      27.769  12.807   3.515  0.00  0.00     0.125 C 
BRANCH  46  47
HETATM   47  C   UNK N   1      26.462  13.602   3.534  0.00  0.00     0.050 C 
BRANCH  47  48
HETATM   48  C   UNK N   1      25.838  13.849   2.143  0.00  0.00     0.274 C 
BRANCH  48  49
HETATM   49  N   UNK N   1      24.459  13.360   2.019  0.00  0.00     0.091 N 
HETATM   50  C   UNK N   1      23.637  13.939   3.095  0.00  0.00     0.302 C 
HETATM   51  C   UNK N   1      22.797  15.151   2.641  0.00  0.00     0.302 C 
HETATM   52  N   UNK N   1      22.124  14.974   1.337  0.00  0.00     0.091 N 
HETATM   53  C   UNK N   1      22.435  13.720   0.679  0.00  0.00     0.302 C 
HETATM   54  C   UNK N   1      23.934  13.607   0.666  0.00  0.00     0.302 C 
BRANCH  52  55
HETATM   55  C   UNK N   1      20.679  15.148   1.393  0.00  0.00     0.274 C 
BRANCH  55  56
HETATM   56  C   UNK N   1      20.148  16.215   0.437  0.00  0.00     0.050 C 
BRANCH  56  57
HETATM   57  C   UNK N   1      19.352  17.192   1.269  0.00  0.00     0.123 C 
BRANCH  57  58
HETATM   58  N   UNK N   1      20.265  17.732   2.222  0.00  0.00    -0.370 N 
HETATM   59  C   UNK N   1      20.371  18.986   2.488  0.00  0.00     0.146 C 
ATOM     60  HN  UNK N   1      20.871  17.084   2.724  1.00  0.00     0.161 HD
BRANCH  59  61
HETATM   61  C   UNK N   1      21.380  19.328   3.438  0.00  0.00     0.019 A 
HETATM   62  C   UNK N   1      22.596  19.820   2.936  0.00  0.00     0.052 A 
HETATM   63  C   UNK N   1      23.805  19.516   3.562  0.00  0.00     0.106 A 
HETATM   64  C   UNK N   1      23.777  18.669   4.659  0.00  0.00     0.073 A 
HETATM   65  C   UNK N   1      22.562  18.227   5.184  0.00  0.00     0.075 A 
HETATM   66  C   UNK N   1      21.379  18.530   4.559  0.00  0.00     0.052 A 
BRANCH  63  67
HETATM   67  N   UNK N   1      25.043  20.027   3.081  0.00  0.00    -0.116 N 
HETATM   68  O   UNK N   1      26.074  19.606   3.512  0.00  0.00    -0.532 OA
HETATM   69  O   UNK N   1      25.059  20.912   2.279  0.00  0.00    -0.532 OA
ENDBRANCH  63  67
BRANCH  65  70
HETATM   70  O   UNK N   1      22.513  17.534   6.318  0.00  0.00    -0.318 OA
BRANCH  70  71
HETATM   71  C   UNK N   1      22.341  16.171   6.299  0.00  0.00     0.298 C 
HETATM   72  C   UNK N   1      21.137  15.749   7.199  0.00  0.00     0.205 C 
HETATM   73  C   UNK N   1      21.119  14.254   7.435  0.00  0.00     0.183 C 
HETATM   74  C   UNK N   1      22.505  13.755   7.823  0.00  0.00     0.180 C 
HETATM   75  C   UNK N   1      23.483  14.209   6.725  0.00  0.00     0.179 C 
HETATM   76  O   UNK N   1      23.553  15.616   6.764  0.00  0.00    -0.348 OA
BRANCH  72  77
HETATM   77  O   UNK N   1      19.909  16.054   6.605  0.00  0.00    -0.388 OA
HETATM   78  H   UNK N   1      19.500  16.899   6.359  0.00  0.00     0.210 HD
ENDBRANCH  72  77
BRANCH  73  79
HETATM   79  O   UNK N   1      20.185  13.954   8.431  0.00  0.00    -0.390 OA
HETATM   80  H   UNK N   1      19.488  14.583   8.675  0.00  0.00     0.210 HD
ENDBRANCH  73  79
BRANCH  74  81
HETATM   81  O   UNK N   1      22.471  12.364   7.930  0.00  0.00    -0.390 OA
HETATM   82  H   UNK N   1      22.372  11.859   8.753  0.00  0.00     0.210 HD
ENDBRANCH  74  81
BRANCH  75  83
HETATM   83  C   UNK N   1      24.887  13.667   6.937  0.00  0.00     0.198 C 
BRANCH  83  84
HETATM   84  O   UNK N   1      25.112  13.424   8.292  0.00  0.00    -0.398 OA
HETATM   85  H   UNK N   1      24.566  13.033   8.992  0.00  0.00     0.209 HD
ENDBRANCH  83  84
ENDBRANCH  75  83
ENDBRANCH  70  71
ENDBRANCH  65  70
ENDBRANCH  59  61
BRANCH  59  86
HETATM   86  O   UNK N   1      19.544  19.908   1.952  0.00  0.00    -0.346 OA
HETATM   87  H   UNK N   1      19.551  20.522   1.245  0.00  0.00     0.219 HD
ENDBRANCH  59  86
ENDBRANCH  57  58
ENDBRANCH  56  57
ENDBRANCH  55  56
ENDBRANCH  52  55
ENDBRANCH  48  49
ENDBRANCH  47  48
ENDBRANCH  46  47
ENDBRANCH  44  46
BRANCH  43  88
HETATM   88  O   UNK N   1      30.100  12.166   4.883  0.00  0.00    -0.327 OA
HETATM   89  H   UNK N   1      30.852  11.608   4.937  0.00  0.00     0.221 HD
ENDBRANCH  43  88
ENDBRANCH  42  43
ENDBRANCH  41  42
ENDBRANCH  40  41
BRANCH  40  90
HETATM   90  N   UNK N   1      31.834  17.207   2.431  0.00  0.00    -0.422 N 
HETATM   91  H   UNK N   1      31.915  18.224   2.441  0.00  0.00     0.150 HD
HETATM   92  H   UNK N   1      32.332  16.678   1.716  0.00  0.00     0.150 HD
ENDBRANCH  40  90
ENDBRANCH  39  40
ENDBRANCH  38  39
ENDBRANCH  34  38
ENDBRANCH  32  33
ENDBRANCH  31  32
ENDBRANCH  30  31
ENDBRANCH  27  30
ENDBRANCH  23  24
ENDBRANCH  22  23
ENDBRANCH  21  22
ENDBRANCH  19  21
BRANCH  18  93
HETATM   93  O   UNK N   1      37.717  14.865  15.837  0.00  0.00    -0.346 OA
HETATM   94  H   UNK N   1      38.098  15.712  15.965  0.00  0.00     0.219 HD
ENDBRANCH  18  93
ENDBRANCH  14  18
BRANCH  16  95
HETATM   95  N   UNK N   1      35.145  12.625  19.114  0.00  0.00    -0.116 N 
HETATM   96  O   UNK N   1      35.215  11.673  19.843  0.00  0.00    -0.532 OA
HETATM   97  O   UNK N   1      35.215  13.717  19.575  0.00  0.00    -0.532 OA
ENDBRANCH  16  95
ENDBRANCH  11  12
ENDBRANCH   5  11
BRANCH   2  98
HETATM   98  O   UNK N   1      36.139   7.641  10.231  0.00  0.00    -0.390 OA
HETATM   99  H   UNK N   1      37.004   7.331   9.920  0.00  0.00     0.210 HD
ENDBRANCH   2  98
BRANCH   1 100
HETATM  100  C   UNK N   1      33.953   9.437  11.089  0.00  0.00     0.198 C 
BRANCH 100 101
HETATM  101  O   UNK N   1      33.435  10.713  11.311  0.00  0.00    -0.398 OA
HETATM  102  H   UNK N   1      32.768  11.136  10.748  0.00  0.00     0.209 HD
ENDBRANCH 100 101
ENDBRANCH   1 100
TORSDOF 44
ENDMDL
MODEL 5
REMARK VINA RESULT:      -7.4      5.260      8.406
REMARK WARNING: 32 MAX_TORS EXCEEDED!!!
REMARK  44 active torsions:
REMARK  status: ('A' for Active; 'I' for Inactive)
REMARK    1  A    between atoms: C_5  and  C_1 
REMARK    2  A    between atoms: C_9  and  C_1 
REMARK    3  A    between atoms: C_6  and  C_2 
REMARK    4  A    between atoms: C_10  and  C_2 
REMARK    5  A    between atoms: C_7  and  C_3 
REMARK    6  A    between atoms: C_11  and  C_3 
REMARK    7  A    between atoms: C_8  and  C_4 
REMARK    8  A    between atoms: C_12  and  C_4 
REMARK    9  A    between atoms: N_53  and  C_5 
REMARK   10  A    between atoms: N_55  and  C_6 
REMARK   11  A    between atoms: N_57  and  C_7 
REMARK   12  A    between atoms: N_59  and  C_8 
REMARK   13  A    between atoms: N_61  and  C_9 
REMARK   14  A    between atoms: N_62  and  C_10 
REMARK   15  A    between atoms: N_63  and  C_11 
REMARK   16  A    between atoms: N_64  and  C_12 
REMARK   17  A    between atoms: C_38  and  C_27 
REMARK   18  A    between atoms: O_67  and  C_27 
REMARK   19  A    between atoms: C_39  and  C_28 
REMARK   20  A    between atoms: O_68  and  C_28 
REMARK   21  A    between atoms: C_33  and  C_29 
REMARK   22  A    between atoms: O_83  and  C_29 
REMARK   23  A    between atoms: C_33  and  C_30 
REMARK   24  A    between atoms: O_84  and  C_30 
REMARK   25  A    between atoms: C_46  and  C_31 
REMARK   26  A    between atoms: C_47  and  C_32 
REMARK   27  A    between atoms: N_52  and  C_33 
REMARK   28  A    between atoms: N_65  and  C_34 
REMARK   29  A    between atoms: N_66  and  C_35 
REMARK   30  A    between atoms: O_85  and  C_36 
REMARK   31  A    between atoms: O_86  and  C_37 
REMARK   32  A    between atoms: C_40  and  O_69 
REMARK   33  A    between atoms: O_70  and  C_41 
REMARK   34  A    between atoms: C_42  and  O_71 
REMARK   35  A    between atoms: O_72  and  C_43 
REMARK   36  A    between atoms: O_74  and  C_45 
REMARK   37  A    between atoms: O_75  and  C_46 
REMARK   38  A    between atoms: O_76  and  C_47 
REMARK   39  A    between atoms: C_48  and  O_85 
REMARK   40  A    between atoms: O_86  and  C_49 
REMARK   41  A    between atoms: O_77  and  C_50 
REMARK   42  A    between atoms: O_83  and  C_50 
REMARK   43  A    between atoms: O_78  and  C_51 
REMARK   44  A    between atoms: O_84  and  C_51 
ROOT
HETATM    1  C   UNK N   1      28.642  17.737   6.923  0.00  0.00     0.179 C 
HETATM    2  C   UNK N   1      27.597  16.842   6.213  0.00  0.00     0.180 C 
HETATM    3  C   UNK N   1      27.750  17.013   4.706  0.00  0.00     0.183 C 
HETATM    4  C   UNK N   1      29.183  16.726   4.310  0.00  0.00     0.205 C 
HETATM    5  C   UNK N   1      30.151  17.604   5.143  0.00  0.00     0.298 C 
HETATM    6  O   UNK N   1      29.487  15.374   4.511  0.00  0.00    -0.388 OA
HETATM    7  O   UNK N   1      29.948  17.368   6.524  0.00  0.00    -0.348 OA
HETATM    8  H   UNK N   1      29.531  14.413   4.641  0.00  0.00     0.210 HD
ENDROOT
BRANCH   3   9
HETATM    9  O   UNK N   1      26.888  16.153   4.017  0.00  0.00    -0.390 OA
HETATM   10  H   UNK N   1      26.240  15.568   4.438  0.00  0.00     0.210 HD
ENDBRANCH   3   9
BRANCH   5  11
HETATM   11  O   UNK N   1      31.497  17.359   4.894  0.00  0.00    -0.318 OA
BRANCH  11  12
HETATM   12  C   UNK N   1      32.440  16.872   5.738  0.00  0.00     0.075 A 
HETATM   13  C   UNK N   1      32.617  15.506   5.799  0.00  0.00     0.052 A 
HETATM   14  C   UNK N   1      33.512  14.958   6.716  0.00  0.00     0.019 A 
HETATM   15  C   UNK N   1      34.278  15.780   7.534  0.00  0.00     0.052 A 
HETATM   16  C   UNK N   1      34.089  17.149   7.512  0.00  0.00     0.106 A 
HETATM   17  C   UNK N   1      33.157  17.678   6.628  0.00  0.00     0.073 A 
BRANCH  14  18
HETATM   18  C   UNK N   1      33.196  13.630   7.237  0.00  0.00     0.146 C 
HETATM   19  N   UNK N   1      33.765  12.543   6.825  0.00  0.00    -0.370 N 
ATOM     20  HN  UNK N   1      33.620  11.694   7.370  1.00  0.00     0.161 HD
BRANCH  19  21
HETATM   21  C   UNK N   1      34.591  12.455   5.647  0.00  0.00     0.123 C 
BRANCH  21  22
HETATM   22  C   UNK N   1      33.701  12.076   4.459  0.00  0.00     0.050 C 
BRANCH  22  23
HETATM   23  C   UNK N   1      34.534  11.944   3.169  0.00  0.00     0.274 C 
BRANCH  23  24
HETATM   24  N   UNK N   1      33.772  11.653   1.942  0.00  0.00     0.091 N 
HETATM   25  C   UNK N   1      33.963  12.664   0.870  0.00  0.00     0.291 C 
HETATM   26  C   UNK N   1      33.672  12.128  -0.521  0.00  0.00     0.147 C 
HETATM   27  N   UNK N   1      32.733  11.055  -0.318  0.00  0.00    -0.409 N 
HETATM   28  C   UNK N   1      33.380   9.873   0.222  0.00  0.00     0.147 C 
HETATM   29  C   UNK N   1      34.141  10.292   1.500  0.00  0.00     0.291 C 
BRANCH  27  30
HETATM   30  C   UNK N   1      31.779  10.911  -1.387  0.00  0.00     0.118 C 
BRANCH  30  31
HETATM   31  C   UNK N   1      30.559  11.759  -1.021  0.00  0.00     0.039 C 
BRANCH  31  32
HETATM   32  C   UNK N   1      30.207  11.726   0.479  0.00  0.00     0.125 C 
BRANCH  32  33
HETATM   33  N   UNK N   1      29.272  12.787   0.818  0.00  0.00    -0.350 N 
HETATM   34  C   UNK N   1      28.966  13.218   2.010  0.00  0.00     0.258 C 
ATOM     35  HN  UNK N   1      28.803  13.243   0.037  1.00  0.00     0.163 HD
BRANCH  34  36
HETATM   36  O   UNK N   1      28.018  14.165   2.123  0.00  0.00    -0.327 OA
HETATM   37  H   UNK N   1      27.702  14.912   1.653  0.00  0.00     0.221 HD
ENDBRANCH  34  36
BRANCH  34  38
HETATM   38  O   UNK N   1      29.543  12.763   3.159  0.00  0.00    -0.315 OA
BRANCH  38  39
HETATM   39  C   UNK N   1      28.902  12.112   4.181  0.00  0.00     0.206 C 
BRANCH  39  40
HETATM   40  C   UNK N   1      29.032  10.601   4.038  0.00  0.00     0.123 C 
BRANCH  40  41
HETATM   41  C   UNK N   1      27.688  10.159   3.507  0.00  0.00     0.206 C 
BRANCH  41  42
HETATM   42  O   UNK N   1      27.587  10.167   2.139  0.00  0.00    -0.315 OA
BRANCH  42  43
HETATM   43  C   UNK N   1      26.478  10.603   1.496  0.00  0.00     0.258 C 
HETATM   44  N   UNK N   1      25.999  11.749   1.812  0.00  0.00    -0.350 N 
ATOM     45  HN  UNK N   1      26.506  12.305   2.502  1.00  0.00     0.163 HD
BRANCH  44  46
HETATM   46  C   UNK N   1      24.791  12.304   1.258  0.00  0.00     0.125 C 
BRANCH  46  47
HETATM   47  C   UNK N   1      23.907  12.827   2.391  0.00  0.00     0.050 C 
BRANCH  47  48
HETATM   48  C   UNK N   1      23.569  11.785   3.479  0.00  0.00     0.274 C 
BRANCH  48  49
HETATM   49  N   UNK N   1      23.408  12.361   4.819  0.00  0.00     0.091 N 
HETATM   50  C   UNK N   1      22.305  11.677   5.517  0.00  0.00     0.302 C 
HETATM   51  C   UNK N   1      22.784  10.593   6.504  0.00  0.00     0.302 C 
HETATM   52  N   UNK N   1      23.930  10.995   7.346  0.00  0.00     0.091 N 
HETATM   53  C   UNK N   1      24.452  12.313   7.040  0.00  0.00     0.302 C 
HETATM   54  C   UNK N   1      24.683  12.344   5.555  0.00  0.00     0.302 C 
BRANCH  52  55
HETATM   55  C   UNK N   1      23.673  10.895   8.777  0.00  0.00     0.274 C 
BRANCH  55  56
HETATM   56  C   UNK N   1      24.432  11.923   9.614  0.00  0.00     0.050 C 
BRANCH  56  57
HETATM   57  C   UNK N   1      23.414  12.606  10.496  0.00  0.00     0.123 C 
BRANCH  57  58
HETATM   58  N   UNK N   1      22.866  13.667   9.718  0.00  0.00    -0.370 N 
HETATM   59  C   UNK N   1      21.646  13.705   9.310  0.00  0.00     0.146 C 
ATOM     60  HN  UNK N   1      23.478  14.443   9.469  1.00  0.00     0.161 HD
BRANCH  59  61
HETATM   61  C   UNK N   1      21.307  14.830   8.500  0.00  0.00     0.019 A 
HETATM   62  C   UNK N   1      20.219  15.617   8.913  0.00  0.00     0.052 A 
HETATM   63  C   UNK N   1      19.369  16.210   7.980  0.00  0.00     0.106 A 
HETATM   64  C   UNK N   1      19.594  15.954   6.636  0.00  0.00     0.073 A 
HETATM   65  C   UNK N   1      20.706  15.216   6.231  0.00  0.00     0.075 A 
HETATM   66  C   UNK N   1      21.535  14.635   7.157  0.00  0.00     0.052 A 
BRANCH  63  67
HETATM   67  N   UNK N   1      18.277  17.030   8.381  0.00  0.00    -0.116 N 
HETATM   68  O   UNK N   1      17.184  16.831   7.942  0.00  0.00    -0.532 OA
HETATM   69  O   UNK N   1      18.454  17.949   9.122  0.00  0.00    -0.532 OA
ENDBRANCH  63  67
BRANCH  65  70
HETATM   70  O   UNK N   1      21.015  15.084   4.944  0.00  0.00    -0.318 OA
BRANCH  70  71
HETATM   71  C   UNK N   1      21.571  16.129   4.246  0.00  0.00     0.298 C 
HETATM   72  C   UNK N   1      22.795  16.722   5.012  0.00  0.00     0.205 C 
HETATM   73  C   UNK N   1      23.228  18.048   4.423  0.00  0.00     0.183 C 
HETATM   74  C   UNK N   1      22.024  18.954   4.199  0.00  0.00     0.180 C 
HETATM   75  C   UNK N   1      21.017  18.176   3.332  0.00  0.00     0.179 C 
HETATM   76  O   UNK N   1      20.545  17.086   4.090  0.00  0.00    -0.348 OA
BRANCH  72  77
HETATM   77  O   UNK N   1      23.914  15.888   4.933  0.00  0.00    -0.388 OA
HETATM   78  H   UNK N   1      24.015  14.963   4.658  0.00  0.00     0.210 HD
ENDBRANCH  72  77
BRANCH  73  79
HETATM   79  O   UNK N   1      24.153  18.652   5.279  0.00  0.00    -0.390 OA
HETATM   80  H   UNK N   1      24.520  19.530   5.087  0.00  0.00     0.210 HD
ENDBRANCH  73  79
BRANCH  74  81
HETATM   81  O   UNK N   1      22.449  20.120   3.562  0.00  0.00    -0.390 OA
HETATM   82  H   UNK N   1      22.716  20.194   2.632  0.00  0.00     0.210 HD
ENDBRANCH  74  81
BRANCH  75  83
HETATM   83  C   UNK N   1      19.818  19.022   2.935  0.00  0.00     0.198 C 
BRANCH  83  84
HETATM   84  O   UNK N   1      18.954  18.285   2.125  0.00  0.00    -0.398 OA
HETATM   85  H   UNK N   1      18.029  18.013   2.224  0.00  0.00     0.209 HD
ENDBRANCH  83  84
ENDBRANCH  75  83
ENDBRANCH  70  71
ENDBRANCH  65  70
ENDBRANCH  59  61
BRANCH  59  86
HETATM   86  O   UNK N   1      20.736  12.778   9.674  0.00  0.00    -0.346 OA
HETATM   87  H   UNK N   1      19.822  12.612   9.552  0.00  0.00     0.219 HD
ENDBRANCH  59  86
ENDBRANCH  57  58
ENDBRANCH  56  57
ENDBRANCH  55  56
ENDBRANCH  52  55
ENDBRANCH  48  49
ENDBRANCH  47  48
ENDBRANCH  46  47
ENDBRANCH  44  46
BRANCH  43  88
HETATM   88  O   UNK N   1      25.877   9.844   0.558  0.00  0.00    -0.327 OA
HETATM   89  H   UNK N   1      25.500   8.987   0.597  0.00  0.00     0.221 HD
ENDBRANCH  43  88
ENDBRANCH  42  43
ENDBRANCH  41  42
ENDBRANCH  40  41
BRANCH  40  90
HETATM   90  N   UNK N   1      29.318   9.994   5.326  0.00  0.00    -0.422 N 
HETATM   91  H   UNK N   1      30.037   9.278   5.436  0.00  0.00     0.150 HD
HETATM   92  H   UNK N   1      28.786  10.290   6.143  0.00  0.00     0.150 HD
ENDBRANCH  40  90
ENDBRANCH  39  40
ENDBRANCH  38  39
ENDBRANCH  34  38
ENDBRANCH  32  33
ENDBRANCH  31  32
ENDBRANCH  30  31
ENDBRANCH  27  30
ENDBRANCH  23  24
ENDBRANCH  22  23
ENDBRANCH  21  22
ENDBRANCH  19  21
BRANCH  18  93
HETATM   93  O   UNK N   1      32.316  13.557   8.255  0.00  0.00    -0.346 OA
HETATM   94  H   UNK N   1      32.289  13.145   9.097  0.00  0.00     0.219 HD
ENDBRANCH  18  93
ENDBRANCH  14  18
BRANCH  16  95
HETATM   95  N   UNK N   1      34.655  17.943   8.541  0.00  0.00    -0.116 N 
HETATM   96  O   UNK N   1      34.961  19.079   8.303  0.00  0.00    -0.532 OA
HETATM   97  O   UNK N   1      34.617  17.576   9.671  0.00  0.00    -0.532 OA
ENDBRANCH  16  95
ENDBRANCH  11  12
ENDBRANCH   5  11
BRANCH   2  98
HETATM   98  O   UNK N   1      26.299  17.196   6.582  0.00  0.00    -0.390 OA
HETATM   99  H   UNK N   1      25.897  18.043   6.332  0.00  0.00     0.210 HD
ENDBRANCH   2  98
BRANCH   1 100
HETATM  100  C   UNK N   1      28.573  17.566   8.436  0.00  0.00     0.198 C 
BRANCH 100 101
HETATM  101  O   UNK N   1      27.488  18.264   8.968  0.00  0.00    -0.398 OA
HETATM  102  H   UNK N   1      27.080  18.065   9.825  0.00  0.00     0.209 HD
ENDBRANCH 100 101
ENDBRANCH   1 100
TORSDOF 44
ENDMDL
MODEL 6
REMARK VINA RESULT:      -7.4      3.093     13.682
REMARK WARNING: 32 MAX_TORS EXCEEDED!!!
REMARK  44 active torsions:
REMARK  status: ('A' for Active; 'I' for Inactive)
REMARK    1  A    between atoms: C_5  and  C_1 
REMARK    2  A    between atoms: C_9  and  C_1 
REMARK    3  A    between atoms: C_6  and  C_2 
REMARK    4  A    between atoms: C_10  and  C_2 
REMARK    5  A    between atoms: C_7  and  C_3 
REMARK    6  A    between atoms: C_11  and  C_3 
REMARK    7  A    between atoms: C_8  and  C_4 
REMARK    8  A    between atoms: C_12  and  C_4 
REMARK    9  A    between atoms: N_53  and  C_5 
REMARK   10  A    between atoms: N_55  and  C_6 
REMARK   11  A    between atoms: N_57  and  C_7 
REMARK   12  A    between atoms: N_59  and  C_8 
REMARK   13  A    between atoms: N_61  and  C_9 
REMARK   14  A    between atoms: N_62  and  C_10 
REMARK   15  A    between atoms: N_63  and  C_11 
REMARK   16  A    between atoms: N_64  and  C_12 
REMARK   17  A    between atoms: C_38  and  C_27 
REMARK   18  A    between atoms: O_67  and  C_27 
REMARK   19  A    between atoms: C_39  and  C_28 
REMARK   20  A    between atoms: O_68  and  C_28 
REMARK   21  A    between atoms: C_33  and  C_29 
REMARK   22  A    between atoms: O_83  and  C_29 
REMARK   23  A    between atoms: C_33  and  C_30 
REMARK   24  A    between atoms: O_84  and  C_30 
REMARK   25  A    between atoms: C_46  and  C_31 
REMARK   26  A    between atoms: C_47  and  C_32 
REMARK   27  A    between atoms: N_52  and  C_33 
REMARK   28  A    between atoms: N_65  and  C_34 
REMARK   29  A    between atoms: N_66  and  C_35 
REMARK   30  A    between atoms: O_85  and  C_36 
REMARK   31  A    between atoms: O_86  and  C_37 
REMARK   32  A    between atoms: C_40  and  O_69 
REMARK   33  A    between atoms: O_70  and  C_41 
REMARK   34  A    between atoms: C_42  and  O_71 
REMARK   35  A    between atoms: O_72  and  C_43 
REMARK   36  A    between atoms: O_74  and  C_45 
REMARK   37  A    between atoms: O_75  and  C_46 
REMARK   38  A    between atoms: O_76  and  C_47 
REMARK   39  A    between atoms: C_48  and  O_85 
REMARK   40  A    between atoms: O_86  and  C_49 
REMARK   41  A    between atoms: O_77  and  C_50 
REMARK   42  A    between atoms: O_83  and  C_50 
REMARK   43  A    between atoms: O_78  and  C_51 
REMARK   44  A    between atoms: O_84  and  C_51 
ROOT
HETATM    1  C   UNK N   1      23.602   7.780   6.691  0.00  0.00     0.179 C 
HETATM    2  C   UNK N   1      24.216   7.641   5.277  0.00  0.00     0.180 C 
HETATM    3  C   UNK N   1      23.607   8.707   4.373  0.00  0.00     0.183 C 
HETATM    4  C   UNK N   1      23.800  10.071   5.001  0.00  0.00     0.205 C 
HETATM    5  C   UNK N   1      23.237  10.076   6.445  0.00  0.00     0.298 C 
HETATM    6  O   UNK N   1      25.158  10.411   5.028  0.00  0.00    -0.388 OA
HETATM    7  O   UNK N   1      23.870   9.068   7.213  0.00  0.00    -0.348 OA
HETATM    8  H   UNK N   1      26.114  10.536   4.921  0.00  0.00     0.210 HD
ENDROOT
BRANCH   3   9
HETATM    9  O   UNK N   1      24.198   8.683   3.105  0.00  0.00    -0.390 OA
HETATM   10  H   UNK N   1      25.070   8.305   2.911  0.00  0.00     0.210 HD
ENDBRANCH   3   9
BRANCH   5  11
HETATM   11  O   UNK N   1      23.432  11.272   7.127  0.00  0.00    -0.318 OA
BRANCH  11  12
HETATM   12  C   UNK N   1      22.865  11.688   8.286  0.00  0.00     0.075 A 
HETATM   13  C   UNK N   1      21.678  12.386   8.217  0.00  0.00     0.052 A 
HETATM   14  C   UNK N   1      21.107  12.908   9.377  0.00  0.00     0.019 A 
HETATM   15  C   UNK N   1      21.691  12.681  10.617  0.00  0.00     0.052 A 
HETATM   16  C   UNK N   1      22.898  12.013  10.702  0.00  0.00     0.106 A 
HETATM   17  C   UNK N   1      23.483  11.542   9.533  0.00  0.00     0.073 A 
BRANCH  14  18
HETATM   18  C   UNK N   1      20.331  14.138   9.236  0.00  0.00     0.146 C 
HETATM   19  N   UNK N   1      20.644  15.096   8.425  0.00  0.00    -0.370 N 
ATOM     20  HN  UNK N   1      19.951  15.825   8.258  1.00  0.00     0.161 HD
BRANCH  19  21
HETATM   21  C   UNK N   1      21.910  15.200   7.742  0.00  0.00     0.123 C 
BRANCH  21  22
HETATM   22  C   UNK N   1      21.862  16.420   6.816  0.00  0.00     0.050 C 
BRANCH  22  23
HETATM   23  C   UNK N   1      20.576  16.415   5.968  0.00  0.00     0.274 C 
BRANCH  23  24
HETATM   24  N   UNK N   1      20.669  15.726   4.668  0.00  0.00     0.091 N 
HETATM   25  C   UNK N   1      19.825  14.506   4.580  0.00  0.00     0.291 C 
HETATM   26  C   UNK N   1      19.470  14.121   3.155  0.00  0.00     0.147 C 
HETATM   27  N   UNK N   1      20.537  14.656   2.348  0.00  0.00    -0.409 N 
HETATM   28  C   UNK N   1      20.427  16.095   2.202  0.00  0.00     0.147 C 
HETATM   29  C   UNK N   1      20.339  16.710   3.617  0.00  0.00     0.291 C 
BRANCH  27  30
HETATM   30  C   UNK N   1      20.850  13.850   1.196  0.00  0.00     0.118 C 
BRANCH  30  31
HETATM   31  C   UNK N   1      22.293  14.170   0.800  0.00  0.00     0.039 C 
BRANCH  31  32
HETATM   32  C   UNK N   1      23.315  13.117   1.270  0.00  0.00     0.125 C 
BRANCH  32  33
HETATM   33  N   UNK N   1      24.586  13.737   1.603  0.00  0.00    -0.350 N 
HETATM   34  C   UNK N   1      25.128  13.844   2.785  0.00  0.00     0.258 C 
ATOM     35  HN  UNK N   1      25.114  14.133   0.825  1.00  0.00     0.163 HD
BRANCH  34  36
HETATM   36  O   UNK N   1      26.284  14.521   2.899  0.00  0.00    -0.327 OA
HETATM   37  H   UNK N   1      26.629  15.264   3.353  0.00  0.00     0.221 HD
ENDBRANCH  34  36
BRANCH  34  38
HETATM   38  O   UNK N   1      24.589  13.319   3.923  0.00  0.00    -0.315 OA
BRANCH  38  39
HETATM   39  C   UNK N   1      24.168  14.028   5.018  0.00  0.00     0.206 C 
BRANCH  39  40
HETATM   40  C   UNK N   1      25.129  13.857   6.187  0.00  0.00     0.123 C 
BRANCH  40  41
HETATM   41  C   UNK N   1      25.463  15.271   6.606  0.00  0.00     0.206 C 
BRANCH  41  42
HETATM   42  O   UNK N   1      25.401  16.192   5.592  0.00  0.00    -0.315 OA
BRANCH  42  43
HETATM   43  C   UNK N   1      26.422  17.039   5.318  0.00  0.00     0.258 C 
HETATM   44  N   UNK N   1      27.204  16.756   4.342  0.00  0.00    -0.350 N 
ATOM     45  HN  UNK N   1      26.991  15.929   3.784  1.00  0.00     0.163 HD
BRANCH  44  46
HETATM   46  C   UNK N   1      28.365  17.529   3.983  0.00  0.00     0.125 C 
BRANCH  46  47
HETATM   47  C   UNK N   1      29.313  16.665   3.150  0.00  0.00     0.050 C 
BRANCH  47  48
HETATM   48  C   UNK N   1      30.401  15.932   3.965  0.00  0.00     0.274 C 
BRANCH  48  49
HETATM   49  N   UNK N   1      31.092  16.792   4.934  0.00  0.00     0.091 N 
HETATM   50  C   UNK N   1      31.070  16.151   6.260  0.00  0.00     0.302 C 
HETATM   51  C   UNK N   1      32.384  15.423   6.611  0.00  0.00     0.302 C 
HETATM   52  N   UNK N   1      33.609  16.179   6.279  0.00  0.00     0.091 N 
HETATM   53  C   UNK N   1      33.360  17.441   5.610  0.00  0.00     0.302 C 
HETATM   54  C   UNK N   1      32.442  17.138   4.459  0.00  0.00     0.302 C 
BRANCH  52  55
HETATM   55  C   UNK N   1      34.492  16.398   7.417  0.00  0.00     0.274 C 
BRANCH  55  56
HETATM   56  C   UNK N   1      33.880  17.269   8.514  0.00  0.00     0.050 C 
BRANCH  56  57
HETATM   57  C   UNK N   1      34.937  17.437   9.579  0.00  0.00     0.123 C 
BRANCH  57  58
HETATM   58  N   UNK N   1      34.742  16.366  10.499  0.00  0.00    -0.370 N 
HETATM   59  C   UNK N   1      35.700  15.716  11.062  0.00  0.00     0.146 C 
ATOM     60  HN  UNK N   1      33.785  16.097  10.726  1.00  0.00     0.161 HD
BRANCH  59  61
HETATM   61  C   UNK N   1      35.295  14.644  11.914  0.00  0.00     0.019 A 
HETATM   62  C   UNK N   1      35.927  14.541  13.163  0.00  0.00     0.052 A 
HETATM   63  C   UNK N   1      36.192  13.294  13.730  0.00  0.00     0.106 A 
HETATM   64  C   UNK N   1      35.865  12.162  13.001  0.00  0.00     0.073 A 
HETATM   65  C   UNK N   1      35.189  12.272  11.785  0.00  0.00     0.075 A 
HETATM   66  C   UNK N   1      34.936  13.503  11.235  0.00  0.00     0.052 A 
BRANCH  63  67
HETATM   67  N   UNK N   1      36.810  13.172  15.007  0.00  0.00    -0.116 N 
HETATM   68  O   UNK N   1      36.921  12.099  15.520  0.00  0.00    -0.532 OA
HETATM   69  O   UNK N   1      37.178  14.145  15.593  0.00  0.00    -0.532 OA
ENDBRANCH  63  67
BRANCH  65  70
HETATM   70  O   UNK N   1      34.742  11.195  11.145  0.00  0.00    -0.318 OA
BRANCH  70  71
HETATM   71  C   UNK N   1      34.499  11.234   9.793  0.00  0.00     0.298 C 
HETATM   72  C   UNK N   1      33.175  10.483   9.444  0.00  0.00     0.205 C 
HETATM   73  C   UNK N   1      33.047  10.250   7.954  0.00  0.00     0.183 C 
HETATM   74  C   UNK N   1      34.347   9.700   7.382  0.00  0.00     0.180 C 
HETATM   75  C   UNK N   1      35.472  10.675   7.775  0.00  0.00     0.179 C 
HETATM   76  O   UNK N   1      35.615  10.628   9.177  0.00  0.00    -0.348 OA
BRANCH  72  77
HETATM   77  O   UNK N   1      32.045  11.218   9.812  0.00  0.00    -0.388 OA
HETATM   78  H   UNK N   1      31.216  11.409   9.346  0.00  0.00     0.210 HD
ENDBRANCH  72  77
BRANCH  73  79
HETATM   79  O   UNK N   1      31.987   9.372   7.713  0.00  0.00    -0.390 OA
HETATM   80  H   UNK N   1      31.083   9.583   7.994  0.00  0.00     0.210 HD
ENDBRANCH  73  79
BRANCH  74  81
HETATM   81  O   UNK N   1      34.225   9.598   5.996  0.00  0.00    -0.390 OA
HETATM   82  H   UNK N   1      33.675   8.955   5.520  0.00  0.00     0.210 HD
ENDBRANCH  74  81
BRANCH  75  83
HETATM   83  C   UNK N   1      36.809  10.298   7.158  0.00  0.00     0.198 C 
BRANCH  83  84
HETATM   84  O   UNK N   1      36.920  10.838   5.877  0.00  0.00    -0.398 OA
HETATM   85  H   UNK N   1      37.633  10.838   5.220  0.00  0.00     0.209 HD
ENDBRANCH  83  84
ENDBRANCH  75  83
ENDBRANCH  70  71
ENDBRANCH  65  70
ENDBRANCH  59  61
BRANCH  59  86
HETATM   86  O   UNK N   1      36.994  16.063  10.904  0.00  0.00    -0.346 OA
HETATM   87  H   UNK N   1      37.612  16.149  10.206  0.00  0.00     0.219 HD
ENDBRANCH  59  86
ENDBRANCH  57  58
ENDBRANCH  56  57
ENDBRANCH  55  56
ENDBRANCH  52  55
ENDBRANCH  48  49
ENDBRANCH  47  48
ENDBRANCH  46  47
ENDBRANCH  44  46
BRANCH  43  88
HETATM   88  O   UNK N   1      26.627  18.144   6.062  0.00  0.00    -0.327 OA
HETATM   89  H   UNK N   1      26.867  18.254   6.961  0.00  0.00     0.221 HD
ENDBRANCH  43  88
ENDBRANCH  42  43
ENDBRANCH  41  42
ENDBRANCH  40  41
BRANCH  40  90
HETATM   90  N   UNK N   1      26.316  13.136   5.766  0.00  0.00    -0.422 N 
HETATM   91  H   UNK N   1      26.916  12.649   6.433  0.00  0.00     0.150 HD
HETATM   92  H   UNK N   1      26.558  13.114   4.776  0.00  0.00     0.150 HD
ENDBRANCH  40  90
ENDBRANCH  39  40
ENDBRANCH  38  39
ENDBRANCH  34  38
ENDBRANCH  32  33
ENDBRANCH  31  32
ENDBRANCH  30  31
ENDBRANCH  27  30
ENDBRANCH  23  24
ENDBRANCH  22  23
ENDBRANCH  21  22
ENDBRANCH  19  21
BRANCH  18  93
HETATM   93  O   UNK N   1      19.187  14.232   9.942  0.00  0.00    -0.346 OA
HETATM   94  H   UNK N   1      18.930  14.591  10.769  0.00  0.00     0.219 HD
ENDBRANCH  18  93
ENDBRANCH  14  18
BRANCH  16  95
HETATM   95  N   UNK N   1      23.621  12.043  11.921  0.00  0.00    -0.116 N 
HETATM   96  O   UNK N   1      23.025  11.938  12.958  0.00  0.00    -0.532 OA
HETATM   97  O   UNK N   1      24.805  11.940  11.919  0.00  0.00    -0.532 OA
ENDBRANCH  16  95
ENDBRANCH  11  12
ENDBRANCH   5  11
BRANCH   2  98
HETATM   98  O   UNK N   1      23.955   6.382   4.737  0.00  0.00    -0.390 OA
HETATM   99  H   UNK N   1      24.573   5.638   4.823  0.00  0.00     0.210 HD
ENDBRANCH   2  98
BRANCH   1 100
HETATM  100  C   UNK N   1      24.215   6.772   7.657  0.00  0.00     0.198 C 
BRANCH 100 101
HETATM  101  O   UNK N   1      23.378   5.669   7.825  0.00  0.00    -0.398 OA
HETATM  102  H   UNK N   1      22.431   5.730   8.030  0.00  0.00     0.209 HD
ENDBRANCH 100 101
ENDBRANCH   1 100
TORSDOF 44
ENDMDL
MODEL 7
REMARK VINA RESULT:      -7.4      3.972     14.232
REMARK WARNING: 32 MAX_TORS EXCEEDED!!!
REMARK  44 active torsions:
REMARK  status: ('A' for Active; 'I' for Inactive)
REMARK    1  A    between atoms: C_5  and  C_1 
REMARK    2  A    between atoms: C_9  and  C_1 
REMARK    3  A    between atoms: C_6  and  C_2 
REMARK    4  A    between atoms: C_10  and  C_2 
REMARK    5  A    between atoms: C_7  and  C_3 
REMARK    6  A    between atoms: C_11  and  C_3 
REMARK    7  A    between atoms: C_8  and  C_4 
REMARK    8  A    between atoms: C_12  and  C_4 
REMARK    9  A    between atoms: N_53  and  C_5 
REMARK   10  A    between atoms: N_55  and  C_6 
REMARK   11  A    between atoms: N_57  and  C_7 
REMARK   12  A    between atoms: N_59  and  C_8 
REMARK   13  A    between atoms: N_61  and  C_9 
REMARK   14  A    between atoms: N_62  and  C_10 
REMARK   15  A    between atoms: N_63  and  C_11 
REMARK   16  A    between atoms: N_64  and  C_12 
REMARK   17  A    between atoms: C_38  and  C_27 
REMARK   18  A    between atoms: O_67  and  C_27 
REMARK   19  A    between atoms: C_39  and  C_28 
REMARK   20  A    between atoms: O_68  and  C_28 
REMARK   21  A    between atoms: C_33  and  C_29 
REMARK   22  A    between atoms: O_83  and  C_29 
REMARK   23  A    between atoms: C_33  and  C_30 
REMARK   24  A    between atoms: O_84  and  C_30 
REMARK   25  A    between atoms: C_46  and  C_31 
REMARK   26  A    between atoms: C_47  and  C_32 
REMARK   27  A    between atoms: N_52  and  C_33 
REMARK   28  A    between atoms: N_65  and  C_34 
REMARK   29  A    between atoms: N_66  and  C_35 
REMARK   30  A    between atoms: O_85  and  C_36 
REMARK   31  A    between atoms: O_86  and  C_37 
REMARK   32  A    between atoms: C_40  and  O_69 
REMARK   33  A    between atoms: O_70  and  C_41 
REMARK   34  A    between atoms: C_42  and  O_71 
REMARK   35  A    between atoms: O_72  and  C_43 
REMARK   36  A    between atoms: O_74  and  C_45 
REMARK   37  A    between atoms: O_75  and  C_46 
REMARK   38  A    between atoms: O_76  and  C_47 
REMARK   39  A    between atoms: C_48  and  O_85 
REMARK   40  A    between atoms: O_86  and  C_49 
REMARK   41  A    between atoms: O_77  and  C_50 
REMARK   42  A    between atoms: O_83  and  C_50 
REMARK   43  A    between atoms: O_78  and  C_51 
REMARK   44  A    between atoms: O_84  and  C_51 
ROOT
HETATM    1  C   UNK N   1      26.244  18.739   4.772  0.00  0.00     0.179 C 
HETATM    2  C   UNK N   1      27.307  17.996   3.927  0.00  0.00     0.180 C 
HETATM    3  C   UNK N   1      27.269  16.515   4.285  0.00  0.00     0.183 C 
HETATM    4  C   UNK N   1      25.859  15.991   4.109  0.00  0.00     0.205 C 
HETATM    5  C   UNK N   1      24.863  16.859   4.918  0.00  0.00     0.298 C 
HETATM    6  O   UNK N   1      25.497  16.002   2.756  0.00  0.00    -0.388 OA
HETATM    7  O   UNK N   1      24.958  18.211   4.509  0.00  0.00    -0.348 OA
HETATM    8  H   UNK N   1      25.411  16.009   1.789  0.00  0.00     0.210 HD
ENDROOT
BRANCH   3   9
HETATM    9  O   UNK N   1      28.148  15.784   3.480  0.00  0.00    -0.390 OA
HETATM   10  H   UNK N   1      28.077  15.705   2.516  0.00  0.00     0.210 HD
ENDBRANCH   3   9
BRANCH   5  11
HETATM   11  O   UNK N   1      23.531  16.492   4.762  0.00  0.00    -0.318 OA
BRANCH  11  12
HETATM   12  C   UNK N   1      22.635  16.131   5.713  0.00  0.00     0.075 A 
HETATM   13  C   UNK N   1      22.357  14.789   5.871  0.00  0.00     0.052 A 
HETATM   14  C   UNK N   1      21.378  14.381   6.775  0.00  0.00     0.019 A 
HETATM   15  C   UNK N   1      20.716  15.310   7.569  0.00  0.00     0.052 A 
HETATM   16  C   UNK N   1      20.957  16.661   7.400  0.00  0.00     0.106 A 
HETATM   17  C   UNK N   1      21.899  17.057   6.459  0.00  0.00     0.073 A 
BRANCH  14  18
HETATM   18  C   UNK N   1      20.644  13.160   6.450  0.00  0.00     0.146 C 
HETATM   19  N   UNK N   1      19.728  13.095   5.538  0.00  0.00    -0.370 N 
ATOM     20  HN  UNK N   1      19.405  12.171   5.252  1.00  0.00     0.161 HD
BRANCH  19  21
HETATM   21  C   UNK N   1      19.133  14.243   4.901  0.00  0.00     0.123 C 
BRANCH  21  22
HETATM   22  C   UNK N   1      19.212  14.050   3.383  0.00  0.00     0.050 C 
BRANCH  22  23
HETATM   23  C   UNK N   1      20.445  14.768   2.802  0.00  0.00     0.274 C 
BRANCH  23  24
HETATM   24  N   UNK N   1      21.475  13.894   2.212  0.00  0.00     0.091 N 
HETATM   25  C   UNK N   1      20.948  12.585   1.748  0.00  0.00     0.291 C 
HETATM   26  C   UNK N   1      21.809  11.935   0.679  0.00  0.00     0.147 C 
HETATM   27  N   UNK N   1      23.133  12.455   0.900  0.00  0.00    -0.409 N 
HETATM   28  C   UNK N   1      23.251  13.828   0.447  0.00  0.00     0.147 C 
HETATM   29  C   UNK N   1      22.132  14.649   1.125  0.00  0.00     0.291 C 
BRANCH  27  30
HETATM   30  C   UNK N   1      24.182  11.517   0.591  0.00  0.00     0.118 C 
BRANCH  30  31
HETATM   31  C   UNK N   1      25.145  11.509   1.780  0.00  0.00     0.039 C 
BRANCH  31  32
HETATM   32  C   UNK N   1      26.382  12.407   1.584  0.00  0.00     0.125 C 
BRANCH  32  33
HETATM   33  N   UNK N   1      26.827  12.965   2.850  0.00  0.00    -0.350 N 
HETATM   34  C   UNK N   1      27.581  12.389   3.745  0.00  0.00     0.258 C 
ATOM     35  HN  UNK N   1      26.514  13.912   3.063  1.00  0.00     0.163 HD
BRANCH  34  36
HETATM   36  O   UNK N   1      27.825  13.046   4.892  0.00  0.00    -0.327 OA
HETATM   37  H   UNK N   1      28.545  13.440   5.345  0.00  0.00     0.221 HD
ENDBRANCH  34  36
BRANCH  34  38
HETATM   38  O   UNK N   1      28.136  11.152   3.597  0.00  0.00    -0.315 OA
BRANCH  38  39
HETATM   39  C   UNK N   1      28.572  10.337   4.608  0.00  0.00     0.206 C 
BRANCH  39  40
HETATM   40  C   UNK N   1      30.094  10.275   4.649  0.00  0.00     0.123 C 
BRANCH  40  41
HETATM   41  C   UNK N   1      30.398   9.277   5.743  0.00  0.00     0.206 C 
BRANCH  41  42
HETATM   42  O   UNK N   1      31.726   8.965   5.873  0.00  0.00    -0.315 OA
BRANCH  42  43
HETATM   43  C   UNK N   1      32.404   9.143   7.033  0.00  0.00     0.258 C 
HETATM   44  N   UNK N   1      32.578  10.340   7.460  0.00  0.00    -0.350 N 
ATOM     45  HN  UNK N   1      32.154  11.102   6.930  1.00  0.00     0.163 HD
BRANCH  44  46
HETATM   46  C   UNK N   1      33.334  10.678   8.637  0.00  0.00     0.125 C 
BRANCH  46  47
HETATM   47  C   UNK N   1      34.471  11.627   8.255  0.00  0.00     0.050 C 
BRANCH  47  48
HETATM   48  C   UNK N   1      35.584  10.986   7.397  0.00  0.00     0.274 C 
BRANCH  48  49
HETATM   49  N   UNK N   1      35.920  11.758   6.195  0.00  0.00     0.091 N 
HETATM   50  C   UNK N   1      35.473  11.021   5.000  0.00  0.00     0.302 C 
HETATM   51  C   UNK N   1      34.130  11.528   4.433  0.00  0.00     0.302 C 
HETATM   52  N   UNK N   1      34.011  12.999   4.367  0.00  0.00     0.091 N 
HETATM   53  C   UNK N   1      35.149  13.708   4.919  0.00  0.00     0.302 C 
HETATM   54  C   UNK N   1      35.389  13.129   6.285  0.00  0.00     0.302 C 
BRANCH  52  55
HETATM   55  C   UNK N   1      33.724  13.507   3.032  0.00  0.00     0.274 C 
BRANCH  55  56
HETATM   56  C   UNK N   1      33.804  15.028   2.919  0.00  0.00     0.050 C 
BRANCH  56  57
HETATM   57  C   UNK N   1      32.411  15.559   3.162  0.00  0.00     0.123 C 
BRANCH  57  58
HETATM   58  N   UNK N   1      32.300  15.743   4.571  0.00  0.00    -0.370 N 
HETATM   59  C   UNK N   1      31.325  15.295   5.282  0.00  0.00     0.146 C 
ATOM     60  HN  UNK N   1      33.038  16.263   5.045  1.00  0.00     0.161 HD
BRANCH  59  61
HETATM   61  C   UNK N   1      31.374  15.630   6.668  0.00  0.00     0.019 A 
HETATM   62  C   UNK N   1      30.418  16.542   7.144  0.00  0.00     0.052 A 
HETATM   63  C   UNK N   1      30.740  17.458   8.146  0.00  0.00     0.106 A 
HETATM   64  C   UNK N   1      32.043  17.481   8.617  0.00  0.00     0.073 A 
HETATM   65  C   UNK N   1      32.972  16.537   8.178  0.00  0.00     0.075 A 
HETATM   66  C   UNK N   1      32.647  15.642   7.191  0.00  0.00     0.052 A 
BRANCH  63  67
HETATM   67  N   UNK N   1      29.776  18.373   8.657  0.00  0.00    -0.116 N 
HETATM   68  O   UNK N   1      28.723  18.504   8.107  0.00  0.00    -0.532 OA
HETATM   69  O   UNK N   1      30.030  19.048   9.607  0.00  0.00    -0.532 OA
ENDBRANCH  63  67
BRANCH  65  70
HETATM   70  O   UNK N   1      34.182  16.455   8.725  0.00  0.00    -0.318 OA
BRANCH  70  71
HETATM   71  C   UNK N   1      34.625  15.275   9.273  0.00  0.00     0.298 C 
HETATM   72  C   UNK N   1      34.233  15.179  10.781  0.00  0.00     0.205 C 
HETATM   73  C   UNK N   1      34.964  14.048  11.472  0.00  0.00     0.183 C 
HETATM   74  C   UNK N   1      36.447  14.075  11.124  0.00  0.00     0.180 C 
HETATM   75  C   UNK N   1      36.560  14.055   9.589  0.00  0.00     0.179 C 
HETATM   76  O   UNK N   1      36.025  15.265   9.101  0.00  0.00    -0.348 OA
BRANCH  72  77
HETATM   77  O   UNK N   1      32.872  14.912  10.951  0.00  0.00    -0.388 OA
HETATM   78  H   UNK N   1      32.399  14.113  11.234  0.00  0.00     0.210 HD
ENDBRANCH  72  77
BRANCH  73  79
HETATM   79  O   UNK N   1      34.776  14.153  12.854  0.00  0.00    -0.390 OA
HETATM   80  H   UNK N   1      35.528  14.181  13.465  0.00  0.00     0.210 HD
ENDBRANCH  73  79
BRANCH  74  81
HETATM   81  O   UNK N   1      37.065  12.961  11.693  0.00  0.00    -0.390 OA
HETATM   82  H   UNK N   1      37.424  12.201  11.209  0.00  0.00     0.210 HD
ENDBRANCH  74  81
BRANCH  75  83
HETATM   83  C   UNK N   1      38.001  13.957   9.114  0.00  0.00     0.198 C 
BRANCH  83  84
HETATM   84  O   UNK N   1      38.817  14.800   9.868  0.00  0.00    -0.398 OA
HETATM   85  H   UNK N   1      39.761  14.781  10.088  0.00  0.00     0.209 HD
ENDBRANCH  83  84
ENDBRANCH  75  83
ENDBRANCH  70  71
ENDBRANCH  65  70
ENDBRANCH  59  61
BRANCH  59  86
HETATM   86  O   UNK N   1      30.357  14.512   4.763  0.00  0.00    -0.346 OA
HETATM   87  H   UNK N   1      29.451  14.582   4.534  0.00  0.00     0.219 HD
ENDBRANCH  59  86
ENDBRANCH  57  58
ENDBRANCH  56  57
ENDBRANCH  55  56
ENDBRANCH  52  55
ENDBRANCH  48  49
ENDBRANCH  47  48
ENDBRANCH  46  47
ENDBRANCH  44  46
BRANCH  43  88
HETATM   88  O   UNK N   1      32.901   8.093   7.715  0.00  0.00    -0.327 OA
HETATM   89  H   UNK N   1      32.486   7.444   8.248  0.00  0.00     0.221 HD
ENDBRANCH  43  88
ENDBRANCH  42  43
ENDBRANCH  41  42
ENDBRANCH  40  41
BRANCH  40  90
HETATM   90  N   UNK N   1      30.645  11.583   4.959  0.00  0.00    -0.422 N 
HETATM   91  H   UNK N   1      30.820  12.279   4.234  0.00  0.00     0.150 HD
HETATM   92  H   UNK N   1      30.863  11.812   5.928  0.00  0.00     0.150 HD
ENDBRANCH  40  90
ENDBRANCH  39  40
ENDBRANCH  38  39
ENDBRANCH  34  38
ENDBRANCH  32  33
ENDBRANCH  31  32
ENDBRANCH  30  31
ENDBRANCH  27  30
ENDBRANCH  23  24
ENDBRANCH  22  23
ENDBRANCH  21  22
ENDBRANCH  19  21
BRANCH  18  93
HETATM   93  O   UNK N   1      21.006  12.031   7.089  0.00  0.00    -0.346 OA
HETATM   94  H   UNK N   1      20.737  11.133   7.080  0.00  0.00     0.219 HD
ENDBRANCH  18  93
ENDBRANCH  14  18
BRANCH  16  95
HETATM   95  N   UNK N   1      20.078  17.600   7.997  0.00  0.00    -0.116 N 
HETATM   96  O   UNK N   1      19.190  17.205   8.701  0.00  0.00    -0.532 OA
HETATM   97  O   UNK N   1      20.347  18.758   7.994  0.00  0.00    -0.532 OA
ENDBRANCH  16  95
ENDBRANCH  11  12
ENDBRANCH   5  11
BRANCH   2  98
HETATM   98  O   UNK N   1      28.586  18.493   4.179  0.00  0.00    -0.390 OA
HETATM   99  H   UNK N   1      28.755  19.202   4.820  0.00  0.00     0.210 HD
ENDBRANCH   2  98
BRANCH   1 100
HETATM  100  C   UNK N   1      26.199  20.221   4.416  0.00  0.00     0.198 C 
BRANCH 100 101
HETATM  101  O   UNK N   1      27.184  20.929   5.103  0.00  0.00    -0.398 OA
HETATM  102  H   UNK N   1      27.171  21.891   5.237  0.00  0.00     0.209 HD
ENDBRANCH 100 101
ENDBRANCH   1 100
TORSDOF 44
ENDMDL
MODEL 8
REMARK VINA RESULT:      -7.3      3.307     14.348
REMARK WARNING: 32 MAX_TORS EXCEEDED!!!
REMARK  44 active torsions:
REMARK  status: ('A' for Active; 'I' for Inactive)
REMARK    1  A    between atoms: C_5  and  C_1 
REMARK    2  A    between atoms: C_9  and  C_1 
REMARK    3  A    between atoms: C_6  and  C_2 
REMARK    4  A    between atoms: C_10  and  C_2 
REMARK    5  A    between atoms: C_7  and  C_3 
REMARK    6  A    between atoms: C_11  and  C_3 
REMARK    7  A    between atoms: C_8  and  C_4 
REMARK    8  A    between atoms: C_12  and  C_4 
REMARK    9  A    between atoms: N_53  and  C_5 
REMARK   10  A    between atoms: N_55  and  C_6 
REMARK   11  A    between atoms: N_57  and  C_7 
REMARK   12  A    between atoms: N_59  and  C_8 
REMARK   13  A    between atoms: N_61  and  C_9 
REMARK   14  A    between atoms: N_62  and  C_10 
REMARK   15  A    between atoms: N_63  and  C_11 
REMARK   16  A    between atoms: N_64  and  C_12 
REMARK   17  A    between atoms: C_38  and  C_27 
REMARK   18  A    between atoms: O_67  and  C_27 
REMARK   19  A    between atoms: C_39  and  C_28 
REMARK   20  A    between atoms: O_68  and  C_28 
REMARK   21  A    between atoms: C_33  and  C_29 
REMARK   22  A    between atoms: O_83  and  C_29 
REMARK   23  A    between atoms: C_33  and  C_30 
REMARK   24  A    between atoms: O_84  and  C_30 
REMARK   25  A    between atoms: C_46  and  C_31 
REMARK   26  A    between atoms: C_47  and  C_32 
REMARK   27  A    between atoms: N_52  and  C_33 
REMARK   28  A    between atoms: N_65  and  C_34 
REMARK   29  A    between atoms: N_66  and  C_35 
REMARK   30  A    between atoms: O_85  and  C_36 
REMARK   31  A    between atoms: O_86  and  C_37 
REMARK   32  A    between atoms: C_40  and  O_69 
REMARK   33  A    between atoms: O_70  and  C_41 
REMARK   34  A    between atoms: C_42  and  O_71 
REMARK   35  A    between atoms: O_72  and  C_43 
REMARK   36  A    between atoms: O_74  and  C_45 
REMARK   37  A    between atoms: O_75  and  C_46 
REMARK   38  A    between atoms: O_76  and  C_47 
REMARK   39  A    between atoms: C_48  and  O_85 
REMARK   40  A    between atoms: O_86  and  C_49 
REMARK   41  A    between atoms: O_77  and  C_50 
REMARK   42  A    between atoms: O_83  and  C_50 
REMARK   43  A    between atoms: O_78  and  C_51 
REMARK   44  A    between atoms: O_84  and  C_51 
ROOT
HETATM    1  C   UNK N   1      28.002  13.573   3.547  0.00  0.00     0.179 C 
HETATM    2  C   UNK N   1      27.809  14.950   2.868  0.00  0.00     0.180 C 
HETATM    3  C   UNK N   1      26.323  15.294   2.871  0.00  0.00     0.183 C 
HETATM    4  C   UNK N   1      25.794  15.223   4.288  0.00  0.00     0.205 C 
HETATM    5  C   UNK N   1      26.121  13.841   4.909  0.00  0.00     0.298 C 
HETATM    6  O   UNK N   1      26.359  16.234   5.074  0.00  0.00    -0.388 OA
HETATM    7  O   UNK N   1      27.519  13.616   4.877  0.00  0.00    -0.348 OA
HETATM    8  H   UNK N   1      26.778  17.014   5.473  0.00  0.00     0.210 HD
ENDROOT
BRANCH   3   9
HETATM    9  O   UNK N   1      26.106  16.573   2.350  0.00  0.00    -0.390 OA
HETATM   10  H   UNK N   1      25.480  16.780   1.638  0.00  0.00     0.210 HD
ENDBRANCH   3   9
BRANCH   5  11
HETATM   11  O   UNK N   1      25.731  13.709   6.238  0.00  0.00    -0.318 OA
BRANCH  11  12
HETATM   12  C   UNK N   1      24.676  13.025   6.746  0.00  0.00     0.075 A 
HETATM   13  C   UNK N   1      23.865  13.664   7.661  0.00  0.00     0.052 A 
HETATM   14  C   UNK N   1      22.824  12.970   8.275  0.00  0.00     0.019 A 
HETATM   15  C   UNK N   1      22.551  11.652   7.929  0.00  0.00     0.052 A 
HETATM   16  C   UNK N   1      23.374  10.986   7.040  0.00  0.00     0.106 A 
HETATM   17  C   UNK N   1      24.439  11.674   6.474  0.00  0.00     0.073 A 
BRANCH  14  18
HETATM   18  C   UNK N   1      22.468  13.376   9.633  0.00  0.00     0.146 C 
HETATM   19  N   UNK N   1      21.329  13.902   9.950  0.00  0.00    -0.370 N 
ATOM     20  HN  UNK N   1      21.099  13.980  10.940  1.00  0.00     0.161 HD
BRANCH  19  21
HETATM   21  C   UNK N   1      20.364  14.385   8.994  0.00  0.00     0.123 C 
BRANCH  21  22
HETATM   22  C   UNK N   1      20.768  15.800   8.569  0.00  0.00     0.050 C 
BRANCH  22  23
HETATM   23  C   UNK N   1      19.759  16.379   7.559  0.00  0.00     0.274 C 
BRANCH  23  24
HETATM   24  N   UNK N   1      20.142  16.274   6.140  0.00  0.00     0.091 N 
HETATM   25  C   UNK N   1      21.575  15.938   5.935  0.00  0.00     0.291 C 
HETATM   26  C   UNK N   1      21.855  15.293   4.589  0.00  0.00     0.147 C 
HETATM   27  N   UNK N   1      20.808  15.769   3.722  0.00  0.00    -0.409 N 
HETATM   28  C   UNK N   1      19.543  15.115   4.001  0.00  0.00     0.147 C 
HETATM   29  C   UNK N   1      19.241  15.289   5.506  0.00  0.00     0.291 C 
BRANCH  27  30
HETATM   30  C   UNK N   1      21.226  15.946   2.355  0.00  0.00     0.118 C 
BRANCH  30  31
HETATM   31  C   UNK N   1      20.159  16.797   1.664  0.00  0.00     0.039 C 
BRANCH  31  32
HETATM   32  C   UNK N   1      20.286  18.306   1.947  0.00  0.00     0.125 C 
BRANCH  32  33
HETATM   33  N   UNK N   1      20.364  18.563   3.376  0.00  0.00    -0.350 N 
HETATM   34  C   UNK N   1      21.103  19.453   3.979  0.00  0.00     0.258 C 
ATOM     35  HN  UNK N   1      19.775  17.984   3.973  1.00  0.00     0.163 HD
BRANCH  34  36
HETATM   36  O   UNK N   1      21.090  19.489   5.322  0.00  0.00    -0.327 OA
HETATM   37  H   UNK N   1      21.306  20.079   6.018  0.00  0.00     0.221 HD
ENDBRANCH  34  36
BRANCH  34  38
HETATM   38  O   UNK N   1      21.901  20.350   3.331  0.00  0.00    -0.315 OA
BRANCH  38  39
HETATM   39  C   UNK N   1      23.149  20.100   2.824  0.00  0.00     0.206 C 
BRANCH  39  40
HETATM   40  C   UNK N   1      24.087  19.574   3.903  0.00  0.00     0.123 C 
BRANCH  40  41
HETATM   41  C   UNK N   1      25.468  19.937   3.405  0.00  0.00     0.206 C 
BRANCH  41  42
HETATM   42  O   UNK N   1      26.452  19.055   3.770  0.00  0.00    -0.315 OA
BRANCH  42  43
HETATM   43  C   UNK N   1      27.350  19.331   4.746  0.00  0.00     0.258 C 
HETATM   44  N   UNK N   1      27.008  19.128   5.965  0.00  0.00    -0.350 N 
ATOM     45  HN  UNK N   1      26.090  18.718   6.142  1.00  0.00     0.163 HD
BRANCH  44  46
HETATM   46  C   UNK N   1      27.835  19.440   7.101  0.00  0.00     0.125 C 
BRANCH  46  47
HETATM   47  C   UNK N   1      28.209  18.146   7.828  0.00  0.00     0.050 C 
BRANCH  47  48
HETATM   48  C   UNK N   1      29.607  18.157   8.485  0.00  0.00     0.274 C 
BRANCH  48  49
HETATM   49  N   UNK N   1      30.689  17.762   7.576  0.00  0.00     0.091 N 
HETATM   50  C   UNK N   1      31.911  17.497   8.356  0.00  0.00     0.302 C 
HETATM   51  C   UNK N   1      32.157  15.997   8.618  0.00  0.00     0.302 C 
HETATM   52  N   UNK N   1      31.939  15.127   7.444  0.00  0.00     0.091 N 
HETATM   53  C   UNK N   1      31.456  15.830   6.271  0.00  0.00     0.302 C 
HETATM   54  C   UNK N   1      30.272  16.640   6.718  0.00  0.00     0.302 C 
BRANCH  52  55
HETATM   55  C   UNK N   1      33.099  14.322   7.084  0.00  0.00     0.274 C 
BRANCH  55  56
HETATM   56  C   UNK N   1      33.165  13.962   5.601  0.00  0.00     0.050 C 
BRANCH  56  57
HETATM   57  C   UNK N   1      34.128  12.806   5.473  0.00  0.00     0.123 C 
BRANCH  57  58
HETATM   58  N   UNK N   1      35.242  13.127   6.302  0.00  0.00    -0.370 N 
HETATM   59  C   UNK N   1      36.411  13.426   5.855  0.00  0.00     0.146 C 
ATOM     60  HN  UNK N   1      35.104  13.121   7.313  1.00  0.00     0.161 HD
BRANCH  59  61
HETATM   61  C   UNK N   1      37.404  13.667   6.852  0.00  0.00     0.019 A 
HETATM   62  C   UNK N   1      38.731  13.816   6.415  0.00  0.00     0.052 A 
HETATM   63  C   UNK N   1      39.795  13.347   7.186  0.00  0.00     0.106 A 
HETATM   64  C   UNK N   1      39.502  12.680   8.366  0.00  0.00     0.073 A 
HETATM   65  C   UNK N   1      38.187  12.583   8.819  0.00  0.00     0.075 A 
HETATM   66  C   UNK N   1      37.147  13.045   8.052  0.00  0.00     0.052 A 
BRANCH  63  67
HETATM   67  N   UNK N   1      41.146  13.511   6.770  0.00  0.00    -0.116 N 
HETATM   68  O   UNK N   1      41.522  14.566   6.354  0.00  0.00    -0.532 OA
HETATM   69  O   UNK N   1      41.899  12.586   6.790  0.00  0.00    -0.532 OA
ENDBRANCH  63  67
BRANCH  65  70
HETATM   70  O   UNK N   1      37.905  12.075  10.016  0.00  0.00    -0.318 OA
BRANCH  70  71
HETATM   71  C   UNK N   1      36.795  12.491  10.710  0.00  0.00     0.298 C 
HETATM   72  C   UNK N   1      37.131  13.718  11.615  0.00  0.00     0.205 C 
HETATM   73  C   UNK N   1      36.021  13.997  12.605  0.00  0.00     0.183 C 
HETATM   74  C   UNK N   1      35.576  12.711  13.289  0.00  0.00     0.180 C 
HETATM   75  C   UNK N   1      35.199  11.707  12.184  0.00  0.00     0.179 C 
HETATM   76  O   UNK N   1      36.374  11.383  11.477  0.00  0.00    -0.348 OA
BRANCH  72  77
HETATM   77  O   UNK N   1      37.279  14.891  10.870  0.00  0.00    -0.388 OA
HETATM   78  H   UNK N   1      37.834  15.107  10.104  0.00  0.00     0.210 HD
ENDBRANCH  72  77
BRANCH  73  79
HETATM   79  O   UNK N   1      36.464  14.933  13.544  0.00  0.00    -0.390 OA
HETATM   80  H   UNK N   1      36.061  14.994  14.424  0.00  0.00     0.210 HD
ENDBRANCH  73  79
BRANCH  74  81
HETATM   81  O   UNK N   1      34.485  12.991  14.114  0.00  0.00    -0.390 OA
HETATM   82  H   UNK N   1      33.611  13.291  13.817  0.00  0.00     0.210 HD
ENDBRANCH  74  81
BRANCH  75  83
HETATM   83  C   UNK N   1      34.621  10.418  12.744  0.00  0.00     0.198 C 
BRANCH  83  84
HETATM   84  O   UNK N   1      33.348  10.646  13.266  0.00  0.00    -0.398 OA
HETATM   85  H   UNK N   1      32.789  11.436  13.320  0.00  0.00     0.209 HD
ENDBRANCH  83  84
ENDBRANCH  75  83
ENDBRANCH  70  71
ENDBRANCH  65  70
ENDBRANCH  59  61
BRANCH  59  86
HETATM   86  O   UNK N   1      36.664  13.560   4.537  0.00  0.00    -0.346 OA
HETATM   87  H   UNK N   1      36.816  13.007   3.797  0.00  0.00     0.219 HD
ENDBRANCH  59  86
ENDBRANCH  57  58
ENDBRANCH  56  57
ENDBRANCH  55  56
ENDBRANCH  52  55
ENDBRANCH  48  49
ENDBRANCH  47  48
ENDBRANCH  46  47
ENDBRANCH  44  46
BRANCH  43  88
HETATM   88  O   UNK N   1      28.567  19.827   4.450  0.00  0.00    -0.327 OA
HETATM   89  H   UNK N   1      29.396  19.408   4.321  0.00  0.00     0.221 HD
ENDBRANCH  43  88
ENDBRANCH  42  43
ENDBRANCH  41  42
ENDBRANCH  40  41
BRANCH  40  90
HETATM   90  N   UNK N   1      23.937  18.137   4.048  0.00  0.00    -0.422 N 
HETATM   91  H   UNK N   1      24.301  17.485   3.353  0.00  0.00     0.150 HD
HETATM   92  H   UNK N   1      23.456  17.770   4.868  0.00  0.00     0.150 HD
ENDBRANCH  40  90
ENDBRANCH  39  40
ENDBRANCH  38  39
ENDBRANCH  34  38
ENDBRANCH  32  33
ENDBRANCH  31  32
ENDBRANCH  30  31
ENDBRANCH  27  30
ENDBRANCH  23  24
ENDBRANCH  22  23
ENDBRANCH  21  22
ENDBRANCH  19  21
BRANCH  18  93
HETATM   93  O   UNK N   1      23.357  13.113  10.611  0.00  0.00    -0.346 OA
HETATM   94  H   UNK N   1      24.174  12.658  10.677  0.00  0.00     0.219 HD
ENDBRANCH  18  93
ENDBRANCH  14  18
BRANCH  16  95
HETATM   95  N   UNK N   1      23.265   9.577   6.920  0.00  0.00    -0.116 N 
HETATM   96  O   UNK N   1      22.970   9.102   5.857  0.00  0.00    -0.532 OA
HETATM   97  O   UNK N   1      23.677   8.868   7.779  0.00  0.00    -0.532 OA
ENDBRANCH  16  95
ENDBRANCH  11  12
ENDBRANCH   5  11
BRANCH   2  98
HETATM   98  O   UNK N   1      28.268  14.929   1.550  0.00  0.00    -0.390 OA
HETATM   99  H   UNK N   1      29.198  14.766   1.323  0.00  0.00     0.210 HD
ENDBRANCH   2  98
BRANCH   1 100
HETATM  100  C   UNK N   1      29.478  13.201   3.622  0.00  0.00     0.198 C 
BRANCH 100 101
HETATM  101  O   UNK N   1      29.879  13.014   4.945  0.00  0.00    -0.398 OA
HETATM  102  H   UNK N   1      30.493  12.321   5.235  0.00  0.00     0.209 HD
ENDBRANCH 100 101
ENDBRANCH   1 100
TORSDOF 44
ENDMDL
MODEL 9
REMARK VINA RESULT:      -7.3      3.398     15.370
REMARK WARNING: 32 MAX_TORS EXCEEDED!!!
REMARK  44 active torsions:
REMARK  status: ('A' for Active; 'I' for Inactive)
REMARK    1  A    between atoms: C_5  and  C_1 
REMARK    2  A    between atoms: C_9  and  C_1 
REMARK    3  A    between atoms: C_6  and  C_2 
REMARK    4  A    between atoms: C_10  and  C_2 
REMARK    5  A    between atoms: C_7  and  C_3 
REMARK    6  A    between atoms: C_11  and  C_3 
REMARK    7  A    between atoms: C_8  and  C_4 
REMARK    8  A    between atoms: C_12  and  C_4 
REMARK    9  A    between atoms: N_53  and  C_5 
REMARK   10  A    between atoms: N_55  and  C_6 
REMARK   11  A    between atoms: N_57  and  C_7 
REMARK   12  A    between atoms: N_59  and  C_8 
REMARK   13  A    between atoms: N_61  and  C_9 
REMARK   14  A    between atoms: N_62  and  C_10 
REMARK   15  A    between atoms: N_63  and  C_11 
REMARK   16  A    between atoms: N_64  and  C_12 
REMARK   17  A    between atoms: C_38  and  C_27 
REMARK   18  A    between atoms: O_67  and  C_27 
REMARK   19  A    between atoms: C_39  and  C_28 
REMARK   20  A    between atoms: O_68  and  C_28 
REMARK   21  A    between atoms: C_33  and  C_29 
REMARK   22  A    between atoms: O_83  and  C_29 
REMARK   23  A    between atoms: C_33  and  C_30 
REMARK   24  A    between atoms: O_84  and  C_30 
REMARK   25  A    between atoms: C_46  and  C_31 
REMARK   26  A    between atoms: C_47  and  C_32 
REMARK   27  A    between atoms: N_52  and  C_33 
REMARK   28  A    between atoms: N_65  and  C_34 
REMARK   29  A    between atoms: N_66  and  C_35 
REMARK   30  A    between atoms: O_85  and  C_36 
REMARK   31  A    between atoms: O_86  and  C_37 
REMARK   32  A    between atoms: C_40  and  O_69 
REMARK   33  A    between atoms: O_70  and  C_41 
REMARK   34  A    between atoms: C_42  and  O_71 
REMARK   35  A    between atoms: O_72  and  C_43 
REMARK   36  A    between atoms: O_74  and  C_45 
REMARK   37  A    between atoms: O_75  and  C_46 
REMARK   38  A    between atoms: O_76  and  C_47 
REMARK   39  A    between atoms: C_48  and  O_85 
REMARK   40  A    between atoms: O_86  and  C_49 
REMARK   41  A    between atoms: O_77  and  C_50 
REMARK   42  A    between atoms: O_83  and  C_50 
REMARK   43  A    between atoms: O_78  and  C_51 
REMARK   44  A    between atoms: O_84  and  C_51 
ROOT
HETATM    1  C   UNK N   1      25.888  16.353   2.656  0.00  0.00     0.179 C 
HETATM    2  C   UNK N   1      27.208  16.370   3.464  0.00  0.00     0.180 C 
HETATM    3  C   UNK N   1      27.517  17.807   3.866  0.00  0.00     0.183 C 
HETATM    4  C   UNK N   1      26.331  18.389   4.606  0.00  0.00     0.205 C 
HETATM    5  C   UNK N   1      25.046  18.237   3.753  0.00  0.00     0.298 C 
HETATM    6  O   UNK N   1      26.154  17.743   5.835  0.00  0.00    -0.388 OA
HETATM    7  O   UNK N   1      24.832  16.872   3.441  0.00  0.00    -0.348 OA
HETATM    8  H   UNK N   1      26.195  17.254   6.673  0.00  0.00     0.210 HD
ENDROOT
BRANCH   3   9
HETATM    9  O   UNK N   1      28.654  17.865   4.678  0.00  0.00    -0.390 OA
HETATM   10  H   UNK N   1      29.451  18.380   4.476  0.00  0.00     0.210 HD
ENDBRANCH   3   9
BRANCH   5  11
HETATM   11  O   UNK N   1      23.889  18.684   4.383  0.00  0.00    -0.318 OA
BRANCH  11  12
HETATM   12  C   UNK N   1      22.647  18.837   3.863  0.00  0.00     0.075 A 
HETATM   13  C   UNK N   1      21.656  17.971   4.276  0.00  0.00     0.052 A 
HETATM   14  C   UNK N   1      20.388  18.036   3.702  0.00  0.00     0.019 A 
HETATM   15  C   UNK N   1      20.088  19.009   2.756  0.00  0.00     0.052 A 
HETATM   16  C   UNK N   1      21.077  19.863   2.305  0.00  0.00     0.106 A 
HETATM   17  C   UNK N   1      22.351  19.754   2.849  0.00  0.00     0.073 A 
BRANCH  14  18
HETATM   18  C   UNK N   1      19.637  16.786   3.612  0.00  0.00     0.146 C 
HETATM   19  N   UNK N   1      19.878  15.864   2.736  0.00  0.00    -0.370 N 
ATOM     20  HN  UNK N   1      19.434  14.956   2.866  1.00  0.00     0.161 HD
BRANCH  19  21
HETATM   21  C   UNK N   1      20.734  16.038   1.589  0.00  0.00     0.123 C 
BRANCH  21  22
HETATM   22  C   UNK N   1      21.836  14.975   1.641  0.00  0.00     0.050 C 
BRANCH  22  23
HETATM   23  C   UNK N   1      21.931  14.351   3.046  0.00  0.00     0.274 C 
BRANCH  23  24
HETATM   24  N   UNK N   1      22.646  13.065   3.128  0.00  0.00     0.091 N 
HETATM   25  C   UNK N   1      23.091  12.720   4.503  0.00  0.00     0.291 C 
HETATM   26  C   UNK N   1      23.304  11.231   4.710  0.00  0.00     0.147 C 
HETATM   27  N   UNK N   1      23.613  10.713   3.402  0.00  0.00    -0.409 N 
HETATM   28  C   UNK N   1      22.430  10.633   2.566  0.00  0.00     0.147 C 
HETATM   29  C   UNK N   1      21.767  12.028   2.549  0.00  0.00     0.291 C 
BRANCH  27  30
HETATM   30  C   UNK N   1      24.540   9.611   3.421  0.00  0.00     0.118 C 
BRANCH  30  31
HETATM   31  C   UNK N   1      25.938  10.194   3.204  0.00  0.00     0.039 C 
BRANCH  31  32
HETATM   32  C   UNK N   1      26.335  10.324   1.721  0.00  0.00     0.125 C 
BRANCH  32  33
HETATM   33  N   UNK N   1      26.933  11.621   1.452  0.00  0.00    -0.350 N 
HETATM   34  C   UNK N   1      28.175  11.972   1.638  0.00  0.00     0.258 C 
ATOM     35  HN  UNK N   1      26.311  12.337   1.078  1.00  0.00     0.163 HD
BRANCH  34  36
HETATM   36  O   UNK N   1      28.522  13.248   1.395  0.00  0.00    -0.327 OA
HETATM   37  H   UNK N   1      29.296  13.767   1.300  0.00  0.00     0.221 HD
ENDBRANCH  34  36
BRANCH  34  38
HETATM   38  O   UNK N   1      29.152  11.125   2.072  0.00  0.00    -0.315 OA
BRANCH  38  39
HETATM   39  C   UNK N   1      30.210  11.459   2.878  0.00  0.00     0.206 C 
BRANCH  39  40
HETATM   40  C   UNK N   1      29.757  11.689   4.314  0.00  0.00     0.123 C 
BRANCH  40  41
HETATM   41  C   UNK N   1      30.131  13.126   4.597  0.00  0.00     0.206 C 
BRANCH  41  42
HETATM   42  O   UNK N   1      30.319  13.895   3.477  0.00  0.00    -0.315 OA
BRANCH  42  43
HETATM   43  C   UNK N   1      31.355  14.759   3.356  0.00  0.00     0.258 C 
HETATM   44  N   UNK N   1      31.097  16.010   3.242  0.00  0.00    -0.350 N 
ATOM     45  HN  UNK N   1      30.121  16.303   3.299  1.00  0.00     0.163 HD
BRANCH  44  46
HETATM   46  C   UNK N   1      32.094  17.028   3.040  0.00  0.00     0.125 C 
BRANCH  46  47
HETATM   47  C   UNK N   1      32.302  17.801   4.343  0.00  0.00     0.050 C 
BRANCH  47  48
HETATM   48  C   UNK N   1      33.405  17.231   5.261  0.00  0.00     0.274 C 
BRANCH  48  49
HETATM   49  N   UNK N   1      33.095  17.337   6.692  0.00  0.00     0.091 N 
HETATM   50  C   UNK N   1      32.646  16.027   7.195  0.00  0.00     0.302 C 
HETATM   51  C   UNK N   1      33.752  15.240   7.927  0.00  0.00     0.302 C 
HETATM   52  N   UNK N   1      34.560  16.048   8.863  0.00  0.00     0.091 N 
HETATM   53  C   UNK N   1      34.220  17.457   8.870  0.00  0.00     0.302 C 
HETATM   54  C   UNK N   1      34.233  17.905   7.436  0.00  0.00     0.302 C 
BRANCH  52  55
HETATM   55  C   UNK N   1      34.560  15.542  10.230  0.00  0.00     0.274 C 
BRANCH  55  56
HETATM   56  C   UNK N   1      35.821  15.891  11.018  0.00  0.00     0.050 C 
BRANCH  56  57
HETATM   57  C   UNK N   1      35.760  15.112  12.310  0.00  0.00     0.123 C 
BRANCH  57  58
HETATM   58  N   UNK N   1      35.751  13.735  11.940  0.00  0.00    -0.370 N 
HETATM   59  C   UNK N   1      35.241  12.798  12.660  0.00  0.00     0.146 C 
ATOM     60  HN  UNK N   1      36.174  13.477  11.048  1.00  0.00     0.161 HD
BRANCH  59  61
HETATM   61  C   UNK N   1      35.379  11.478  12.134  0.00  0.00     0.019 A 
HETATM   62  C   UNK N   1      36.389  10.669  12.682  0.00  0.00     0.052 A 
HETATM   63  C   UNK N   1      37.089   9.763  11.886  0.00  0.00     0.106 A 
HETATM   64  C   UNK N   1      36.801   9.723  10.531  0.00  0.00     0.073 A 
HETATM   65  C   UNK N   1      35.761  10.491  10.004  0.00  0.00     0.075 A 
HETATM   66  C   UNK N   1      35.080  11.382  10.795  0.00  0.00     0.052 A 
BRANCH  63  67
HETATM   67  N   UNK N   1      38.098   8.918  12.431  0.00  0.00    -0.116 N 
HETATM   68  O   UNK N   1      38.648   9.219  13.447  0.00  0.00    -0.532 OA
HETATM   69  O   UNK N   1      38.433   7.930  11.851  0.00  0.00    -0.532 OA
ENDBRANCH  63  67
BRANCH  65  70
HETATM   70  O   UNK N   1      35.380  10.357   8.737  0.00  0.00    -0.318 OA
BRANCH  70  71
HETATM   71  C   UNK N   1      35.125  11.462   7.962  0.00  0.00     0.298 C 
HETATM   72  C   UNK N   1      34.083  11.132   6.847  0.00  0.00     0.205 C 
HETATM   73  C   UNK N   1      34.018  12.230   5.807  0.00  0.00     0.183 C 
HETATM   74  C   UNK N   1      35.419  12.640   5.370  0.00  0.00     0.180 C 
HETATM   75  C   UNK N   1      36.205  13.017   6.639  0.00  0.00     0.179 C 
HETATM   76  O   UNK N   1      36.365  11.849   7.412  0.00  0.00    -0.348 OA
BRANCH  72  77
HETATM   77  O   UNK N   1      32.788  11.018   7.360  0.00  0.00    -0.388 OA
HETATM   78  H   UNK N   1      32.088  10.362   7.214  0.00  0.00     0.210 HD
ENDBRANCH  72  77
BRANCH  73  79
HETATM   79  O   UNK N   1      33.266  11.787   4.714  0.00  0.00    -0.390 OA
HETATM   80  H   UNK N   1      32.796  10.939   4.736  0.00  0.00     0.210 HD
ENDBRANCH  73  79
BRANCH  74  81
HETATM   81  O   UNK N   1      35.321  13.720   4.493  0.00  0.00    -0.390 OA
HETATM   82  H   UNK N   1      34.497  14.120   4.173  0.00  0.00     0.210 HD
ENDBRANCH  74  81
BRANCH  75  83
HETATM   83  C   UNK N   1      37.588  13.562   6.325  0.00  0.00     0.198 C 
BRANCH  83  84
HETATM   84  O   UNK N   1      37.487  14.806   5.702  0.00  0.00    -0.398 OA
HETATM   85  H   UNK N   1      37.995  15.629   5.784  0.00  0.00     0.209 HD
ENDBRANCH  83  84
ENDBRANCH  75  83
ENDBRANCH  70  71
ENDBRANCH  65  70
ENDBRANCH  59  61
BRANCH  59  86
HETATM   86  O   UNK N   1      34.572  13.053  13.803  0.00  0.00    -0.346 OA
HETATM   87  H   UNK N   1      33.897  13.631  14.101  0.00  0.00     0.219 HD
ENDBRANCH  59  86
ENDBRANCH  57  58
ENDBRANCH  56  57
ENDBRANCH  55  56
ENDBRANCH  52  55
ENDBRANCH  48  49
ENDBRANCH  47  48
ENDBRANCH  46  47
ENDBRANCH  44  46
BRANCH  43  88
HETATM   88  O   UNK N   1      32.628  14.318   3.336  0.00  0.00    -0.327 OA
HETATM   89  H   UNK N   1      33.039  13.583   3.746  0.00  0.00     0.221 HD
ENDBRANCH  43  88
ENDBRANCH  42  43
ENDBRANCH  41  42
ENDBRANCH  40  41
BRANCH  40  90
HETATM   90  N   UNK N   1      30.442  10.777   5.213  0.00  0.00    -0.422 N 
HETATM   91  H   UNK N   1      29.952  10.295   5.967  0.00  0.00     0.150 HD
HETATM   92  H   UNK N   1      31.440  10.614   5.087  0.00  0.00     0.150 HD
ENDBRANCH  40  90
ENDBRANCH  39  40
ENDBRANCH  38  39
ENDBRANCH  34  38
ENDBRANCH  32  33
ENDBRANCH  31  32
ENDBRANCH  30  31
ENDBRANCH  27  30
ENDBRANCH  23  24
ENDBRANCH  22  23
ENDBRANCH  21  22
ENDBRANCH  19  21
BRANCH  18  93
HETATM   93  O   UNK N   1      18.694  16.562   4.548  0.00  0.00    -0.346 OA
HETATM   94  H   UNK N   1      18.455  16.941   5.371  0.00  0.00     0.219 HD
ENDBRANCH  18  93
ENDBRANCH  14  18
BRANCH  16  95
HETATM   95  N   UNK N   1      20.841  20.646   1.147  0.00  0.00    -0.116 N 
HETATM   96  O   UNK N   1      20.831  21.843   1.241  0.00  0.00    -0.532 OA
HETATM   97  O   UNK N   1      20.880  20.148   0.069  0.00  0.00    -0.532 OA
ENDBRANCH  16  95
ENDBRANCH  11  12
ENDBRANCH   5  11
BRANCH   2  98
HETATM   98  O   UNK N   1      28.268  15.871   2.705  0.00  0.00    -0.390 OA
HETATM   99  H   UNK N   1      29.186  15.880   3.020  0.00  0.00     0.210 HD
ENDBRANCH   2  98
BRANCH   1 100
HETATM  100  C   UNK N   1      25.498  14.930   2.272  0.00  0.00     0.198 C 
BRANCH 100 101
HETATM  101  O   UNK N   1      26.054  14.005   3.156  0.00  0.00    -0.398 OA
HETATM  102  H   UNK N   1      25.538  13.356   3.661  0.00  0.00     0.209 HD
ENDBRANCH 100 101
ENDBRANCH   1 100
TORSDOF 44
ENDMDL
