MODEL 1
REMARK VINA RESULT:      -7.5      0.000      0.000
REMARK  16 active torsions:
REMARK  status: ('A' for Active; 'I' for Inactive)
REMARK    1  A    between atoms: O_2  and  C_3 
REMARK    2  A    between atoms: C_5  and  C_13 
REMARK    3  A    between atoms: C_7  and  O_8 
REMARK    4  A    between atoms: C_10  and  O_11 
REMARK    5  A    between atoms: C_13  and  C_16 
REMARK       I    between atoms: C_16  and  N_18 
REMARK    6  A    between atoms: C_23  and  C_24 
REMARK    7  A    between atoms: C_24  and  O_26 
REMARK    8  A    between atoms: C_27  and  O_26 
REMARK    9  A    between atoms: C_27  and  C_28 
REMARK   10  A    between atoms: C_27  and  C_37 
REMARK   11  A    between atoms: C_28  and  C_29 
REMARK   12  A    between atoms: C_29  and  C_30 
REMARK   13  A    between atoms: C_30  and  C_31 
REMARK   14  A    between atoms: C_37  and  C_38 
REMARK   15  A    between atoms: C_38  and  C_39 
REMARK   16  A    between atoms: C_39  and  C_40 
ROOT
HETATM    1  C   UNK N   1      33.869  16.119   8.067  0.00  0.00     0.298 C 
HETATM    2  O   UNK N   1      34.742  16.913   7.760  0.00  0.00    -0.266 OA
HETATM    3  N   UNK N   1      34.195  14.807   8.299  0.00  0.00    -0.333 N 
HETATM    4  C   UNK N   1      33.178  13.803   8.546  0.00  0.00     0.127 C 
HETATM    5  C   UNK N   1      33.619  12.460   7.996  0.00  0.00     0.020 C 
HETATM    6  C   UNK N   1      34.864  12.055   8.759  0.00  0.00     0.004 C 
HETATM    7  C   UNK N   1      35.979  13.054   8.463  0.00  0.00     0.035 C 
HETATM    8  C   UNK N   1      35.572  14.524   8.695  0.00  0.00     0.187 C 
ENDROOT
BRANCH   8   9
HETATM    9  C   UNK N   1      35.707  14.960  10.140  0.00  0.00     0.282 C 
HETATM   10  O   UNK N   1      36.239  16.030  10.397  0.00  0.00    -0.263 OA
BRANCH   9  11
HETATM   11  O   UNK N   1      35.367  14.144  11.169  0.00  0.00    -0.314 OA
BRANCH  11  12
HETATM   12  C   UNK N   1      36.198  13.756  12.199  0.00  0.00     0.132 C 
BRANCH  12  13
HETATM   13  C   UNK N   1      37.481  13.023  11.826  0.00  0.00     0.033 C 
BRANCH  13  14
HETATM   14  C   UNK N   1      37.258  11.519  11.602  0.00  0.00     0.007 C 
BRANCH  14  15
HETATM   15  C   UNK N   1      36.010  10.945  12.286  0.00  0.00     0.038 C 
BRANCH  15  16
HETATM   16  C   UNK N   1      36.325  10.108  13.482  0.00  0.00    -0.058 A 
HETATM   17  C   UNK N   1      35.350   9.273  14.036  0.00  0.00     0.007 A 
HETATM   18  C   UNK N   1      35.643   8.513  15.173  0.00  0.00     0.001 A 
HETATM   19  C   UNK N   1      36.911   8.588  15.758  0.00  0.00     0.000 A 
HETATM   20  C   UNK N   1      37.886   9.424  15.208  0.00  0.00     0.001 A 
HETATM   21  C   UNK N   1      37.591  10.188  14.075  0.00  0.00     0.007 A 
ENDBRANCH  15  16
ENDBRANCH  14  15
ENDBRANCH  13  14
ENDBRANCH  12  13
BRANCH  12  22
HETATM   22  C   UNK N   1      36.136  14.549  13.486  0.00  0.00     0.033 C 
BRANCH  22  23
HETATM   23  C   UNK N   1      36.409  13.616  14.655  0.00  0.00     0.007 C 
BRANCH  23  24
HETATM   24  C   UNK N   1      35.127  13.001  15.214  0.00  0.00     0.040 C 
BRANCH  24  25
HETATM   25  C   UNK N   1      35.205  12.810  16.693  0.00  0.00    -0.043 A 
HETATM   26  C   UNK N   1      35.201  13.915  17.552  0.00  0.00     0.094 A 
HETATM   27  N   UNK N   1      35.283  13.735  18.897  0.00  0.00    -0.375 N 
HETATM   28  C   UNK N   1      35.390  12.493  19.439  0.00  0.00     0.087 A 
ATOM     29  HN  UNK N   1      35.265  14.550  19.512  1.00  0.00     0.164 HD
HETATM   30  C   UNK N   1      35.413  11.367  18.616  0.00  0.00     0.018 A 
HETATM   31  C   UNK N   1      35.315  11.528  17.233  0.00  0.00     0.010 A 
ENDBRANCH  24  25
ENDBRANCH  23  24
ENDBRANCH  22  23
ENDBRANCH  12  22
ENDBRANCH  11  12
ENDBRANCH   9  11
ENDBRANCH   8   9
BRANCH   1  32
HETATM   32  C   UNK N   1      32.494  16.682   8.379  0.00  0.00     0.350 C 
HETATM   33  F   UNK N   1      31.913  16.113   9.497  0.00  0.00    -0.190 F 
HETATM   34  F   UNK N   1      32.712  17.999   8.732  0.00  0.00    -0.190 F 
BRANCH  32  35
HETATM   35  C   UNK N   1      31.478  16.631   7.281  0.00  0.00     0.028 A 
HETATM   36  C   UNK N   1      30.200  17.104   7.552  0.00  0.00     0.053 A 
HETATM   37  C   UNK N   1      29.332  17.466   6.528  0.00  0.00     0.105 A 
HETATM   38  C   UNK N   1      29.740  17.325   5.172  0.00  0.00     0.135 A 
HETATM   39  C   UNK N   1      31.026  16.783   4.892  0.00  0.00     0.105 A 
HETATM   40  C   UNK N   1      31.885  16.473   5.955  0.00  0.00     0.053 A 
BRANCH  37  41
HETATM   41  O   UNK N   1      28.147  18.016   6.898  0.00  0.00    -0.353 OA
HETATM   42  C   UNK N   1      28.015  19.174   7.628  0.00  0.00     0.210 C 
ENDBRANCH  37  41
BRANCH  38  43
HETATM   43  O   UNK N   1      28.893  17.725   4.186  0.00  0.00    -0.351 OA
HETATM   44  C   UNK N   1      27.986  16.921   3.533  0.00  0.00     0.210 C 
ENDBRANCH  38  43
BRANCH  39  45
HETATM   45  O   UNK N   1      31.433  16.604   3.610  0.00  0.00    -0.353 OA
HETATM   46  C   UNK N   1      32.743  16.707   3.200  0.00  0.00     0.210 C 
ENDBRANCH  39  45
ENDBRANCH  32  35
ENDBRANCH   1  32
TORSDOF 16
ENDMDL
MODEL 2
REMARK VINA RESULT:      -7.3      7.073     11.632
REMARK  16 active torsions:
REMARK  status: ('A' for Active; 'I' for Inactive)
REMARK    1  A    between atoms: O_2  and  C_3 
REMARK    2  A    between atoms: C_5  and  C_13 
REMARK    3  A    between atoms: C_7  and  O_8 
REMARK    4  A    between atoms: C_10  and  O_11 
REMARK    5  A    between atoms: C_13  and  C_16 
REMARK       I    between atoms: C_16  and  N_18 
REMARK    6  A    between atoms: C_23  and  C_24 
REMARK    7  A    between atoms: C_24  and  O_26 
REMARK    8  A    between atoms: C_27  and  O_26 
REMARK    9  A    between atoms: C_27  and  C_28 
REMARK   10  A    between atoms: C_27  and  C_37 
REMARK   11  A    between atoms: C_28  and  C_29 
REMARK   12  A    between atoms: C_29  and  C_30 
REMARK   13  A    between atoms: C_30  and  C_31 
REMARK   14  A    between atoms: C_37  and  C_38 
REMARK   15  A    between atoms: C_38  and  C_39 
REMARK   16  A    between atoms: C_39  and  C_40 
ROOT
HETATM    1  C   UNK N   1      23.363  15.302   3.823  0.00  0.00     0.298 C 
HETATM    2  O   UNK N   1      23.279  14.790   2.721  0.00  0.00    -0.266 OA
HETATM    3  N   UNK N   1      24.495  15.115   4.575  0.00  0.00    -0.333 N 
HETATM    4  C   UNK N   1      24.593  15.600   5.938  0.00  0.00     0.127 C 
HETATM    5  C   UNK N   1      25.459  14.672   6.767  0.00  0.00     0.020 C 
HETATM    6  C   UNK N   1      26.850  14.705   6.163  0.00  0.00     0.004 C 
HETATM    7  C   UNK N   1      26.795  14.132   4.750  0.00  0.00     0.035 C 
HETATM    8  C   UNK N   1      25.724  14.791   3.855  0.00  0.00     0.187 C 
ENDROOT
BRANCH   8   9
HETATM    9  C   UNK N   1      26.199  16.075   3.204  0.00  0.00     0.282 C 
HETATM   10  O   UNK N   1      26.328  16.120   1.990  0.00  0.00    -0.263 OA
BRANCH   9  11
HETATM   11  O   UNK N   1      26.603  17.142   3.937  0.00  0.00    -0.314 OA
BRANCH  11  12
HETATM   12  C   UNK N   1      27.838  17.751   3.860  0.00  0.00     0.132 C 
BRANCH  12  13
HETATM   13  C   UNK N   1      27.949  19.178   4.386  0.00  0.00     0.033 C 
BRANCH  13  14
HETATM   14  C   UNK N   1      27.170  19.387   5.694  0.00  0.00     0.007 C 
BRANCH  14  15
HETATM   15  C   UNK N   1      27.988  20.002   6.838  0.00  0.00     0.038 C 
BRANCH  15  16
HETATM   16  C   UNK N   1      28.332  19.022   7.911  0.00  0.00    -0.058 A 
HETATM   17  C   UNK N   1      29.399  19.271   8.781  0.00  0.00     0.007 A 
HETATM   18  C   UNK N   1      29.733  18.336   9.764  0.00  0.00     0.001 A 
HETATM   19  C   UNK N   1      29.001  17.150   9.881  0.00  0.00     0.000 A 
HETATM   20  C   UNK N   1      27.937  16.897   9.011  0.00  0.00     0.001 A 
HETATM   21  C   UNK N   1      27.607  17.829   8.023  0.00  0.00     0.007 A 
ENDBRANCH  15  16
ENDBRANCH  14  15
ENDBRANCH  13  14
ENDBRANCH  12  13
BRANCH  12  22
HETATM   22  C   UNK N   1      29.061  16.861   3.849  0.00  0.00     0.033 C 
BRANCH  22  23
HETATM   23  C   UNK N   1      29.670  16.840   5.241  0.00  0.00     0.007 C 
BRANCH  23  24
HETATM   24  C   UNK N   1      31.114  17.335   5.248  0.00  0.00     0.040 C 
BRANCH  24  25
HETATM   25  C   UNK N   1      31.815  16.979   6.517  0.00  0.00    -0.043 A 
HETATM   26  C   UNK N   1      32.990  17.642   6.889  0.00  0.00     0.094 A 
HETATM   27  N   UNK N   1      33.630  17.306   8.041  0.00  0.00    -0.375 N 
HETATM   28  C   UNK N   1      33.163  16.315   8.845  0.00  0.00     0.087 A 
ATOM     29  HN  UNK N   1      34.478  17.808   8.305  1.00  0.00     0.164 HD
HETATM   30  C   UNK N   1      32.003  15.620   8.502  0.00  0.00     0.018 A 
HETATM   31  C   UNK N   1      31.323  15.959   7.332  0.00  0.00     0.010 A 
ENDBRANCH  24  25
ENDBRANCH  23  24
ENDBRANCH  22  23
ENDBRANCH  12  22
ENDBRANCH  11  12
ENDBRANCH   9  11
ENDBRANCH   8   9
BRANCH   1  32
HETATM   32  C   UNK N   1      22.284  16.296   4.215  0.00  0.00     0.350 C 
HETATM   33  F   UNK N   1      22.782  17.551   4.512  0.00  0.00    -0.190 F 
HETATM   34  F   UNK N   1      21.530  16.482   3.073  0.00  0.00    -0.190 F 
BRANCH  32  35
HETATM   35  C   UNK N   1      21.380  15.903   5.340  0.00  0.00     0.028 A 
HETATM   36  C   UNK N   1      21.019  14.566   5.451  0.00  0.00     0.053 A 
HETATM   37  C   UNK N   1      20.535  14.045   6.647  0.00  0.00     0.105 A 
HETATM   38  C   UNK N   1      20.374  14.898   7.775  0.00  0.00     0.135 A 
HETATM   39  C   UNK N   1      20.685  16.281   7.644  0.00  0.00     0.105 A 
HETATM   40  C   UNK N   1      21.211  16.754   6.434  0.00  0.00     0.053 A 
BRANCH  37  41
HETATM   41  O   UNK N   1      20.313  12.707   6.684  0.00  0.00    -0.353 OA
HETATM   42  C   UNK N   1      20.312  11.882   5.584  0.00  0.00     0.210 C 
ENDBRANCH  37  41
BRANCH  38  43
HETATM   43  O   UNK N   1      19.940  14.362   8.947  0.00  0.00    -0.351 OA
HETATM   44  C   UNK N   1      20.740  13.817   9.925  0.00  0.00     0.210 C 
ENDBRANCH  38  43
BRANCH  39  45
HETATM   45  O   UNK N   1      20.510  17.128   8.690  0.00  0.00    -0.353 OA
HETATM   46  C   UNK N   1      19.306  17.713   9.010  0.00  0.00     0.210 C 
ENDBRANCH  39  45
ENDBRANCH  32  35
ENDBRANCH   1  32
TORSDOF 16
ENDMDL
MODEL 3
REMARK VINA RESULT:      -7.2      7.009     13.938
REMARK  16 active torsions:
REMARK  status: ('A' for Active; 'I' for Inactive)
REMARK    1  A    between atoms: O_2  and  C_3 
REMARK    2  A    between atoms: C_5  and  C_13 
REMARK    3  A    between atoms: C_7  and  O_8 
REMARK    4  A    between atoms: C_10  and  O_11 
REMARK    5  A    between atoms: C_13  and  C_16 
REMARK       I    between atoms: C_16  and  N_18 
REMARK    6  A    between atoms: C_23  and  C_24 
REMARK    7  A    between atoms: C_24  and  O_26 
REMARK    8  A    between atoms: C_27  and  O_26 
REMARK    9  A    between atoms: C_27  and  C_28 
REMARK   10  A    between atoms: C_27  and  C_37 
REMARK   11  A    between atoms: C_28  and  C_29 
REMARK   12  A    between atoms: C_29  and  C_30 
REMARK   13  A    between atoms: C_30  and  C_31 
REMARK   14  A    between atoms: C_37  and  C_38 
REMARK   15  A    between atoms: C_38  and  C_39 
REMARK   16  A    between atoms: C_39  and  C_40 
ROOT
HETATM    1  C   UNK N   1      27.649  15.184   4.651  0.00  0.00     0.298 C 
HETATM    2  O   UNK N   1      27.973  14.287   5.409  0.00  0.00    -0.266 OA
HETATM    3  N   UNK N   1      26.609  14.993   3.776  0.00  0.00    -0.333 N 
HETATM    4  C   UNK N   1      26.266  15.983   2.774  0.00  0.00     0.127 C 
HETATM    5  C   UNK N   1      25.728  15.306   1.528  0.00  0.00     0.020 C 
HETATM    6  C   UNK N   1      24.452  14.591   1.928  0.00  0.00     0.004 C 
HETATM    7  C   UNK N   1      24.788  13.492   2.932  0.00  0.00     0.035 C 
HETATM    8  C   UNK N   1      25.615  13.985   4.137  0.00  0.00     0.187 C 
ENDROOT
BRANCH   8   9
HETATM    9  C   UNK N   1      24.765  14.587   5.238  0.00  0.00     0.282 C 
HETATM   10  O   UNK N   1      24.141  13.849   5.985  0.00  0.00    -0.263 OA
BRANCH   9  11
HETATM   11  O   UNK N   1      24.575  15.925   5.345  0.00  0.00    -0.314 OA
BRANCH  11  12
HETATM   12  C   UNK N   1      23.376  16.586   5.176  0.00  0.00     0.132 C 
BRANCH  12  13
HETATM   13  C   UNK N   1      23.424  18.105   5.052  0.00  0.00     0.033 C 
BRANCH  13  14
HETATM   14  C   UNK N   1      23.998  18.570   3.705  0.00  0.00     0.007 C 
BRANCH  14  15
HETATM   15  C   UNK N   1      24.479  20.028   3.680  0.00  0.00     0.038 C 
BRANCH  15  16
HETATM   16  C   UNK N   1      25.749  20.243   4.435  0.00  0.00    -0.058 A 
HETATM   17  C   UNK N   1      25.717  20.702   5.756  0.00  0.00     0.007 A 
HETATM   18  C   UNK N   1      26.911  20.929   6.447  0.00  0.00     0.001 A 
HETATM   19  C   UNK N   1      28.139  20.698   5.819  0.00  0.00     0.000 A 
HETATM   20  C   UNK N   1      28.174  20.243   4.498  0.00  0.00     0.001 A 
HETATM   21  C   UNK N   1      26.980  20.022   3.805  0.00  0.00     0.007 A 
ENDBRANCH  15  16
ENDBRANCH  14  15
ENDBRANCH  13  14
ENDBRANCH  12  13
BRANCH  12  22
HETATM   22  C   UNK N   1      22.236  15.820   4.541  0.00  0.00     0.033 C 
BRANCH  22  23
HETATM   23  C   UNK N   1      20.931  16.541   4.835  0.00  0.00     0.007 C 
BRANCH  23  24
HETATM   24  C   UNK N   1      20.061  16.692   3.589  0.00  0.00     0.040 C 
BRANCH  24  25
HETATM   25  C   UNK N   1      20.256  18.021   2.936  0.00  0.00    -0.043 A 
HETATM   26  C   UNK N   1      20.289  18.128   1.541  0.00  0.00     0.094 A 
HETATM   27  N   UNK N   1      20.478  19.340   0.953  0.00  0.00    -0.375 N 
HETATM   28  C   UNK N   1      20.657  20.465   1.694  0.00  0.00     0.087 A 
ATOM     29  HN  UNK N   1      20.485  19.404  -0.066  1.00  0.00     0.164 HD
HETATM   30  C   UNK N   1      20.647  20.398   3.087  0.00  0.00     0.018 A 
HETATM   31  C   UNK N   1      20.440  19.167   3.712  0.00  0.00     0.010 A 
ENDBRANCH  24  25
ENDBRANCH  23  24
ENDBRANCH  22  23
ENDBRANCH  12  22
ENDBRANCH  11  12
ENDBRANCH   9  11
ENDBRANCH   8   9
BRANCH   1  32
HETATM   32  C   UNK N   1      28.290  16.544   4.866  0.00  0.00     0.350 C 
HETATM   33  F   UNK N   1      28.680  17.154   3.689  0.00  0.00    -0.190 F 
HETATM   34  F   UNK N   1      27.279  17.347   5.356  0.00  0.00    -0.190 F 
BRANCH  32  35
HETATM   35  C   UNK N   1      29.457  16.600   5.800  0.00  0.00     0.028 A 
HETATM   36  C   UNK N   1      30.733  16.618   5.249  0.00  0.00     0.053 A 
HETATM   37  C   UNK N   1      31.829  17.064   5.980  0.00  0.00     0.105 A 
HETATM   38  C   UNK N   1      31.655  17.483   7.329  0.00  0.00     0.135 A 
HETATM   39  C   UNK N   1      30.359  17.407   7.914  0.00  0.00     0.105 A 
HETATM   40  C   UNK N   1      29.276  16.994   7.127  0.00  0.00     0.053 A 
BRANCH  37  41
HETATM   41  O   UNK N   1      33.012  17.144   5.320  0.00  0.00    -0.353 OA
HETATM   42  C   UNK N   1      33.829  16.072   5.045  0.00  0.00     0.210 C 
ENDBRANCH  37  41
BRANCH  38  43
HETATM   43  O   UNK N   1      32.731  17.956   8.014  0.00  0.00    -0.351 OA
HETATM   44  C   UNK N   1      33.593  17.200   8.776  0.00  0.00     0.210 C 
ENDBRANCH  38  43
BRANCH  39  45
HETATM   45  O   UNK N   1      30.165  17.767   9.208  0.00  0.00    -0.353 OA
HETATM   46  C   UNK N   1      29.020  17.488   9.918  0.00  0.00     0.210 C 
ENDBRANCH  39  45
ENDBRANCH  32  35
ENDBRANCH   1  32
TORSDOF 16
ENDMDL
MODEL 4
REMARK VINA RESULT:      -7.2      6.476     12.520
REMARK  16 active torsions:
REMARK  status: ('A' for Active; 'I' for Inactive)
REMARK    1  A    between atoms: O_2  and  C_3 
REMARK    2  A    between atoms: C_5  and  C_13 
REMARK    3  A    between atoms: C_7  and  O_8 
REMARK    4  A    between atoms: C_10  and  O_11 
REMARK    5  A    between atoms: C_13  and  C_16 
REMARK       I    between atoms: C_16  and  N_18 
REMARK    6  A    between atoms: C_23  and  C_24 
REMARK    7  A    between atoms: C_24  and  O_26 
REMARK    8  A    between atoms: C_27  and  O_26 
REMARK    9  A    between atoms: C_27  and  C_28 
REMARK   10  A    between atoms: C_27  and  C_37 
REMARK   11  A    between atoms: C_28  and  C_29 
REMARK   12  A    between atoms: C_29  and  C_30 
REMARK   13  A    between atoms: C_30  and  C_31 
REMARK   14  A    between atoms: C_37  and  C_38 
REMARK   15  A    between atoms: C_38  and  C_39 
REMARK   16  A    between atoms: C_39  and  C_40 
ROOT
HETATM    1  C   UNK N   1      29.467  17.829   5.256  0.00  0.00     0.298 C 
HETATM    2  O   UNK N   1      29.973  17.455   4.212  0.00  0.00    -0.266 OA
HETATM    3  N   UNK N   1      28.355  18.632   5.223  0.00  0.00    -0.333 N 
HETATM    4  C   UNK N   1      27.791  19.200   6.432  0.00  0.00     0.127 C 
HETATM    5  C   UNK N   1      27.181  20.558   6.141  0.00  0.00     0.020 C 
HETATM    6  C   UNK N   1      26.045  20.332   5.161  0.00  0.00     0.004 C 
HETATM    7  C   UNK N   1      26.614  19.800   3.849  0.00  0.00     0.035 C 
HETATM    8  C   UNK N   1      27.524  18.566   4.024  0.00  0.00     0.187 C 
ENDROOT
BRANCH   8   9
HETATM    9  C   UNK N   1      26.754  17.263   4.098  0.00  0.00     0.282 C 
HETATM   10  O   UNK N   1      26.903  16.428   3.219  0.00  0.00    -0.263 OA
BRANCH   9  11
HETATM   11  O   UNK N   1      25.809  17.043   5.045  0.00  0.00    -0.314 OA
BRANCH  11  12
HETATM   12  C   UNK N   1      24.518  16.618   4.813  0.00  0.00     0.132 C 
BRANCH  12  13
HETATM   13  C   UNK N   1      23.720  17.354   3.743  0.00  0.00     0.033 C 
BRANCH  13  14
HETATM   14  C   UNK N   1      22.963  18.569   4.302  0.00  0.00     0.007 C 
BRANCH  14  15
HETATM   15  C   UNK N   1      21.434  18.470   4.214  0.00  0.00     0.038 C 
BRANCH  15  16
HETATM   16  C   UNK N   1      20.838  17.592   5.266  0.00  0.00    -0.058 A 
HETATM   17  C   UNK N   1      19.944  16.576   4.915  0.00  0.00     0.007 A 
HETATM   18  C   UNK N   1      19.368  15.777   5.907  0.00  0.00     0.001 A 
HETATM   19  C   UNK N   1      19.686  15.993   7.253  0.00  0.00     0.000 A 
HETATM   20  C   UNK N   1      20.577  17.010   7.606  0.00  0.00     0.001 A 
HETATM   21  C   UNK N   1      21.147  17.813   6.614  0.00  0.00     0.007 A 
ENDBRANCH  15  16
ENDBRANCH  14  15
ENDBRANCH  13  14
ENDBRANCH  12  13
BRANCH  12  22
HETATM   22  C   UNK N   1      24.184  15.178   5.138  0.00  0.00     0.033 C 
BRANCH  22  23
HETATM   23  C   UNK N   1      23.800  15.079   6.605  0.00  0.00     0.007 C 
BRANCH  23  24
HETATM   24  C   UNK N   1      22.656  14.094   6.837  0.00  0.00     0.040 C 
BRANCH  24  25
HETATM   25  C   UNK N   1      22.634  13.593   8.243  0.00  0.00    -0.043 A 
HETATM   26  C   UNK N   1      23.824  13.462   8.968  0.00  0.00     0.094 A 
HETATM   27  N   UNK N   1      23.799  12.995  10.245  0.00  0.00    -0.375 N 
HETATM   28  C   UNK N   1      22.633  12.629  10.841  0.00  0.00     0.087 A 
ATOM     29  HN  UNK N   1      24.673  12.918  10.766  1.00  0.00     0.164 HD
HETATM   30  C   UNK N   1      21.427  12.730  10.147  0.00  0.00     0.018 A 
HETATM   31  C   UNK N   1      21.429  13.221   8.840  0.00  0.00     0.010 A 
ENDBRANCH  24  25
ENDBRANCH  23  24
ENDBRANCH  22  23
ENDBRANCH  12  22
ENDBRANCH  11  12
ENDBRANCH   9  11
ENDBRANCH   8   9
BRANCH   1  32
HETATM   32  C   UNK N   1      29.981  17.206   6.542  0.00  0.00     0.350 C 
HETATM   33  F   UNK N   1      30.013  18.093   7.602  0.00  0.00    -0.190 F 
HETATM   34  F   UNK N   1      29.029  16.272   6.898  0.00  0.00    -0.190 F 
BRANCH  32  35
HETATM   35  C   UNK N   1      31.321  16.543   6.483  0.00  0.00     0.028 A 
HETATM   36  C   UNK N   1      32.451  17.339   6.629  0.00  0.00     0.053 A 
HETATM   37  C   UNK N   1      33.679  16.792   6.985  0.00  0.00     0.105 A 
HETATM   38  C   UNK N   1      33.798  15.386   7.175  0.00  0.00     0.135 A 
HETATM   39  C   UNK N   1      32.656  14.563   6.965  0.00  0.00     0.105 A 
HETATM   40  C   UNK N   1      31.428  15.161   6.650  0.00  0.00     0.053 A 
BRANCH  37  41
HETATM   41  O   UNK N   1      34.695  17.664   7.207  0.00  0.00    -0.353 OA
HETATM   42  C   UNK N   1      34.766  18.527   8.276  0.00  0.00     0.210 C 
ENDBRANCH  37  41
BRANCH  38  43
HETATM   43  O   UNK N   1      34.997  14.875   7.563  0.00  0.00    -0.351 OA
HETATM   44  C   UNK N   1      36.008  14.472   6.721  0.00  0.00     0.210 C 
ENDBRANCH  38  43
BRANCH  39  45
HETATM   45  O   UNK N   1      32.744  13.216   7.104  0.00  0.00    -0.353 OA
HETATM   46  C   UNK N   1      32.995  12.352   6.063  0.00  0.00     0.210 C 
ENDBRANCH  39  45
ENDBRANCH  32  35
ENDBRANCH   1  32
TORSDOF 16
ENDMDL
MODEL 5
REMARK VINA RESULT:      -7.2      6.532     12.549
REMARK  16 active torsions:
REMARK  status: ('A' for Active; 'I' for Inactive)
REMARK    1  A    between atoms: O_2  and  C_3 
REMARK    2  A    between atoms: C_5  and  C_13 
REMARK    3  A    between atoms: C_7  and  O_8 
REMARK    4  A    between atoms: C_10  and  O_11 
REMARK    5  A    between atoms: C_13  and  C_16 
REMARK       I    between atoms: C_16  and  N_18 
REMARK    6  A    between atoms: C_23  and  C_24 
REMARK    7  A    between atoms: C_24  and  O_26 
REMARK    8  A    between atoms: C_27  and  O_26 
REMARK    9  A    between atoms: C_27  and  C_28 
REMARK   10  A    between atoms: C_27  and  C_37 
REMARK   11  A    between atoms: C_28  and  C_29 
REMARK   12  A    between atoms: C_29  and  C_30 
REMARK   13  A    between atoms: C_30  and  C_31 
REMARK   14  A    between atoms: C_37  and  C_38 
REMARK   15  A    between atoms: C_38  and  C_39 
REMARK   16  A    between atoms: C_39  and  C_40 
ROOT
HETATM    1  C   UNK N   1      29.223  17.490   4.715  0.00  0.00     0.298 C 
HETATM    2  O   UNK N   1      29.477  17.107   3.586  0.00  0.00    -0.266 OA
HETATM    3  N   UNK N   1      28.135  18.297   4.930  0.00  0.00    -0.333 N 
HETATM    4  C   UNK N   1      27.862  18.876   6.231  0.00  0.00     0.127 C 
HETATM    5  C   UNK N   1      27.205  20.234   6.076  0.00  0.00     0.020 C 
HETATM    6  C   UNK N   1      25.876  20.008   5.383  0.00  0.00     0.004 C 
HETATM    7  C   UNK N   1      26.130  19.465   3.979  0.00  0.00     0.035 C 
HETATM    8  C   UNK N   1      27.052  18.228   3.951  0.00  0.00     0.187 C 
ENDROOT
BRANCH   8   9
HETATM    9  C   UNK N   1      26.316  16.929   4.208  0.00  0.00     0.282 C 
HETATM   10  O   UNK N   1      26.118  16.158   3.280  0.00  0.00    -0.263 OA
BRANCH   9  11
HETATM   11  O   UNK N   1      25.759  16.647   5.412  0.00  0.00    -0.314 OA
BRANCH  11  12
HETATM   12  C   UNK N   1      24.930  15.580   5.687  0.00  0.00     0.132 C 
BRANCH  12  13
HETATM   13  C   UNK N   1      25.584  14.295   6.184  0.00  0.00     0.033 C 
BRANCH  13  14
HETATM   14  C   UNK N   1      24.674  13.497   7.131  0.00  0.00     0.007 C 
BRANCH  14  15
HETATM   15  C   UNK N   1      25.082  13.550   8.610  0.00  0.00     0.038 C 
BRANCH  15  16
HETATM   16  C   UNK N   1      24.000  13.100   9.536  0.00  0.00    -0.058 A 
HETATM   17  C   UNK N   1      24.290  12.224  10.587  0.00  0.00     0.007 A 
HETATM   18  C   UNK N   1      23.268  11.784  11.433  0.00  0.00     0.001 A 
HETATM   19  C   UNK N   1      21.954  12.220  11.230  0.00  0.00     0.000 A 
HETATM   20  C   UNK N   1      21.662  13.093  10.179  0.00  0.00     0.001 A 
HETATM   21  C   UNK N   1      22.683  13.528   9.329  0.00  0.00     0.007 A 
ENDBRANCH  15  16
ENDBRANCH  14  15
ENDBRANCH  13  14
ENDBRANCH  12  13
BRANCH  12  22
HETATM   22  C   UNK N   1      23.496  15.883   6.063  0.00  0.00     0.033 C 
BRANCH  22  23
HETATM   23  C   UNK N   1      22.572  15.270   5.023  0.00  0.00     0.007 C 
BRANCH  23  24
HETATM   24  C   UNK N   1      22.723  15.931   3.655  0.00  0.00     0.040 C 
BRANCH  24  25
HETATM   25  C   UNK N   1      21.700  16.997   3.440  0.00  0.00    -0.043 A 
HETATM   26  C   UNK N   1      20.422  16.670   2.974  0.00  0.00     0.094 A 
HETATM   27  N   UNK N   1      19.498  17.646   2.770  0.00  0.00    -0.375 N 
HETATM   28  C   UNK N   1      19.791  18.955   2.991  0.00  0.00     0.087 A 
ATOM     29  HN  UNK N   1      18.565  17.390   2.443  1.00  0.00     0.164 HD
HETATM   30  C   UNK N   1      21.059  19.324   3.441  0.00  0.00     0.018 A 
HETATM   31  C   UNK N   1      22.018  18.336   3.671  0.00  0.00     0.010 A 
ENDBRANCH  24  25
ENDBRANCH  23  24
ENDBRANCH  22  23
ENDBRANCH  12  22
ENDBRANCH  11  12
ENDBRANCH   9  11
ENDBRANCH   8   9
BRANCH   1  32
HETATM   32  C   UNK N   1      30.014  16.873   5.855  0.00  0.00     0.350 C 
HETATM   33  F   UNK N   1      29.956  17.613   7.021  0.00  0.00    -0.190 F 
HETATM   34  F   UNK N   1      29.359  15.696   6.156  0.00  0.00    -0.190 F 
BRANCH  32  35
HETATM   35  C   UNK N   1      31.457  16.578   5.593  0.00  0.00     0.028 A 
HETATM   36  C   UNK N   1      32.405  17.473   6.075  0.00  0.00     0.053 A 
HETATM   37  C   UNK N   1      33.735  17.099   6.236  0.00  0.00     0.105 A 
HETATM   38  C   UNK N   1      34.149  15.787   5.875  0.00  0.00     0.135 A 
HETATM   39  C   UNK N   1      33.192  14.888   5.323  0.00  0.00     0.105 A 
HETATM   40  C   UNK N   1      31.854  15.292   5.219  0.00  0.00     0.053 A 
BRANCH  37  41
HETATM   41  O   UNK N   1      34.559  18.010   6.813  0.00  0.00    -0.353 OA
HETATM   42  C   UNK N   1      34.565  18.322   8.153  0.00  0.00     0.210 C 
ENDBRANCH  37  41
BRANCH  38  43
HETATM   43  O   UNK N   1      35.444  15.426   6.079  0.00  0.00    -0.351 OA
HETATM   44  C   UNK N   1      35.912  14.678   7.136  0.00  0.00     0.210 C 
ENDBRANCH  38  43
BRANCH  39  45
HETATM   45  O   UNK N   1      33.561  13.641   4.936  0.00  0.00    -0.353 OA
HETATM   46  C   UNK N   1      32.825  12.508   5.197  0.00  0.00     0.210 C 
ENDBRANCH  39  45
ENDBRANCH  32  35
ENDBRANCH   1  32
TORSDOF 16
ENDMDL
MODEL 6
REMARK VINA RESULT:      -7.2      2.868     11.239
REMARK  16 active torsions:
REMARK  status: ('A' for Active; 'I' for Inactive)
REMARK    1  A    between atoms: O_2  and  C_3 
REMARK    2  A    between atoms: C_5  and  C_13 
REMARK    3  A    between atoms: C_7  and  O_8 
REMARK    4  A    between atoms: C_10  and  O_11 
REMARK    5  A    between atoms: C_13  and  C_16 
REMARK       I    between atoms: C_16  and  N_18 
REMARK    6  A    between atoms: C_23  and  C_24 
REMARK    7  A    between atoms: C_24  and  O_26 
REMARK    8  A    between atoms: C_27  and  O_26 
REMARK    9  A    between atoms: C_27  and  C_28 
REMARK   10  A    between atoms: C_27  and  C_37 
REMARK   11  A    between atoms: C_28  and  C_29 
REMARK   12  A    between atoms: C_29  and  C_30 
REMARK   13  A    between atoms: C_30  and  C_31 
REMARK   14  A    between atoms: C_37  and  C_38 
REMARK   15  A    between atoms: C_38  and  C_39 
REMARK   16  A    between atoms: C_39  and  C_40 
ROOT
HETATM    1  C   UNK N   1      35.093  14.911   9.726  0.00  0.00     0.298 C 
HETATM    2  O   UNK N   1      35.508  13.829   9.349  0.00  0.00    -0.266 OA
HETATM    3  N   UNK N   1      34.686  15.841   8.802  0.00  0.00    -0.333 N 
HETATM    4  C   UNK N   1      34.300  17.183   9.194  0.00  0.00     0.127 C 
HETATM    5  C   UNK N   1      34.665  18.175   8.106  0.00  0.00     0.020 C 
HETATM    6  C   UNK N   1      33.860  17.801   6.877  0.00  0.00     0.004 C 
HETATM    7  C   UNK N   1      34.294  16.420   6.395  0.00  0.00     0.035 C 
HETATM    8  C   UNK N   1      34.262  15.340   7.497  0.00  0.00     0.187 C 
ENDROOT
BRANCH   8   9
HETATM    9  C   UNK N   1      32.890  14.727   7.692  0.00  0.00     0.282 C 
HETATM   10  O   UNK N   1      32.626  13.664   7.151  0.00  0.00    -0.263 OA
BRANCH   9  11
HETATM   11  O   UNK N   1      31.900  15.381   8.348  0.00  0.00    -0.314 OA
BRANCH  11  12
HETATM   12  C   UNK N   1      30.906  16.137   7.762  0.00  0.00     0.132 C 
BRANCH  12  13
HETATM   13  C   UNK N   1      30.284  17.248   8.601  0.00  0.00     0.033 C 
BRANCH  13  14
HETATM   14  C   UNK N   1      28.772  17.389   8.367  0.00  0.00     0.007 C 
BRANCH  14  15
HETATM   15  C   UNK N   1      28.267  18.836   8.282  0.00  0.00     0.038 C 
BRANCH  15  16
HETATM   16  C   UNK N   1      27.923  19.260   6.892  0.00  0.00    -0.058 A 
HETATM   17  C   UNK N   1      28.089  18.376   5.821  0.00  0.00     0.007 A 
HETATM   18  C   UNK N   1      27.791  18.789   4.519  0.00  0.00     0.001 A 
HETATM   19  C   UNK N   1      27.327  20.088   4.285  0.00  0.00     0.000 A 
HETATM   20  C   UNK N   1      27.164  20.975   5.353  0.00  0.00     0.001 A 
HETATM   21  C   UNK N   1      27.468  20.564   6.653  0.00  0.00     0.007 A 
ENDBRANCH  15  16
ENDBRANCH  14  15
ENDBRANCH  13  14
ENDBRANCH  12  13
BRANCH  12  22
HETATM   22  C   UNK N   1      30.907  16.249   6.254  0.00  0.00     0.033 C 
BRANCH  22  23
HETATM   23  C   UNK N   1      29.940  15.226   5.681  0.00  0.00     0.007 C 
BRANCH  23  24
HETATM   24  C   UNK N   1      29.989  15.177   4.155  0.00  0.00     0.040 C 
BRANCH  24  25
HETATM   25  C   UNK N   1      31.385  15.016   3.651  0.00  0.00    -0.043 A 
HETATM   26  C   UNK N   1      32.052  16.092   3.054  0.00  0.00     0.094 A 
HETATM   27  N   UNK N   1      33.320  15.936   2.588  0.00  0.00    -0.375 N 
HETATM   28  C   UNK N   1      33.962  14.741   2.669  0.00  0.00     0.087 A 
ATOM     29  HN  UNK N   1      33.799  16.734   2.167  1.00  0.00     0.164 HD
HETATM   30  C   UNK N   1      33.326  13.640   3.243  0.00  0.00     0.018 A 
HETATM   31  C   UNK N   1      32.029  13.781   3.742  0.00  0.00     0.010 A 
ENDBRANCH  24  25
ENDBRANCH  23  24
ENDBRANCH  22  23
ENDBRANCH  12  22
ENDBRANCH  11  12
ENDBRANCH   9  11
ENDBRANCH   8   9
BRANCH   1  32
HETATM   32  C   UNK N   1      34.853  15.086  11.214  0.00  0.00     0.350 C 
HETATM   33  F   UNK N   1      35.267  16.316  11.692  0.00  0.00    -0.190 F 
HETATM   34  F   UNK N   1      33.480  15.100  11.362  0.00  0.00    -0.190 F 
BRANCH  32  35
HETATM   35  C   UNK N   1      35.433  14.045  12.119  0.00  0.00     0.028 A 
HETATM   36  C   UNK N   1      36.243  14.468  13.166  0.00  0.00     0.053 A 
HETATM   37  C   UNK N   1      36.490  13.650  14.264  0.00  0.00     0.105 A 
HETATM   38  C   UNK N   1      35.931  12.342  14.310  0.00  0.00     0.135 A 
HETATM   39  C   UNK N   1      35.151  11.885  13.210  0.00  0.00     0.105 A 
HETATM   40  C   UNK N   1      34.892  12.758  12.145  0.00  0.00     0.053 A 
BRANCH  37  41
HETATM   41  O   UNK N   1      37.204  14.193  15.281  0.00  0.00    -0.353 OA
HETATM   42  C   UNK N   1      37.248  15.535  15.579  0.00  0.00     0.210 C 
ENDBRANCH  37  41
BRANCH  38  43
HETATM   43  O   UNK N   1      36.148  11.573  15.411  0.00  0.00    -0.351 OA
HETATM   44  C   UNK N   1      35.360  11.546  16.540  0.00  0.00     0.210 C 
ENDBRANCH  38  43
BRANCH  39  45
HETATM   45  O   UNK N   1      34.632  10.631  13.208  0.00  0.00    -0.353 OA
HETATM   46  C   UNK N   1      33.807  10.146  12.220  0.00  0.00     0.210 C 
ENDBRANCH  39  45
ENDBRANCH  32  35
ENDBRANCH   1  32
TORSDOF 16
ENDMDL
MODEL 7
REMARK VINA RESULT:      -7.2      3.007     10.816
REMARK  16 active torsions:
REMARK  status: ('A' for Active; 'I' for Inactive)
REMARK    1  A    between atoms: O_2  and  C_3 
REMARK    2  A    between atoms: C_5  and  C_13 
REMARK    3  A    between atoms: C_7  and  O_8 
REMARK    4  A    between atoms: C_10  and  O_11 
REMARK    5  A    between atoms: C_13  and  C_16 
REMARK       I    between atoms: C_16  and  N_18 
REMARK    6  A    between atoms: C_23  and  C_24 
REMARK    7  A    between atoms: C_24  and  O_26 
REMARK    8  A    between atoms: C_27  and  O_26 
REMARK    9  A    between atoms: C_27  and  C_28 
REMARK   10  A    between atoms: C_27  and  C_37 
REMARK   11  A    between atoms: C_28  and  C_29 
REMARK   12  A    between atoms: C_29  and  C_30 
REMARK   13  A    between atoms: C_30  and  C_31 
REMARK   14  A    between atoms: C_37  and  C_38 
REMARK   15  A    between atoms: C_38  and  C_39 
REMARK   16  A    between atoms: C_39  and  C_40 
ROOT
HETATM    1  C   UNK N   1      35.131  16.238  10.032  0.00  0.00     0.298 C 
HETATM    2  O   UNK N   1      35.751  17.281  10.147  0.00  0.00    -0.266 OA
HETATM    3  N   UNK N   1      33.859  16.258   9.515  0.00  0.00    -0.333 N 
HETATM    4  C   UNK N   1      33.038  15.064   9.471  0.00  0.00     0.127 C 
HETATM    5  C   UNK N   1      31.575  15.425   9.642  0.00  0.00     0.020 C 
HETATM    6  C   UNK N   1      31.192  16.295   8.460  0.00  0.00     0.004 C 
HETATM    7  C   UNK N   1      31.989  17.595   8.516  0.00  0.00     0.035 C 
HETATM    8  C   UNK N   1      33.512  17.383   8.650  0.00  0.00     0.187 C 
ENDROOT
BRANCH   8   9
HETATM    9  C   UNK N   1      34.199  17.140   7.322  0.00  0.00     0.282 C 
HETATM   10  O   UNK N   1      34.342  18.069   6.542  0.00  0.00    -0.263 OA
BRANCH   9  11
HETATM   11  O   UNK N   1      34.554  15.895   6.916  0.00  0.00    -0.314 OA
BRANCH  11  12
HETATM   12  C   UNK N   1      33.930  15.161   5.930  0.00  0.00     0.132 C 
BRANCH  12  13
HETATM   13  C   UNK N   1      34.535  15.210   4.531  0.00  0.00     0.033 C 
BRANCH  13  14
HETATM   14  C   UNK N   1      33.515  15.631   3.461  0.00  0.00     0.007 C 
BRANCH  14  15
HETATM   15  C   UNK N   1      32.913  17.028   3.660  0.00  0.00     0.038 C 
BRANCH  15  16
HETATM   16  C   UNK N   1      31.431  17.013   3.840  0.00  0.00    -0.058 A 
HETATM   17  C   UNK N   1      30.598  16.571   2.807  0.00  0.00     0.007 A 
HETATM   18  C   UNK N   1      29.210  16.586   2.971  0.00  0.00     0.001 A 
HETATM   19  C   UNK N   1      28.652  17.043   4.170  0.00  0.00     0.000 A 
HETATM   20  C   UNK N   1      29.481  17.488   5.203  0.00  0.00     0.001 A 
HETATM   21  C   UNK N   1      30.869  17.479   5.035  0.00  0.00     0.007 A 
ENDBRANCH  15  16
ENDBRANCH  14  15
ENDBRANCH  13  14
ENDBRANCH  12  13
BRANCH  12  22
HETATM   22  C   UNK N   1      33.129  13.950   6.356  0.00  0.00     0.033 C 
BRANCH  22  23
HETATM   23  C   UNK N   1      31.756  14.012   5.708  0.00  0.00     0.007 C 
BRANCH  23  24
HETATM   24  C   UNK N   1      31.527  12.862   4.729  0.00  0.00     0.040 C 
BRANCH  24  25
HETATM   25  C   UNK N   1      30.223  12.996   4.014  0.00  0.00    -0.043 A 
HETATM   26  C   UNK N   1      30.162  12.876   2.621  0.00  0.00     0.094 A 
HETATM   27  N   UNK N   1      28.973  13.010   1.975  0.00  0.00    -0.375 N 
HETATM   28  C   UNK N   1      27.826  13.280   2.653  0.00  0.00     0.087 A 
ATOM     29  HN  UNK N   1      28.941  12.906   0.960  1.00  0.00     0.164 HD
HETATM   30  C   UNK N   1      27.848  13.423   4.041  0.00  0.00     0.018 A 
HETATM   31  C   UNK N   1      29.055  13.275   4.726  0.00  0.00     0.010 A 
ENDBRANCH  24  25
ENDBRANCH  23  24
ENDBRANCH  22  23
ENDBRANCH  12  22
ENDBRANCH  11  12
ENDBRANCH   9  11
ENDBRANCH   8   9
BRANCH   1  32
HETATM   32  C   UNK N   1      35.888  14.945  10.276  0.00  0.00     0.350 C 
HETATM   33  F   UNK N   1      35.898  14.104   9.179  0.00  0.00    -0.190 F 
HETATM   34  F   UNK N   1      37.206  15.322  10.438  0.00  0.00    -0.190 F 
BRANCH  32  35
HETATM   35  C   UNK N   1      35.464  14.127  11.455  0.00  0.00     0.028 A 
HETATM   36  C   UNK N   1      35.116  12.799  11.236  0.00  0.00     0.053 A 
HETATM   37  C   UNK N   1      35.102  11.876  12.276  0.00  0.00     0.105 A 
HETATM   38  C   UNK N   1      35.419  12.295  13.598  0.00  0.00     0.135 A 
HETATM   39  C   UNK N   1      35.717  13.668  13.834  0.00  0.00     0.105 A 
HETATM   40  C   UNK N   1      35.762  14.555  12.750  0.00  0.00     0.053 A 
BRANCH  37  41
HETATM   41  O   UNK N   1      34.853  10.584  11.942  0.00  0.00    -0.353 OA
HETATM   42  C   UNK N   1      33.672  10.129  11.403  0.00  0.00     0.210 C 
ENDBRANCH  37  41
BRANCH  38  43
HETATM   43  O   UNK N   1      35.442  11.369  14.594  0.00  0.00    -0.351 OA
HETATM   44  C   UNK N   1      36.558  10.700  15.043  0.00  0.00     0.210 C 
ENDBRANCH  38  43
BRANCH  39  45
HETATM   45  O   UNK N   1      35.990  14.107  15.088  0.00  0.00    -0.353 OA
HETATM   46  C   UNK N   1      37.133  14.795  15.427  0.00  0.00     0.210 C 
ENDBRANCH  39  45
ENDBRANCH  32  35
ENDBRANCH   1  32
TORSDOF 16
ENDMDL
MODEL 8
REMARK VINA RESULT:      -7.1      6.851     12.937
REMARK  16 active torsions:
REMARK  status: ('A' for Active; 'I' for Inactive)
REMARK    1  A    between atoms: O_2  and  C_3 
REMARK    2  A    between atoms: C_5  and  C_13 
REMARK    3  A    between atoms: C_7  and  O_8 
REMARK    4  A    between atoms: C_10  and  O_11 
REMARK    5  A    between atoms: C_13  and  C_16 
REMARK       I    between atoms: C_16  and  N_18 
REMARK    6  A    between atoms: C_23  and  C_24 
REMARK    7  A    between atoms: C_24  and  O_26 
REMARK    8  A    between atoms: C_27  and  O_26 
REMARK    9  A    between atoms: C_27  and  C_28 
REMARK   10  A    between atoms: C_27  and  C_37 
REMARK   11  A    between atoms: C_28  and  C_29 
REMARK   12  A    between atoms: C_29  and  C_30 
REMARK   13  A    between atoms: C_30  and  C_31 
REMARK   14  A    between atoms: C_37  and  C_38 
REMARK   15  A    between atoms: C_38  and  C_39 
REMARK   16  A    between atoms: C_39  and  C_40 
ROOT
HETATM    1  C   UNK N   1      29.348  17.915   5.288  0.00  0.00     0.298 C 
HETATM    2  O   UNK N   1      29.904  17.530   4.274  0.00  0.00    -0.266 OA
HETATM    3  N   UNK N   1      28.248  18.730   5.192  0.00  0.00    -0.333 N 
HETATM    4  C   UNK N   1      27.627  19.311   6.367  0.00  0.00     0.127 C 
HETATM    5  C   UNK N   1      27.049  20.674   6.037  0.00  0.00     0.020 C 
HETATM    6  C   UNK N   1      25.964  20.456   4.999  0.00  0.00     0.004 C 
HETATM    7  C   UNK N   1      26.596  19.910   3.722  0.00  0.00     0.035 C 
HETATM    8  C   UNK N   1      27.481  18.667   3.950  0.00  0.00     0.187 C 
ENDROOT
BRANCH   8   9
HETATM    9  C   UNK N   1      26.694  17.373   3.990  0.00  0.00     0.282 C 
HETATM   10  O   UNK N   1      26.942  16.495   3.177  0.00  0.00    -0.263 OA
BRANCH   9  11
HETATM   11  O   UNK N   1      25.636  17.204   4.821  0.00  0.00    -0.314 OA
BRANCH  11  12
HETATM   12  C   UNK N   1      24.492  16.489   4.535  0.00  0.00     0.132 C 
BRANCH  12  13
HETATM   13  C   UNK N   1      24.248  15.211   5.331  0.00  0.00     0.033 C 
BRANCH  13  14
HETATM   14  C   UNK N   1      24.960  15.217   6.692  0.00  0.00     0.007 C 
BRANCH  14  15
HETATM   15  C   UNK N   1      25.468  13.845   7.158  0.00  0.00     0.038 C 
BRANCH  15  16
HETATM   16  C   UNK N   1      24.608  13.224   8.209  0.00  0.00    -0.058 A 
HETATM   17  C   UNK N   1      25.070  13.110   9.524  0.00  0.00     0.007 A 
HETATM   18  C   UNK N   1      24.271  12.502  10.497  0.00  0.00     0.001 A 
HETATM   19  C   UNK N   1      23.009  12.005  10.157  0.00  0.00     0.000 A 
HETATM   20  C   UNK N   1      22.546  12.115   8.843  0.00  0.00     0.001 A 
HETATM   21  C   UNK N   1      23.347  12.717   7.869  0.00  0.00     0.007 A 
ENDBRANCH  15  16
ENDBRANCH  14  15
ENDBRANCH  13  14
ENDBRANCH  12  13
BRANCH  12  22
HETATM   22  C   UNK N   1      23.317  17.246   3.957  0.00  0.00     0.033 C 
BRANCH  22  23
HETATM   23  C   UNK N   1      22.195  17.276   4.982  0.00  0.00     0.007 C 
BRANCH  23  24
HETATM   24  C   UNK N   1      20.818  17.366   4.328  0.00  0.00     0.040 C 
BRANCH  24  25
HETATM   25  C   UNK N   1      20.763  18.448   3.302  0.00  0.00    -0.043 A 
HETATM   26  C   UNK N   1      20.417  18.154   1.978  0.00  0.00     0.094 A 
HETATM   27  N   UNK N   1      20.380  19.143   1.045  0.00  0.00    -0.375 N 
HETATM   28  C   UNK N   1      20.693  20.427   1.363  0.00  0.00     0.087 A 
ATOM     29  HN  UNK N   1      20.112  18.915   0.087  1.00  0.00     0.164 HD
HETATM   30  C   UNK N   1      21.058  20.759   2.668  0.00  0.00     0.018 A 
HETATM   31  C   UNK N   1      21.089  19.762   3.644  0.00  0.00     0.010 A 
ENDBRANCH  24  25
ENDBRANCH  23  24
ENDBRANCH  22  23
ENDBRANCH  12  22
ENDBRANCH  11  12
ENDBRANCH   9  11
ENDBRANCH   8   9
BRANCH   1  32
HETATM   32  C   UNK N   1      29.786  17.294   6.602  0.00  0.00     0.350 C 
HETATM   33  F   UNK N   1      29.648  18.148   7.681  0.00  0.00    -0.190 F 
HETATM   34  F   UNK N   1      28.882  16.279   6.843  0.00  0.00    -0.190 F 
BRANCH  32  35
HETATM   35  C   UNK N   1      31.174  16.737   6.656  0.00  0.00     0.028 A 
HETATM   36  C   UNK N   1      31.413  15.520   6.028  0.00  0.00     0.053 A 
HETATM   37  C   UNK N   1      32.702  15.128   5.681  0.00  0.00     0.105 A 
HETATM   38  C   UNK N   1      33.806  15.968   5.999  0.00  0.00     0.135 A 
HETATM   39  C   UNK N   1      33.568  17.186   6.697  0.00  0.00     0.105 A 
HETATM   40  C   UNK N   1      32.249  17.563   6.988  0.00  0.00     0.053 A 
BRANCH  37  41
HETATM   41  O   UNK N   1      32.820  13.974   4.977  0.00  0.00    -0.353 OA
HETATM   42  C   UNK N   1      32.681  12.714   5.511  0.00  0.00     0.210 C 
ENDBRANCH  37  41
BRANCH  38  43
HETATM   43  O   UNK N   1      35.053  15.587   5.614  0.00  0.00    -0.351 OA
HETATM   44  C   UNK N   1      35.904  14.778   6.334  0.00  0.00     0.210 C 
ENDBRANCH  38  43
BRANCH  39  45
HETATM   45  O   UNK N   1      34.601  17.994   7.045  0.00  0.00    -0.353 OA
HETATM   46  C   UNK N   1      34.761  18.537   8.299  0.00  0.00     0.210 C 
ENDBRANCH  39  45
ENDBRANCH  32  35
ENDBRANCH   1  32
TORSDOF 16
ENDMDL
MODEL 9
REMARK VINA RESULT:      -7.1      7.877     12.360
REMARK  16 active torsions:
REMARK  status: ('A' for Active; 'I' for Inactive)
REMARK    1  A    between atoms: O_2  and  C_3 
REMARK    2  A    between atoms: C_5  and  C_13 
REMARK    3  A    between atoms: C_7  and  O_8 
REMARK    4  A    between atoms: C_10  and  O_11 
REMARK    5  A    between atoms: C_13  and  C_16 
REMARK       I    between atoms: C_16  and  N_18 
REMARK    6  A    between atoms: C_23  and  C_24 
REMARK    7  A    between atoms: C_24  and  O_26 
REMARK    8  A    between atoms: C_27  and  O_26 
REMARK    9  A    between atoms: C_27  and  C_28 
REMARK   10  A    between atoms: C_27  and  C_37 
REMARK   11  A    between atoms: C_28  and  C_29 
REMARK   12  A    between atoms: C_29  and  C_30 
REMARK   13  A    between atoms: C_30  and  C_31 
REMARK   14  A    between atoms: C_37  and  C_38 
REMARK   15  A    between atoms: C_38  and  C_39 
REMARK   16  A    between atoms: C_39  and  C_40 
ROOT
HETATM    1  C   UNK N   1      26.390  14.657   5.510  0.00  0.00     0.298 C 
HETATM    2  O   UNK N   1      26.250  13.634   6.156  0.00  0.00    -0.266 OA
HETATM    3  N   UNK N   1      26.034  14.678   4.184  0.00  0.00    -0.333 N 
HETATM    4  C   UNK N   1      26.294  15.831   3.345  0.00  0.00     0.127 C 
HETATM    5  C   UNK N   1      26.575  15.392   1.920  0.00  0.00     0.020 C 
HETATM    6  C   UNK N   1      25.316  14.719   1.407  0.00  0.00     0.004 C 
HETATM    7  C   UNK N   1      25.053  13.459   2.226  0.00  0.00     0.035 C 
HETATM    8  C   UNK N   1      25.038  13.702   3.750  0.00  0.00     0.187 C 
ENDROOT
BRANCH   8   9
HETATM    9  C   UNK N   1      23.698  14.189   4.263  0.00  0.00     0.282 C 
HETATM   10  O   UNK N   1      22.844  13.374   4.578  0.00  0.00    -0.263 OA
BRANCH   9  11
HETATM   11  O   UNK N   1      23.369  15.505   4.268  0.00  0.00    -0.314 OA
BRANCH  11  12
HETATM   12  C   UNK N   1      22.889  16.212   5.350  0.00  0.00     0.132 C 
BRANCH  12  13
HETATM   13  C   UNK N   1      23.013  15.560   6.723  0.00  0.00     0.033 C 
BRANCH  13  14
HETATM   14  C   UNK N   1      21.660  15.424   7.438  0.00  0.00     0.007 C 
BRANCH  14  15
HETATM   15  C   UNK N   1      21.084  14.002   7.458  0.00  0.00     0.038 C 
BRANCH  15  16
HETATM   16  C   UNK N   1      21.683  13.138   8.519  0.00  0.00    -0.058 A 
HETATM   17  C   UNK N   1      21.258  13.250   9.846  0.00  0.00     0.007 A 
HETATM   18  C   UNK N   1      21.843  12.458  10.838  0.00  0.00     0.001 A 
HETATM   19  C   UNK N   1      22.856  11.552  10.505  0.00  0.00     0.000 A 
HETATM   20  C   UNK N   1      23.285  11.440   9.180  0.00  0.00     0.001 A 
HETATM   21  C   UNK N   1      22.704  12.237   8.189  0.00  0.00     0.007 A 
ENDBRANCH  15  16
ENDBRANCH  14  15
ENDBRANCH  13  14
ENDBRANCH  12  13
BRANCH  12  22
HETATM   22  C   UNK N   1      22.843  17.719   5.239  0.00  0.00     0.033 C 
BRANCH  22  23
HETATM   23  C   UNK N   1      23.540  18.142   3.956  0.00  0.00     0.007 C 
BRANCH  23  24
HETATM   24  C   UNK N   1      23.949  19.614   3.979  0.00  0.00     0.040 C 
BRANCH  24  25
HETATM   25  C   UNK N   1      25.397  19.780   4.300  0.00  0.00    -0.043 A 
HETATM   26  C   UNK N   1      26.378  19.342   3.403  0.00  0.00     0.094 A 
HETATM   27  N   UNK N   1      27.695  19.486   3.705  0.00  0.00    -0.375 N 
HETATM   28  C   UNK N   1      28.094  20.036   4.883  0.00  0.00     0.087 A 
ATOM     29  HN  UNK N   1      28.399  19.174   3.035  1.00  0.00     0.164 HD
HETATM   30  C   UNK N   1      27.148  20.471   5.811  0.00  0.00     0.018 A 
HETATM   31  C   UNK N   1      25.789  20.346   5.514  0.00  0.00     0.010 A 
ENDBRANCH  24  25
ENDBRANCH  23  24
ENDBRANCH  22  23
ENDBRANCH  12  22
ENDBRANCH  11  12
ENDBRANCH   9  11
ENDBRANCH   8   9
BRANCH   1  32
HETATM   32  C   UNK N   1      26.759  15.918   6.271  0.00  0.00     0.350 C 
HETATM   33  F   UNK N   1      26.047  17.029   5.861  0.00  0.00    -0.190 F 
HETATM   34  F   UNK N   1      26.341  15.695   7.567  0.00  0.00    -0.190 F 
BRANCH  32  35
HETATM   35  C   UNK N   1      28.205  16.301   6.282  0.00  0.00     0.028 A 
HETATM   36  C   UNK N   1      28.619  17.263   7.196  0.00  0.00     0.053 A 
HETATM   37  C   UNK N   1      29.956  17.390   7.555  0.00  0.00     0.105 A 
HETATM   38  C   UNK N   1      30.932  16.545   6.957  0.00  0.00     0.135 A 
HETATM   39  C   UNK N   1      30.518  15.601   5.974  0.00  0.00     0.105 A 
HETATM   40  C   UNK N   1      29.155  15.476   5.676  0.00  0.00     0.053 A 
BRANCH  37  41
HETATM   41  O   UNK N   1      30.243  18.286   8.533  0.00  0.00    -0.353 OA
HETATM   42  C   UNK N   1      29.518  18.439   9.692  0.00  0.00     0.210 C 
ENDBRANCH  37  41
BRANCH  38  43
HETATM   43  O   UNK N   1      32.229  16.656   7.351  0.00  0.00    -0.351 OA
HETATM   44  C   UNK N   1      33.169  17.493   6.794  0.00  0.00     0.210 C 
ENDBRANCH  38  43
BRANCH  39  45
HETATM   45  O   UNK N   1      31.428  14.803   5.360  0.00  0.00    -0.353 OA
HETATM   46  C   UNK N   1      31.966  15.067   4.121  0.00  0.00     0.210 C 
ENDBRANCH  39  45
ENDBRANCH  32  35
ENDBRANCH   1  32
TORSDOF 16
ENDMDL
