MODEL 1
REMARK VINA RESULT:      -4.7      0.000      0.000
REMARK  5 active torsions:
REMARK  status: ('A' for Active; 'I' for Inactive)
REMARK    1  A    between atoms: C_5  and  C_2 
REMARK    2  A    between atoms: O_8  and  C_2 
REMARK    3  A    between atoms: C_3  and  N_7 
REMARK    4  A    between atoms: C_4  and  O_9 
REMARK    5  A    between atoms: C_6  and  O_10 
ROOT
HETATM    1  C   UNK N   1      44.108  20.512   3.108  0.00  0.00     0.064 C 
HETATM    2  C   UNK N   1      44.201  21.791   3.935  0.00  0.00     0.132 C 
HETATM    3  C   UNK N   1      42.661  20.256   2.699  0.00  0.00     0.151 C 
HETATM    4  C   UNK N   1      42.121  21.510   1.989  0.00  0.00     0.177 C 
HETATM    5  C   UNK N   1      43.540  22.944   3.154  0.00  0.00     0.279 C 
HETATM    6  O   UNK N   1      42.188  22.639   2.851  0.00  0.00    -0.349 OA
ENDROOT
BRANCH   2   7
HETATM    7  N   UNK N   1      45.597  22.092   4.201  0.00  0.00    -0.422 N 
HETATM    8  H   UNK N   1      46.184  22.730   3.665  0.00  0.00     0.150 HD
HETATM    9  H   UNK N   1      46.029  21.622   4.996  0.00  0.00     0.150 HD
ENDBRANCH   2   7
BRANCH   5  10
HETATM   10  O   UNK N   1      43.575  24.102   3.937  0.00  0.00    -0.369 OA
HETATM   11  H   UNK N   1      42.892  24.464   4.523  0.00  0.00     0.212 HD
ENDBRANCH   5  10
BRANCH   3  12
HETATM   12  O   UNK N   1      41.895  19.965   3.832  0.00  0.00    -0.393 OA
HETATM   13  H   UNK N   1      41.168  19.679   4.407  0.00  0.00     0.210 HD
ENDBRANCH   3  12
BRANCH   4  14
HETATM   14  C   UNK N   1      40.677  21.271   1.564  0.00  0.00     0.198 C 
BRANCH  14  15
HETATM   15  O   UNK N   1      39.812  21.447   2.646  0.00  0.00    -0.398 OA
HETATM   16  H   UNK N   1      40.145  21.693   3.523  0.00  0.00     0.209 HD
ENDBRANCH  14  15
ENDBRANCH   4  14
TORSDOF 5
ENDMDL
MODEL 2
REMARK VINA RESULT:      -4.5     10.495     11.495
REMARK  5 active torsions:
REMARK  status: ('A' for Active; 'I' for Inactive)
REMARK    1  A    between atoms: C_5  and  C_2 
REMARK    2  A    between atoms: O_8  and  C_2 
REMARK    3  A    between atoms: C_3  and  N_7 
REMARK    4  A    between atoms: C_4  and  O_9 
REMARK    5  A    between atoms: C_6  and  O_10 
ROOT
HETATM    1  C   UNK N   1      33.766  15.769   7.987  0.00  0.00     0.064 C 
HETATM    2  C   UNK N   1      34.327  17.100   7.495  0.00  0.00     0.132 C 
HETATM    3  C   UNK N   1      34.641  15.214   9.107  0.00  0.00     0.151 C 
HETATM    4  C   UNK N   1      34.780  16.287  10.201  0.00  0.00     0.177 C 
HETATM    5  C   UNK N   1      34.509  18.046   8.698  0.00  0.00     0.279 C 
HETATM    6  O   UNK N   1      35.367  17.468   9.669  0.00  0.00    -0.349 OA
ENDROOT
BRANCH   2   7
HETATM    7  N   UNK N   1      33.413  17.679   6.527  0.00  0.00    -0.422 N 
HETATM    8  H   UNK N   1      33.138  18.661   6.475  0.00  0.00     0.150 HD
HETATM    9  H   UNK N   1      33.008  17.049   5.836  0.00  0.00     0.150 HD
ENDBRANCH   2   7
BRANCH   5  10
HETATM   10  O   UNK N   1      35.076  19.243   8.253  0.00  0.00    -0.369 OA
HETATM   11  H   UNK N   1      34.861  19.766   7.465  0.00  0.00     0.212 HD
ENDBRANCH   5  10
BRANCH   3  12
HETATM   12  O   UNK N   1      35.896  14.866   8.596  0.00  0.00    -0.393 OA
HETATM   13  H   UNK N   1      36.810  14.921   8.277  0.00  0.00     0.210 HD
ENDBRANCH   3  12
BRANCH   4  14
HETATM   14  C   UNK N   1      35.646  15.747  11.334  0.00  0.00     0.198 C 
BRANCH  14  15
HETATM   15  O   UNK N   1      36.998  15.969  11.067  0.00  0.00    -0.398 OA
HETATM   16  H   UNK N   1      37.386  15.745  10.208  0.00  0.00     0.209 HD
ENDBRANCH  14  15
ENDBRANCH   4  14
TORSDOF 5
ENDMDL
MODEL 3
REMARK VINA RESULT:      -4.5     22.005     22.538
REMARK  5 active torsions:
REMARK  status: ('A' for Active; 'I' for Inactive)
REMARK    1  A    between atoms: C_5  and  C_2 
REMARK    2  A    between atoms: O_8  and  C_2 
REMARK    3  A    between atoms: C_3  and  N_7 
REMARK    4  A    between atoms: C_4  and  O_9 
REMARK    5  A    between atoms: C_6  and  O_10 
ROOT
HETATM    1  C   UNK N   1      20.536  17.103   2.714  0.00  0.00     0.064 C 
HETATM    2  C   UNK N   1      20.427  17.450   4.195  0.00  0.00     0.132 C 
HETATM    3  C   UNK N   1      20.159  18.312   1.863  0.00  0.00     0.151 C 
HETATM    4  C   UNK N   1      21.023  19.509   2.299  0.00  0.00     0.177 C 
HETATM    5  C   UNK N   1      21.256  18.718   4.478  0.00  0.00     0.279 C 
HETATM    6  O   UNK N   1      20.812  19.800   3.675  0.00  0.00    -0.349 OA
ENDROOT
BRANCH   2   7
HETATM    7  N   UNK N   1      20.916  16.336   4.988  0.00  0.00    -0.422 N 
HETATM    8  H   UNK N   1      21.787  15.827   4.833  0.00  0.00     0.150 HD
HETATM    9  H   UNK N   1      20.338  16.034   5.771  0.00  0.00     0.150 HD
ENDBRANCH   2   7
BRANCH   5  10
HETATM   10  O   UNK N   1      21.109  19.068   5.823  0.00  0.00    -0.369 OA
HETATM   11  H   UNK N   1      20.458  19.659   6.233  0.00  0.00     0.212 HD
ENDBRANCH   5  10
BRANCH   3  12
HETATM   12  O   UNK N   1      18.801  18.600   2.028  0.00  0.00    -0.393 OA
HETATM   13  H   UNK N   1      17.835  18.584   1.935  0.00  0.00     0.210 HD
ENDBRANCH   3  12
BRANCH   4  14
HETATM   14  C   UNK N   1      20.667  20.726   1.454  0.00  0.00     0.198 C 
BRANCH  14  15
HETATM   15  O   UNK N   1      20.559  20.374   0.107  0.00  0.00    -0.398 OA
HETATM   16  H   UNK N   1      20.357  19.465  -0.162  0.00  0.00     0.209 HD
ENDBRANCH  14  15
ENDBRANCH   4  14
TORSDOF 5
ENDMDL
MODEL 4
REMARK VINA RESULT:      -4.5     11.383     12.323
REMARK  5 active torsions:
REMARK  status: ('A' for Active; 'I' for Inactive)
REMARK    1  A    between atoms: C_5  and  C_2 
REMARK    2  A    between atoms: O_8  and  C_2 
REMARK    3  A    between atoms: C_3  and  N_7 
REMARK    4  A    between atoms: C_4  and  O_9 
REMARK    5  A    between atoms: C_6  and  O_10 
ROOT
HETATM    1  C   UNK N   1      33.451  14.865   9.217  0.00  0.00     0.064 C 
HETATM    2  C   UNK N   1      34.000  14.983  10.635  0.00  0.00     0.132 C 
HETATM    3  C   UNK N   1      33.233  16.253   8.622  0.00  0.00     0.151 C 
HETATM    4  C   UNK N   1      34.547  17.046   8.728  0.00  0.00     0.177 C 
HETATM    5  C   UNK N   1      35.254  15.878  10.616  0.00  0.00     0.279 C 
HETATM    6  O   UNK N   1      34.951  17.159  10.087  0.00  0.00    -0.349 OA
ENDROOT
BRANCH   2   7
HETATM    7  N   UNK N   1      34.328  13.659  11.136  0.00  0.00    -0.422 N 
HETATM    8  H   UNK N   1      34.406  12.810  10.576  0.00  0.00     0.150 HD
HETATM    9  H   UNK N   1      34.496  13.571  12.137  0.00  0.00     0.150 HD
ENDBRANCH   2   7
BRANCH   5  10
HETATM   10  O   UNK N   1      35.723  16.032  11.924  0.00  0.00    -0.369 OA
HETATM   11  H   UNK N   1      36.563  15.737  12.311  0.00  0.00     0.212 HD
ENDBRANCH   5  10
BRANCH   3  12
HETATM   12  O   UNK N   1      32.207  16.906   9.313  0.00  0.00    -0.393 OA
HETATM   13  H   UNK N   1      31.376  17.083   9.781  0.00  0.00     0.210 HD
ENDBRANCH   3  12
BRANCH   4  14
HETATM   14  C   UNK N   1      34.351  18.435   8.131  0.00  0.00     0.198 C 
BRANCH  14  15
HETATM   15  O   UNK N   1      35.363  19.298   8.556  0.00  0.00    -0.398 OA
HETATM   16  H   UNK N   1      35.201  20.247   8.670  0.00  0.00     0.209 HD
ENDBRANCH  14  15
ENDBRANCH   4  14
TORSDOF 5
ENDMDL
MODEL 5
REMARK VINA RESULT:      -4.4     21.436     22.039
REMARK  5 active torsions:
REMARK  status: ('A' for Active; 'I' for Inactive)
REMARK    1  A    between atoms: C_5  and  C_2 
REMARK    2  A    between atoms: O_8  and  C_2 
REMARK    3  A    between atoms: C_3  and  N_7 
REMARK    4  A    between atoms: C_4  and  O_9 
REMARK    5  A    between atoms: C_6  and  O_10 
ROOT
HETATM    1  C   UNK N   1      19.908  18.750   2.233  0.00  0.00     0.064 C 
HETATM    2  C   UNK N   1      20.878  19.845   1.800  0.00  0.00     0.132 C 
HETATM    3  C   UNK N   1      20.493  17.963   3.402  0.00  0.00     0.151 C 
HETATM    4  C   UNK N   1      20.872  18.951   4.519  0.00  0.00     0.177 C 
HETATM    5  C   UNK N   1      21.252  20.700   3.026  0.00  0.00     0.279 C 
HETATM    6  O   UNK N   1      21.824  19.896   4.046  0.00  0.00    -0.349 OA
ENDROOT
BRANCH   2   7
HETATM    7  N   UNK N   1      20.251  20.667   0.779  0.00  0.00    -0.422 N 
HETATM    8  H   UNK N   1      20.722  21.362   0.199  0.00  0.00     0.150 HD
HETATM    9  H   UNK N   1      19.252  20.537   0.628  0.00  0.00     0.150 HD
ENDBRANCH   2   7
BRANCH   5  10
HETATM   10  O   UNK N   1      22.184  21.667   2.640  0.00  0.00    -0.369 OA
HETATM   11  H   UNK N   1      22.944  21.579   2.043  0.00  0.00     0.212 HD
ENDBRANCH   5  10
BRANCH   3  12
HETATM   12  O   UNK N   1      21.617  17.249   2.974  0.00  0.00    -0.393 OA
HETATM   13  H   UNK N   1      22.338  16.905   2.425  0.00  0.00     0.210 HD
ENDBRANCH   3  12
BRANCH   4  14
HETATM   14  C   UNK N   1      21.452  18.183   5.701  0.00  0.00     0.198 C 
BRANCH  14  15
HETATM   15  O   UNK N   1      21.052  18.764   6.906  0.00  0.00    -0.398 OA
HETATM   16  H   UNK N   1      21.228  19.697   7.100  0.00  0.00     0.209 HD
ENDBRANCH  14  15
ENDBRANCH   4  14
TORSDOF 5
ENDMDL
MODEL 6
REMARK VINA RESULT:      -4.3     10.275     11.214
REMARK  5 active torsions:
REMARK  status: ('A' for Active; 'I' for Inactive)
REMARK    1  A    between atoms: C_5  and  C_2 
REMARK    2  A    between atoms: O_8  and  C_2 
REMARK    3  A    between atoms: C_3  and  N_7 
REMARK    4  A    between atoms: C_4  and  O_9 
REMARK    5  A    between atoms: C_6  and  O_10 
ROOT
HETATM    1  C   UNK N   1      33.247  16.028   8.369  0.00  0.00     0.064 C 
HETATM    2  C   UNK N   1      33.812  17.304   8.985  0.00  0.00     0.132 C 
HETATM    3  C   UNK N   1      32.640  16.331   7.002  0.00  0.00     0.151 C 
HETATM    4  C   UNK N   1      33.701  17.036   6.138  0.00  0.00     0.177 C 
HETATM    5  C   UNK N   1      34.781  17.961   7.984  0.00  0.00     0.279 C 
HETATM    6  O   UNK N   1      34.125  18.244   6.758  0.00  0.00    -0.349 OA
ENDROOT
BRANCH   2   7
HETATM    7  N   UNK N   1      34.502  16.977  10.221  0.00  0.00    -0.422 N 
HETATM    8  H   UNK N   1      35.513  16.908  10.341  0.00  0.00     0.150 HD
HETATM    9  H   UNK N   1      33.925  16.800  11.042  0.00  0.00     0.150 HD
ENDBRANCH   2   7
BRANCH   5  10
HETATM   10  O   UNK N   1      35.254  19.159   8.527  0.00  0.00    -0.369 OA
HETATM   11  H   UNK N   1      35.936  19.758   8.184  0.00  0.00     0.212 HD
ENDBRANCH   5  10
BRANCH   3  12
HETATM   12  O   UNK N   1      31.512  17.143   7.156  0.00  0.00    -0.393 OA
HETATM   13  H   UNK N   1      30.938  17.896   7.366  0.00  0.00     0.210 HD
ENDBRANCH   3  12
BRANCH   4  14
HETATM   14  C   UNK N   1      33.116  17.340   4.764  0.00  0.00     0.198 C 
BRANCH  14  15
HETATM   15  O   UNK N   1      32.167  16.379   4.411  0.00  0.00    -0.398 OA
HETATM   16  H   UNK N   1      31.518  16.544   3.710  0.00  0.00     0.209 HD
ENDBRANCH  14  15
ENDBRANCH   4  14
TORSDOF 5
ENDMDL
MODEL 7
REMARK VINA RESULT:      -4.2      2.415      4.125
REMARK  5 active torsions:
REMARK  status: ('A' for Active; 'I' for Inactive)
REMARK    1  A    between atoms: C_5  and  C_2 
REMARK    2  A    between atoms: O_8  and  C_2 
REMARK    3  A    between atoms: C_3  and  N_7 
REMARK    4  A    between atoms: C_4  and  O_9 
REMARK    5  A    between atoms: C_6  and  O_10 
ROOT
HETATM    1  C   UNK N   1      41.423  21.929   1.398  0.00  0.00     0.064 C 
HETATM    2  C   UNK N   1      40.520  21.317   2.465  0.00  0.00     0.132 C 
HETATM    3  C   UNK N   1      42.736  22.391   2.023  0.00  0.00     0.151 C 
HETATM    4  C   UNK N   1      43.363  21.208   2.781  0.00  0.00     0.177 C 
HETATM    5  C   UNK N   1      41.299  20.217   3.212  0.00  0.00     0.279 C 
HETATM    6  O   UNK N   1      42.481  20.742   3.794  0.00  0.00    -0.349 OA
ENDROOT
BRANCH   2   7
HETATM    7  N   UNK N   1      39.336  20.763   1.834  0.00  0.00    -0.422 N 
HETATM    8  H   UNK N   1      39.124  20.784   0.836  0.00  0.00     0.150 HD
HETATM    9  H   UNK N   1      38.654  20.311   2.442  0.00  0.00     0.150 HD
ENDBRANCH   2   7
BRANCH   5  10
HETATM   10  O   UNK N   1      40.490  19.697   4.227  0.00  0.00    -0.369 OA
HETATM   11  H   UNK N   1      39.664  19.194   4.152  0.00  0.00     0.212 HD
ENDBRANCH   5  10
BRANCH   3  12
HETATM   12  O   UNK N   1      42.493  23.459   2.893  0.00  0.00    -0.393 OA
HETATM   13  H   UNK N   1      42.489  24.027   3.678  0.00  0.00     0.210 HD
ENDBRANCH   3  12
BRANCH   4  14
HETATM   14  C   UNK N   1      44.681  21.647   3.407  0.00  0.00     0.198 C 
BRANCH  14  15
HETATM   15  O   UNK N   1      44.455  22.289   4.626  0.00  0.00    -0.398 OA
HETATM   16  H   UNK N   1      44.248  23.235   4.668  0.00  0.00     0.209 HD
ENDBRANCH  14  15
ENDBRANCH   4  14
TORSDOF 5
ENDMDL
MODEL 8
REMARK VINA RESULT:      -4.1      1.884      2.451
REMARK  5 active torsions:
REMARK  status: ('A' for Active; 'I' for Inactive)
REMARK    1  A    between atoms: C_5  and  C_2 
REMARK    2  A    between atoms: O_8  and  C_2 
REMARK    3  A    between atoms: C_3  and  N_7 
REMARK    4  A    between atoms: C_4  and  O_9 
REMARK    5  A    between atoms: C_6  and  O_10 
ROOT
HETATM    1  C   UNK N   1      42.858  23.263   2.168  0.00  0.00     0.064 C 
HETATM    2  C   UNK N   1      44.317  23.133   2.595  0.00  0.00     0.132 C 
HETATM    3  C   UNK N   1      42.221  21.882   2.050  0.00  0.00     0.151 C 
HETATM    4  C   UNK N   1      42.429  21.129   3.376  0.00  0.00     0.177 C 
HETATM    5  C   UNK N   1      44.393  22.279   3.875  0.00  0.00     0.279 C 
HETATM    6  O   UNK N   1      43.816  21.001   3.663  0.00  0.00    -0.349 OA
ENDROOT
BRANCH   2   7
HETATM    7  N   UNK N   1      44.868  24.456   2.833  0.00  0.00    -0.422 N 
HETATM    8  H   UNK N   1      45.830  24.745   2.651  0.00  0.00     0.150 HD
HETATM    9  H   UNK N   1      44.238  25.159   3.216  0.00  0.00     0.150 HD
ENDBRANCH   2   7
BRANCH   5  10
HETATM   10  O   UNK N   1      45.734  22.113   4.233  0.00  0.00    -0.369 OA
HETATM   11  H   UNK N   1      46.317  22.720   4.715  0.00  0.00     0.212 HD
ENDBRANCH   5  10
BRANCH   3  12
HETATM   12  O   UNK N   1      42.807  21.182   0.990  0.00  0.00    -0.393 OA
HETATM   13  H   UNK N   1      43.421  20.644   0.466  0.00  0.00     0.210 HD
ENDBRANCH   3  12
BRANCH   4  14
HETATM   14  C   UNK N   1      41.792  19.747   3.280  0.00  0.00     0.198 C 
BRANCH  14  15
HETATM   15  O   UNK N   1      40.633  19.687   4.055  0.00  0.00    -0.398 OA
HETATM   16  H   UNK N   1      39.844  20.203   3.825  0.00  0.00     0.209 HD
ENDBRANCH  14  15
ENDBRANCH   4  14
TORSDOF 5
ENDMDL
MODEL 9
REMARK VINA RESULT:      -4.0     21.197     22.575
REMARK  5 active torsions:
REMARK  status: ('A' for Active; 'I' for Inactive)
REMARK    1  A    between atoms: C_5  and  C_2 
REMARK    2  A    between atoms: O_8  and  C_2 
REMARK    3  A    between atoms: C_3  and  N_7 
REMARK    4  A    between atoms: C_4  and  O_9 
REMARK    5  A    between atoms: C_6  and  O_10 
ROOT
HETATM    1  C   UNK N   1      20.818  19.009   2.168  0.00  0.00     0.064 C 
HETATM    2  C   UNK N   1      19.700  18.017   2.473  0.00  0.00     0.132 C 
HETATM    3  C   UNK N   1      21.594  19.332   3.441  0.00  0.00     0.151 C 
HETATM    4  C   UNK N   1      22.073  18.014   4.073  0.00  0.00     0.177 C 
HETATM    5  C   UNK N   1      20.298  16.791   3.190  0.00  0.00     0.279 C 
HETATM    6  O   UNK N   1      20.964  17.178   4.380  0.00  0.00    -0.349 OA
ENDROOT
BRANCH   2   7
HETATM    7  N   UNK N   1      19.059  17.618   1.232  0.00  0.00    -0.422 N 
HETATM    8  H   UNK N   1      19.499  17.100   0.471  0.00  0.00     0.150 HD
HETATM    9  H   UNK N   1      18.081  17.878   1.110  0.00  0.00     0.150 HD
ENDBRANCH   2   7
BRANCH   5  10
HETATM   10  O   UNK N   1      19.265  15.908   3.519  0.00  0.00    -0.369 OA
HETATM   11  H   UNK N   1      19.009  15.078   3.087  0.00  0.00     0.212 HD
ENDBRANCH   5  10
BRANCH   3  12
HETATM   12  O   UNK N   1      20.772  20.034   4.329  0.00  0.00    -0.393 OA
HETATM   13  H   UNK N   1      20.462  20.657   5.005  0.00  0.00     0.210 HD
ENDBRANCH   3  12
BRANCH   4  14
HETATM   14  C   UNK N   1      22.858  18.316   5.344  0.00  0.00     0.198 C 
BRANCH  14  15
HETATM   15  O   UNK N   1      22.000  18.402   6.442  0.00  0.00    -0.398 OA
HETATM   16  H   UNK N   1      21.149  18.862   6.383  0.00  0.00     0.209 HD
ENDBRANCH  14  15
ENDBRANCH   4  14
TORSDOF 5
ENDMDL
