REMARK  6 active torsions:
REMARK  status: ('A' for Active; 'I' for Inactive)
REMARK    1  A    between atoms: C_3  and  C_1 
REMARK    2  A    between atoms: N_5  and  C_1 
REMARK    3  A    between atoms: C_3  and  C_2 
REMARK    4  A    between atoms: O_6  and  C_2 
REMARK    5  A    between atoms: C_3  and  C_4 
REMARK    6  A    between atoms: O_8  and  C_4 
ROOT
HETATM    1  C   UNK N   1       1.298  -1.046  -0.046  0.00  0.00     0.124 C 
ENDROOT
BRANCH   1   2
HETATM    2  C   UNK N   1       0.583  -2.123   0.765  0.00  0.00     0.128 C 
BRANCH   2   3
HETATM    3  N   UNK N   1      -0.670  -2.510   0.135  0.00  0.00    -0.429 N 
HETATM    4  H   UNK N   1      -1.345  -1.885  -0.306  0.00  0.00     0.149 HD
HETATM    5  H   UNK N   1      -0.896  -3.505   0.135  0.00  0.00     0.149 HD
ENDBRANCH   2   3
ENDBRANCH   1   2
BRANCH   1   6
HETATM    6  C   UNK N   1       2.699  -0.892   0.547  0.00  0.00     0.181 C 
BRANCH   6   7
HETATM    7  O   UNK N   1       3.461   0.017  -0.190  0.00  0.00    -0.400 OA
HETATM    8  H   UNK N   1       4.272  -0.126  -0.702  0.00  0.00     0.209 HD
ENDBRANCH   6   7
ENDBRANCH   1   6
BRANCH   1   9
HETATM    9  C   UNK N   1       0.515   0.253  -0.024  0.00  0.00     0.147 C 
HETATM   10  O   UNK N   1       1.020   1.283   0.391  0.00  0.00    -0.650 OA
BRANCH   9  11
HETATM   11  O   UNK N   1      -0.754   0.279  -0.480  0.00  0.00    -0.776 OA
HETATM   12  H   UNK N   1      -1.179   1.051  -0.796  0.00  0.00     0.167 HD
ENDBRANCH   9  11
ENDBRANCH   1   9
TORSDOF 6
