MODEL 1
REMARK VINA RESULT:      -4.3      0.000      0.000
REMARK  6 active torsions:
REMARK  status: ('A' for Active; 'I' for Inactive)
REMARK    1  A    between atoms: C_2  and  C_4 
REMARK    2  A    between atoms: C_4  and  O_5 
REMARK    3  A    between atoms: C_4  and  C_6 
REMARK    4  A    between atoms: C_6  and  N_7 
REMARK    5  A    between atoms: C_6  and  C_8 
REMARK    6  A    between atoms: C_8  and  O_9 
ROOT
HETATM    1  C   UNK N   1      33.241  17.989   7.967  0.00  0.00     0.202 C 
ENDROOT
BRANCH   1   2
HETATM    2  C   UNK N   1      33.366  17.096   6.713  0.00  0.00     0.154 C 
BRANCH   2   3
HETATM    3  C   UNK N   1      32.220  17.340   5.712  0.00  0.00     0.009 C 
HETATM    4  C   UNK N   1      32.753  17.565   4.308  0.00  0.00     0.012 C 
HETATM    5  C   UNK N   1      31.250  16.173   5.652  0.00  0.00     0.012 C 
ENDBRANCH   2   3
BRANCH   2   6
HETATM    6  O   UNK N   1      34.578  17.376   6.075  0.00  0.00    -0.393 OA
HETATM    7  H   UNK N   1      35.355  16.811   6.208  0.00  0.00     0.210 HD
ENDBRANCH   2   6
ENDBRANCH   1   2
BRANCH   1   8
HETATM    8  N   UNK N   1      32.278  17.430   8.907  0.00  0.00    -0.416 N 
HETATM    9  H   UNK N   1      31.275  17.485   8.733  0.00  0.00     0.150 HD
HETATM   10  H   UNK N   1      32.614  16.974   9.756  0.00  0.00     0.150 HD
ENDBRANCH   1   8
BRANCH   1  11
HETATM   11  C   UNK N   1      34.557  18.213   8.675  0.00  0.00     0.165 C 
HETATM   12  O   UNK N   1      35.253  19.174   8.383  0.00  0.00    -0.648 OA
BRANCH  11  13
HETATM   13  O   UNK N   1      34.950  17.392   9.669  0.00  0.00    -0.775 OA
HETATM   14  H   UNK N   1      34.768  17.535  10.577  0.00  0.00     0.167 HD
ENDBRANCH  11  13
ENDBRANCH   1  11
TORSDOF 6
ENDMDL
MODEL 2
REMARK VINA RESULT:      -4.3      4.015      5.869
REMARK  6 active torsions:
REMARK  status: ('A' for Active; 'I' for Inactive)
REMARK    1  A    between atoms: C_2  and  C_4 
REMARK    2  A    between atoms: C_4  and  O_5 
REMARK    3  A    between atoms: C_4  and  C_6 
REMARK    4  A    between atoms: C_6  and  N_7 
REMARK    5  A    between atoms: C_6  and  C_8 
REMARK    6  A    between atoms: C_8  and  O_9 
ROOT
HETATM    1  C   UNK N   1      34.792  15.591  10.351  0.00  0.00     0.202 C 
ENDROOT
BRANCH   1   2
HETATM    2  C   UNK N   1      35.860  15.634  11.466  0.00  0.00     0.154 C 
BRANCH   2   3
HETATM    3  C   UNK N   1      35.976  14.290  12.210  0.00  0.00     0.009 C 
HETATM    4  C   UNK N   1      37.034  13.400  11.581  0.00  0.00     0.012 C 
HETATM    5  C   UNK N   1      36.339  14.471  13.673  0.00  0.00     0.012 C 
ENDBRANCH   2   3
BRANCH   2   6
HETATM    6  O   UNK N   1      37.102  15.931  10.893  0.00  0.00    -0.393 OA
HETATM    7  H   UNK N   1      37.388  15.503  10.071  0.00  0.00     0.210 HD
ENDBRANCH   2   6
ENDBRANCH   1   2
BRANCH   1   8
HETATM    8  N   UNK N   1      33.548  15.016  10.847  0.00  0.00    -0.416 N 
HETATM    9  H   UNK N   1      32.643  15.407  10.586  0.00  0.00     0.150 HD
HETATM   10  H   UNK N   1      33.584  14.207  11.467  0.00  0.00     0.150 HD
ENDBRANCH   1   8
BRANCH   1  11
HETATM   11  C   UNK N   1      34.508  16.944   9.741  0.00  0.00     0.165 C 
HETATM   12  O   UNK N   1      35.374  17.807   9.736  0.00  0.00    -0.648 OA
BRANCH  11  13
HETATM   13  O   UNK N   1      33.323  17.195   9.151  0.00  0.00    -0.775 OA
HETATM   14  H   UNK N   1      33.076  16.879   8.304  0.00  0.00     0.167 HD
ENDBRANCH  11  13
ENDBRANCH   1  11
TORSDOF 6
ENDMDL
MODEL 3
REMARK VINA RESULT:      -4.2     12.444     13.307
REMARK  6 active torsions:
REMARK  status: ('A' for Active; 'I' for Inactive)
REMARK    1  A    between atoms: C_2  and  C_4 
REMARK    2  A    between atoms: C_4  and  O_5 
REMARK    3  A    between atoms: C_4  and  C_6 
REMARK    4  A    between atoms: C_6  and  N_7 
REMARK    5  A    between atoms: C_6  and  C_8 
REMARK    6  A    between atoms: C_8  and  O_9 
ROOT
HETATM    1  C   UNK N   1      44.362  23.242   2.058  0.00  0.00     0.202 C 
ENDROOT
BRANCH   1   2
HETATM    2  C   UNK N   1      43.389  23.057   3.243  0.00  0.00     0.154 C 
BRANCH   2   3
HETATM    3  C   UNK N   1      43.603  21.713   3.965  0.00  0.00     0.009 C 
HETATM    4  C   UNK N   1      42.662  20.645   3.435  0.00  0.00     0.012 C 
HETATM    5  C   UNK N   1      45.021  21.194   3.805  0.00  0.00     0.012 C 
ENDBRANCH   2   3
BRANCH   2   6
HETATM    6  O   UNK N   1      43.592  24.091   4.163  0.00  0.00    -0.393 OA
HETATM    7  H   UNK N   1      44.054  24.904   3.906  0.00  0.00     0.210 HD
ENDBRANCH   2   6
ENDBRANCH   1   2
BRANCH   1   8
HETATM    8  N   UNK N   1      43.641  23.252   0.792  0.00  0.00    -0.416 N 
HETATM    9  H   UNK N   1      44.122  23.426  -0.090  0.00  0.00     0.150 HD
HETATM   10  H   UNK N   1      42.635  23.081   0.788  0.00  0.00     0.150 HD
ENDBRANCH   1   8
BRANCH   1  11
HETATM   11  C   UNK N   1      45.203  24.492   2.163  0.00  0.00     0.165 C 
HETATM   12  O   UNK N   1      44.819  25.534   1.653  0.00  0.00    -0.648 OA
BRANCH  11  13
HETATM   13  O   UNK N   1      46.355  24.487   2.863  0.00  0.00    -0.775 OA
HETATM   14  H   UNK N   1      46.676  23.752   3.348  0.00  0.00     0.167 HD
ENDBRANCH  11  13
ENDBRANCH   1  11
TORSDOF 6
ENDMDL
MODEL 4
REMARK VINA RESULT:      -4.2     13.851     14.958
REMARK  6 active torsions:
REMARK  status: ('A' for Active; 'I' for Inactive)
REMARK    1  A    between atoms: C_2  and  C_4 
REMARK    2  A    between atoms: C_4  and  O_5 
REMARK    3  A    between atoms: C_4  and  C_6 
REMARK    4  A    between atoms: C_6  and  N_7 
REMARK    5  A    between atoms: C_6  and  C_8 
REMARK    6  A    between atoms: C_8  and  O_9 
ROOT
HETATM    1  C   UNK N   1      20.084  16.645   1.932  0.00  0.00     0.202 C 
ENDROOT
BRANCH   1   2
HETATM    2  C   UNK N   1      19.759  17.808   2.895  0.00  0.00     0.154 C 
BRANCH   2   3
HETATM    3  C   UNK N   1      20.978  18.718   3.138  0.00  0.00     0.009 C 
HETATM    4  C   UNK N   1      20.736  20.119   2.603  0.00  0.00     0.012 C 
HETATM    5  C   UNK N   1      21.319  18.842   4.612  0.00  0.00     0.012 C 
ENDBRANCH   2   3
BRANCH   2   6
HETATM    6  O   UNK N   1      18.732  18.581   2.343  0.00  0.00    -0.393 OA
HETATM    7  H   UNK N   1      18.486  18.490   1.409  0.00  0.00     0.210 HD
ENDBRANCH   2   6
ENDBRANCH   1   2
BRANCH   1   8
HETATM    8  N   UNK N   1      19.475  15.404   2.394  0.00  0.00    -0.416 N 
HETATM    9  H   UNK N   1      20.035  14.666   2.820  0.00  0.00     0.150 HD
HETATM   10  H   UNK N   1      18.468  15.272   2.290  0.00  0.00     0.150 HD
ENDBRANCH   1   8
BRANCH   1  11
HETATM   11  C   UNK N   1      19.658  16.910   0.507  0.00  0.00     0.165 C 
HETATM   12  O   UNK N   1      20.435  17.435  -0.277  0.00  0.00    -0.648 OA
BRANCH  11  13
HETATM   13  O   UNK N   1      18.442  16.525   0.072  0.00  0.00    -0.775 OA
HETATM   14  H   UNK N   1      17.780  17.112  -0.237  0.00  0.00     0.167 HD
ENDBRANCH  11  13
ENDBRANCH   1  11
TORSDOF 6
ENDMDL
MODEL 5
REMARK VINA RESULT:      -4.2     12.427     13.759
REMARK  6 active torsions:
REMARK  status: ('A' for Active; 'I' for Inactive)
REMARK    1  A    between atoms: C_2  and  C_4 
REMARK    2  A    between atoms: C_4  and  O_5 
REMARK    3  A    between atoms: C_4  and  C_6 
REMARK    4  A    between atoms: C_6  and  N_7 
REMARK    5  A    between atoms: C_6  and  C_8 
REMARK    6  A    between atoms: C_8  and  O_9 
ROOT
HETATM    1  C   UNK N   1      20.477  19.064   2.270  0.00  0.00     0.202 C 
ENDROOT
BRANCH   1   2
HETATM    2  C   UNK N   1      21.012  19.305   3.699  0.00  0.00     0.154 C 
BRANCH   2   3
HETATM    3  C   UNK N   1      21.058  18.007   4.527  0.00  0.00     0.009 C 
HETATM    4  C   UNK N   1      22.022  17.001   3.924  0.00  0.00     0.012 C 
HETATM    5  C   UNK N   1      21.491  18.255   5.961  0.00  0.00     0.012 C 
ENDBRANCH   2   3
BRANCH   2   6
HETATM    6  O   UNK N   1      22.309  19.824   3.616  0.00  0.00    -0.393 OA
HETATM    7  H   UNK N   1      22.464  20.781   3.620  0.00  0.00     0.210 HD
ENDBRANCH   2   6
ENDBRANCH   1   2
BRANCH   1   8
HETATM    8  N   UNK N   1      19.054  18.750   2.296  0.00  0.00    -0.416 N 
HETATM    9  H   UNK N   1      18.352  19.484   2.392  0.00  0.00     0.150 HD
HETATM   10  H   UNK N   1      18.755  17.778   2.216  0.00  0.00     0.150 HD
ENDBRANCH   1   8
BRANCH   1  11
HETATM   11  C   UNK N   1      20.715  20.228   1.337  0.00  0.00     0.165 C 
HETATM   12  O   UNK N   1      20.997  21.328   1.789  0.00  0.00    -0.648 OA
BRANCH  11  13
HETATM   13  O   UNK N   1      20.671  20.057   0.001  0.00  0.00    -0.775 OA
HETATM   14  H   UNK N   1      20.173  19.390  -0.431  0.00  0.00     0.167 HD
ENDBRANCH  11  13
ENDBRANCH   1  11
TORSDOF 6
ENDMDL
MODEL 6
REMARK VINA RESULT:      -4.2      2.194      3.855
REMARK  6 active torsions:
REMARK  status: ('A' for Active; 'I' for Inactive)
REMARK    1  A    between atoms: C_2  and  C_4 
REMARK    2  A    between atoms: C_4  and  O_5 
REMARK    3  A    between atoms: C_4  and  C_6 
REMARK    4  A    between atoms: C_6  and  N_7 
REMARK    5  A    between atoms: C_6  and  C_8 
REMARK    6  A    between atoms: C_8  and  O_9 
ROOT
HETATM    1  C   UNK N   1      33.546  16.965   8.497  0.00  0.00     0.202 C 
ENDROOT
BRANCH   1   2
HETATM    2  C   UNK N   1      34.321  16.275   9.641  0.00  0.00     0.154 C 
BRANCH   2   3
HETATM    3  C   UNK N   1      35.464  15.387   9.114  0.00  0.00     0.009 C 
HETATM    4  C   UNK N   1      36.388  14.951  10.239  0.00  0.00     0.012 C 
HETATM    5  C   UNK N   1      34.949  14.132   8.432  0.00  0.00     0.012 C 
ENDBRANCH   2   3
BRANCH   2   6
HETATM    6  O   UNK N   1      34.871  17.256  10.474  0.00  0.00    -0.393 OA
HETATM    7  H   UNK N   1      34.447  18.123  10.570  0.00  0.00     0.210 HD
ENDBRANCH   2   6
ENDBRANCH   1   2
BRANCH   1   8
HETATM    8  N   UNK N   1      32.335  17.600   9.000  0.00  0.00    -0.416 N 
HETATM    9  H   UNK N   1      31.423  17.397   8.592  0.00  0.00     0.150 HD
HETATM   10  H   UNK N   1      32.402  18.260   9.775  0.00  0.00     0.150 HD
ENDBRANCH   1   8
BRANCH   1  11
HETATM   11  C   UNK N   1      34.370  17.986   7.746  0.00  0.00     0.165 C 
HETATM   12  O   UNK N   1      34.481  17.910   6.532  0.00  0.00    -0.648 OA
BRANCH  11  13
HETATM   13  O   UNK N   1      34.945  19.016   8.398  0.00  0.00    -0.775 OA
HETATM   14  H   UNK N   1      35.026  19.073   9.330  0.00  0.00     0.167 HD
ENDBRANCH  11  13
ENDBRANCH   1  11
TORSDOF 6
ENDMDL
MODEL 7
REMARK VINA RESULT:      -4.1      8.319     10.121
REMARK  6 active torsions:
REMARK  status: ('A' for Active; 'I' for Inactive)
REMARK    1  A    between atoms: C_2  and  C_4 
REMARK    2  A    between atoms: C_4  and  O_5 
REMARK    3  A    between atoms: C_4  and  C_6 
REMARK    4  A    between atoms: C_6  and  N_7 
REMARK    5  A    between atoms: C_6  and  C_8 
REMARK    6  A    between atoms: C_8  and  O_9 
ROOT
HETATM    1  C   UNK N   1      36.204  14.083  14.896  0.00  0.00     0.202 C 
ENDROOT
BRANCH   1   2
HETATM    2  C   UNK N   1      36.379  12.776  15.701  0.00  0.00     0.154 C 
BRANCH   2   3
HETATM    3  C   UNK N   1      35.253  12.575  16.732  0.00  0.00     0.009 C 
HETATM    4  C   UNK N   1      35.429  11.275  17.496  0.00  0.00     0.012 C 
HETATM    5  C   UNK N   1      35.196  13.701  17.749  0.00  0.00     0.012 C 
ENDBRANCH   2   3
BRANCH   2   6
HETATM    6  O   UNK N   1      36.367  11.693  14.816  0.00  0.00    -0.393 OA
HETATM    7  H   UNK N   1      36.505  10.787  15.134  0.00  0.00     0.210 HD
ENDBRANCH   2   6
ENDBRANCH   1   2
BRANCH   1   8
HETATM    8  N   UNK N   1      37.344  14.968  15.091  0.00  0.00    -0.416 N 
HETATM    9  H   UNK N   1      37.218  15.969  15.239  0.00  0.00     0.150 HD
HETATM   10  H   UNK N   1      38.287  14.579  15.079  0.00  0.00     0.150 HD
ENDBRANCH   1   8
BRANCH   1  11
HETATM   11  C   UNK N   1      35.998  13.852  13.417  0.00  0.00     0.165 C 
HETATM   12  O   UNK N   1      34.868  13.731  12.967  0.00  0.00    -0.648 OA
BRANCH  11  13
HETATM   13  O   UNK N   1      37.049  13.830  12.573  0.00  0.00    -0.775 OA
HETATM   14  H   UNK N   1      37.040  13.428  11.727  0.00  0.00     0.167 HD
ENDBRANCH  11  13
ENDBRANCH   1  11
TORSDOF 6
ENDMDL
MODEL 8
REMARK VINA RESULT:      -4.1      2.012      2.486
REMARK  6 active torsions:
REMARK  status: ('A' for Active; 'I' for Inactive)
REMARK    1  A    between atoms: C_2  and  C_4 
REMARK    2  A    between atoms: C_4  and  O_5 
REMARK    3  A    between atoms: C_4  and  C_6 
REMARK    4  A    between atoms: C_6  and  N_7 
REMARK    5  A    between atoms: C_6  and  C_8 
REMARK    6  A    between atoms: C_8  and  O_9 
ROOT
HETATM    1  C   UNK N   1      34.445  17.614   8.333  0.00  0.00     0.202 C 
ENDROOT
BRANCH   1   2
HETATM    2  C   UNK N   1      32.931  17.689   8.038  0.00  0.00     0.154 C 
BRANCH   2   3
HETATM    3  C   UNK N   1      32.557  16.958   6.735  0.00  0.00     0.009 C 
HETATM    4  C   UNK N   1      31.083  17.128   6.410  0.00  0.00     0.012 C 
HETATM    5  C   UNK N   1      33.350  17.463   5.544  0.00  0.00     0.012 C 
ENDBRANCH   2   3
BRANCH   2   6
HETATM    6  O   UNK N   1      32.232  17.096   9.095  0.00  0.00    -0.393 OA
HETATM    7  H   UNK N   1      32.338  17.415  10.005  0.00  0.00     0.210 HD
ENDBRANCH   2   6
ENDBRANCH   1   2
BRANCH   1   8
HETATM    8  N   UNK N   1      34.990  18.941   8.585  0.00  0.00    -0.416 N 
HETATM    9  H   UNK N   1      34.395  19.707   8.901  0.00  0.00     0.150 HD
HETATM   10  H   UNK N   1      35.987  19.108   8.444  0.00  0.00     0.150 HD
ENDBRANCH   1   8
BRANCH   1  11
HETATM   11  C   UNK N   1      34.785  16.706   9.492  0.00  0.00     0.165 C 
HETATM   12  O   UNK N   1      34.953  15.510   9.305  0.00  0.00    -0.648 OA
BRANCH  11  13
HETATM   13  O   UNK N   1      34.957  17.210  10.730  0.00  0.00    -0.775 OA
HETATM   14  H   UNK N   1      34.301  17.682  11.205  0.00  0.00     0.167 HD
ENDBRANCH  11  13
ENDBRANCH   1  11
TORSDOF 6
ENDMDL
MODEL 9
REMARK VINA RESULT:      -4.0      2.756      3.591
REMARK  6 active torsions:
REMARK  status: ('A' for Active; 'I' for Inactive)
REMARK    1  A    between atoms: C_2  and  C_4 
REMARK    2  A    between atoms: C_4  and  O_5 
REMARK    3  A    between atoms: C_4  and  C_6 
REMARK    4  A    between atoms: C_6  and  N_7 
REMARK    5  A    between atoms: C_6  and  C_8 
REMARK    6  A    between atoms: C_8  and  O_9 
ROOT
HETATM    1  C   UNK N   1      34.246  17.102   9.042  0.00  0.00     0.202 C 
ENDROOT
BRANCH   1   2
HETATM    2  C   UNK N   1      34.490  15.707   8.423  0.00  0.00     0.154 C 
BRANCH   2   3
HETATM    3  C   UNK N   1      34.068  14.570   9.373  0.00  0.00     0.009 C 
HETATM    4  C   UNK N   1      32.805  13.883   8.883  0.00  0.00     0.012 C 
HETATM    5  C   UNK N   1      35.143  13.507   9.512  0.00  0.00     0.012 C 
ENDBRANCH   2   3
BRANCH   2   6
HETATM    6  O   UNK N   1      33.748  15.598   7.243  0.00  0.00    -0.393 OA
HETATM    7  H   UNK N   1      32.780  15.667   7.254  0.00  0.00     0.210 HD
ENDBRANCH   2   6
ENDBRANCH   1   2
BRANCH   1   8
HETATM    8  N   UNK N   1      34.935  17.229  10.320  0.00  0.00    -0.416 N 
HETATM    9  H   UNK N   1      35.462  16.452  10.716  0.00  0.00     0.150 HD
HETATM   10  H   UNK N   1      34.889  18.113  10.827  0.00  0.00     0.150 HD
ENDBRANCH   1   8
BRANCH   1  11
HETATM   11  C   UNK N   1      34.658  18.239   8.137  0.00  0.00     0.165 C 
HETATM   12  O   UNK N   1      35.279  19.189   8.590  0.00  0.00    -0.648 OA
BRANCH  11  13
HETATM   13  O   UNK N   1      34.394  18.194   6.816  0.00  0.00    -0.775 OA
HETATM   14  H   UNK N   1      34.088  18.922   6.312  0.00  0.00     0.167 HD
ENDBRANCH  11  13
ENDBRANCH   1  11
TORSDOF 6
ENDMDL
