MODEL 1
REMARK VINA RESULT:      -4.6      0.000      0.000
REMARK  6 active torsions:
REMARK  status: ('A' for Active; 'I' for Inactive)
REMARK    1  A    between atoms: C_2  and  N_1 
REMARK    2  A    between atoms: C_2  and  C_3 
REMARK    3  A    between atoms: C_2  and  C_7 
REMARK    4  A    between atoms: C_3  and  C_4 
REMARK    5  A    between atoms: C_4  and  O_5 
REMARK    6  A    between atoms: C_7  and  O_8 
ROOT
HETATM    1  C   UNK N   1      34.206  17.203   9.130  0.00  0.00     0.183 C 
ENDROOT
BRANCH   1   2
HETATM    2  N   UNK N   1      34.895  17.098  10.411  0.00  0.00    -0.417 N 
HETATM    3  H   UNK N   1      34.365  17.155  11.281  0.00  0.00     0.150 HD
HETATM    4  H   UNK N   1      35.907  16.967  10.438  0.00  0.00     0.150 HD
ENDBRANCH   1   2
BRANCH   1   5
HETATM    5  C   UNK N   1      33.038  16.280   8.764  0.00  0.00     0.145 C 
BRANCH   5   6
HETATM    6  C   UNK N   1      32.836  15.007   9.535  0.00  0.00     0.141 C 
HETATM    7  O   UNK N   1      32.691  13.933   8.973  0.00  0.00    -0.650 OA
BRANCH   6   8
HETATM    8  O   UNK N   1      32.816  15.060  10.878  0.00  0.00    -0.776 OA
HETATM    9  H   UNK N   1      32.391  15.774  11.313  0.00  0.00     0.167 HD
ENDBRANCH   6   8
ENDBRANCH   5   6
ENDBRANCH   1   5
BRANCH   1  10
HETATM   10  C   UNK N   1      34.672  18.248   8.165  0.00  0.00     0.163 C 
HETATM   11  O   UNK N   1      34.426  18.119   6.970  0.00  0.00    -0.648 OA
BRANCH  10  12
HETATM   12  O   UNK N   1      35.354  19.322   8.589  0.00  0.00    -0.775 OA
HETATM   13  H   UNK N   1      36.269  19.401   8.402  0.00  0.00     0.167 HD
ENDBRANCH  10  12
ENDBRANCH   1  10
TORSDOF 6
ENDMDL
MODEL 2
REMARK VINA RESULT:      -4.5      1.535      1.755
REMARK  6 active torsions:
REMARK  status: ('A' for Active; 'I' for Inactive)
REMARK    1  A    between atoms: C_2  and  N_1 
REMARK    2  A    between atoms: C_2  and  C_3 
REMARK    3  A    between atoms: C_2  and  C_7 
REMARK    4  A    between atoms: C_3  and  C_4 
REMARK    5  A    between atoms: C_4  and  O_5 
REMARK    6  A    between atoms: C_7  and  O_8 
ROOT
HETATM    1  C   UNK N   1      34.059  17.251   9.089  0.00  0.00     0.183 C 
ENDROOT
BRANCH   1   2
HETATM    2  N   UNK N   1      32.640  16.930   8.980  0.00  0.00    -0.417 N 
HETATM    3  H   UNK N   1      32.064  16.872   9.820  0.00  0.00     0.150 HD
HETATM    4  H   UNK N   1      32.224  16.764   8.063  0.00  0.00     0.150 HD
ENDBRANCH   1   2
BRANCH   1   5
HETATM    5  C   UNK N   1      34.958  16.584  10.136  0.00  0.00     0.145 C 
BRANCH   5   6
HETATM    6  C   UNK N   1      34.595  15.224  10.661  0.00  0.00     0.141 C 
HETATM    7  O   UNK N   1      35.379  14.289  10.618  0.00  0.00    -0.650 OA
BRANCH   6   8
HETATM    8  O   UNK N   1      33.372  15.040  11.190  0.00  0.00    -0.776 OA
HETATM    9  H   UNK N   1      33.213  14.314  11.760  0.00  0.00     0.167 HD
ENDBRANCH   6   8
ENDBRANCH   5   6
ENDBRANCH   1   5
BRANCH   1  10
HETATM   10  C   UNK N   1      34.627  18.261   8.143  0.00  0.00     0.163 C 
HETATM   11  O   UNK N   1      34.415  18.148   6.939  0.00  0.00    -0.648 OA
BRANCH  10  12
HETATM   12  O   UNK N   1      35.364  19.288   8.592  0.00  0.00    -0.775 OA
HETATM   13  H   UNK N   1      35.114  19.737   9.377  0.00  0.00     0.167 HD
ENDBRANCH  10  12
ENDBRANCH   1  10
TORSDOF 6
ENDMDL
MODEL 3
REMARK VINA RESULT:      -4.4     11.749     13.040
REMARK  6 active torsions:
REMARK  status: ('A' for Active; 'I' for Inactive)
REMARK    1  A    between atoms: C_2  and  N_1 
REMARK    2  A    between atoms: C_2  and  C_3 
REMARK    3  A    between atoms: C_2  and  C_7 
REMARK    4  A    between atoms: C_3  and  C_4 
REMARK    5  A    between atoms: C_4  and  O_5 
REMARK    6  A    between atoms: C_7  and  O_8 
ROOT
HETATM    1  C   UNK N   1      21.249  12.442  10.920  0.00  0.00     0.183 C 
ENDROOT
BRANCH   1   2
HETATM    2  N   UNK N   1      20.313  11.847  11.866  0.00  0.00    -0.417 N 
HETATM    3  H   UNK N   1      19.766  11.029  11.597  0.00  0.00     0.150 HD
HETATM    4  H   UNK N   1      20.204  12.249  12.798  0.00  0.00     0.150 HD
ENDBRANCH   1   2
BRANCH   1   5
HETATM    5  C   UNK N   1      22.694  11.945  10.794  0.00  0.00     0.145 C 
BRANCH   5   6
HETATM    6  C   UNK N   1      23.606  12.022  11.984  0.00  0.00     0.141 C 
HETATM    7  O   UNK N   1      23.189  11.877  13.123  0.00  0.00    -0.650 OA
BRANCH   6   8
HETATM    8  O   UNK N   1      24.914  12.258  11.783  0.00  0.00    -0.776 OA
HETATM    9  H   UNK N   1      25.418  12.696  12.440  0.00  0.00     0.167 HD
ENDBRANCH   6   8
ENDBRANCH   5   6
ENDBRANCH   1   5
BRANCH   1  10
HETATM   10  C   UNK N   1      20.763  13.567  10.061  0.00  0.00     0.163 C 
HETATM   11  O   UNK N   1      19.556  13.751   9.931  0.00  0.00    -0.648 OA
BRANCH  10  12
HETATM   12  O   UNK N   1      21.628  14.377   9.432  0.00  0.00    -0.775 OA
HETATM   13  H   UNK N   1      21.381  14.795   8.629  0.00  0.00     0.167 HD
ENDBRANCH  10  12
ENDBRANCH   1  10
TORSDOF 6
ENDMDL
MODEL 4
REMARK VINA RESULT:      -4.4     15.115     15.536
REMARK  6 active torsions:
REMARK  status: ('A' for Active; 'I' for Inactive)
REMARK    1  A    between atoms: C_2  and  N_1 
REMARK    2  A    between atoms: C_2  and  C_3 
REMARK    3  A    between atoms: C_2  and  C_7 
REMARK    4  A    between atoms: C_3  and  C_4 
REMARK    5  A    between atoms: C_4  and  O_5 
REMARK    6  A    between atoms: C_7  and  O_8 
ROOT
HETATM    1  C   UNK N   1      20.730  20.165   1.506  0.00  0.00     0.183 C 
ENDROOT
BRANCH   1   2
HETATM    2  N   UNK N   1      20.490  20.942   0.295  0.00  0.00    -0.417 N 
HETATM    3  H   UNK N   1      20.663  20.526  -0.621  0.00  0.00     0.150 HD
HETATM    4  H   UNK N   1      20.150  21.902   0.363  0.00  0.00     0.150 HD
ENDBRANCH   1   2
BRANCH   1   5
HETATM    5  C   UNK N   1      20.663  18.633   1.507  0.00  0.00     0.145 C 
BRANCH   5   6
HETATM    6  C   UNK N   1      19.620  17.942   2.338  0.00  0.00     0.141 C 
HETATM    7  O   UNK N   1      19.828  16.856   2.856  0.00  0.00    -0.650 OA
BRANCH   6   8
HETATM    8  O   UNK N   1      18.429  18.541   2.512  0.00  0.00    -0.776 OA
HETATM    9  H   UNK N   1      18.388  19.411   2.859  0.00  0.00     0.167 HD
ENDBRANCH   6   8
ENDBRANCH   5   6
ENDBRANCH   1   5
BRANCH   1  10
HETATM   10  C   UNK N   1      21.047  20.906   2.766  0.00  0.00     0.163 C 
HETATM   11  O   UNK N   1      20.321  20.771   3.746  0.00  0.00    -0.648 OA
BRANCH  10  12
HETATM   12  O   UNK N   1      22.114  21.716   2.839  0.00  0.00    -0.775 OA
HETATM   13  H   UNK N   1      22.708  21.776   2.116  0.00  0.00     0.167 HD
ENDBRANCH  10  12
ENDBRANCH   1  10
TORSDOF 6
ENDMDL
MODEL 5
REMARK VINA RESULT:      -4.4      3.718      4.253
REMARK  6 active torsions:
REMARK  status: ('A' for Active; 'I' for Inactive)
REMARK    1  A    between atoms: C_2  and  N_1 
REMARK    2  A    between atoms: C_2  and  C_3 
REMARK    3  A    between atoms: C_2  and  C_7 
REMARK    4  A    between atoms: C_3  and  C_4 
REMARK    5  A    between atoms: C_4  and  O_5 
REMARK    6  A    between atoms: C_7  and  O_8 
ROOT
HETATM    1  C   UNK N   1      34.730  15.053  11.181  0.00  0.00     0.183 C 
ENDROOT
BRANCH   1   2
HETATM    2  N   UNK N   1      33.336  15.145  10.763  0.00  0.00    -0.417 N 
HETATM    3  H   UNK N   1      32.719  14.338  10.863  0.00  0.00     0.150 HD
HETATM    4  H   UNK N   1      32.976  16.016  10.371  0.00  0.00     0.150 HD
ENDBRANCH   1   2
BRANCH   1   5
HETATM    5  C   UNK N   1      35.273  13.820  11.911  0.00  0.00     0.145 C 
BRANCH   5   6
HETATM    6  C   UNK N   1      35.664  13.932  13.357  0.00  0.00     0.141 C 
HETATM    7  O   UNK N   1      34.963  13.482  14.249  0.00  0.00    -0.650 OA
BRANCH   6   8
HETATM    8  O   UNK N   1      36.819  14.546  13.669  0.00  0.00    -0.776 OA
HETATM    9  H   UNK N   1      37.393  14.840  12.988  0.00  0.00     0.167 HD
ENDBRANCH   6   8
ENDBRANCH   5   6
ENDBRANCH   1   5
BRANCH   1  10
HETATM   10  C   UNK N   1      35.633  16.207  10.877  0.00  0.00     0.163 C 
HETATM   11  O   UNK N   1      35.147  17.294  10.582  0.00  0.00    -0.648 OA
BRANCH  10  12
HETATM   12  O   UNK N   1      36.966  16.068  10.923  0.00  0.00    -0.775 OA
HETATM   13  H   UNK N   1      37.514  16.610  10.388  0.00  0.00     0.167 HD
ENDBRANCH  10  12
ENDBRANCH   1  10
TORSDOF 6
ENDMDL
MODEL 6
REMARK VINA RESULT:      -4.3     15.067     15.899
REMARK  6 active torsions:
REMARK  status: ('A' for Active; 'I' for Inactive)
REMARK    1  A    between atoms: C_2  and  N_1 
REMARK    2  A    between atoms: C_2  and  C_3 
REMARK    3  A    between atoms: C_2  and  C_7 
REMARK    4  A    between atoms: C_3  and  C_4 
REMARK    5  A    between atoms: C_4  and  O_5 
REMARK    6  A    between atoms: C_7  and  O_8 
ROOT
HETATM    1  C   UNK N   1      19.911  18.408   2.026  0.00  0.00     0.183 C 
ENDROOT
BRANCH   1   2
HETATM    2  N   UNK N   1      18.521  18.675   2.378  0.00  0.00    -0.417 N 
HETATM    3  H   UNK N   1      17.966  19.319   1.814  0.00  0.00     0.150 HD
HETATM    4  H   UNK N   1      18.104  18.218   3.190  0.00  0.00     0.150 HD
ENDBRANCH   1   2
BRANCH   1   5
HETATM    5  C   UNK N   1      21.061  19.253   2.585  0.00  0.00     0.145 C 
BRANCH   5   6
HETATM    6  C   UNK N   1      21.416  20.550   1.916  0.00  0.00     0.141 C 
HETATM    7  O   UNK N   1      21.437  20.660   0.700  0.00  0.00    -0.650 OA
BRANCH   6   8
HETATM    8  O   UNK N   1      21.716  21.613   2.683  0.00  0.00    -0.776 OA
HETATM    9  H   UNK N   1      22.612  21.823   2.863  0.00  0.00     0.167 HD
ENDBRANCH   6   8
ENDBRANCH   5   6
ENDBRANCH   1   5
BRANCH   1  10
HETATM   10  C   UNK N   1      20.195  17.274   1.092  0.00  0.00     0.163 C 
HETATM   11  O   UNK N   1      20.341  16.142   1.542  0.00  0.00    -0.648 OA
BRANCH  10  12
HETATM   12  O   UNK N   1      20.291  17.479  -0.231  0.00  0.00    -0.775 OA
HETATM   13  H   UNK N   1      19.558  17.301  -0.788  0.00  0.00     0.167 HD
ENDBRANCH  10  12
ENDBRANCH   1  10
TORSDOF 6
ENDMDL
MODEL 7
REMARK VINA RESULT:      -4.1     14.479     15.330
REMARK  6 active torsions:
REMARK  status: ('A' for Active; 'I' for Inactive)
REMARK    1  A    between atoms: C_2  and  N_1 
REMARK    2  A    between atoms: C_2  and  C_3 
REMARK    3  A    between atoms: C_2  and  C_7 
REMARK    4  A    between atoms: C_3  and  C_4 
REMARK    5  A    between atoms: C_4  and  O_5 
REMARK    6  A    between atoms: C_7  and  O_8 
ROOT
HETATM    1  C   UNK N   1      20.504  19.481   2.261  0.00  0.00     0.183 C 
ENDROOT
BRANCH   1   2
HETATM    2  N   UNK N   1      20.260  20.286   1.070  0.00  0.00    -0.417 N 
HETATM    3  H   UNK N   1      20.349  19.867   0.144  0.00  0.00     0.150 HD
HETATM    4  H   UNK N   1      20.001  21.269   1.162  0.00  0.00     0.150 HD
ENDBRANCH   1   2
BRANCH   1   5
HETATM    5  C   UNK N   1      21.813  19.588   3.052  0.00  0.00     0.145 C 
BRANCH   5   6
HETATM    6  C   UNK N   1      22.735  20.746   2.799  0.00  0.00     0.141 C 
HETATM    7  O   UNK N   1      23.920  20.581   2.556  0.00  0.00    -0.650 OA
BRANCH   6   8
HETATM    8  O   UNK N   1      22.234  21.993   2.842  0.00  0.00    -0.776 OA
HETATM    9  H   UNK N   1      21.550  22.244   2.252  0.00  0.00     0.167 HD
ENDBRANCH   6   8
ENDBRANCH   5   6
ENDBRANCH   1   5
BRANCH   1  10
HETATM   10  C   UNK N   1      19.432  18.534   2.702  0.00  0.00     0.163 C 
HETATM   11  O   UNK N   1      19.722  17.588   3.427  0.00  0.00    -0.648 OA
BRANCH  10  12
HETATM   12  O   UNK N   1      18.159  18.707   2.316  0.00  0.00    -0.775 OA
HETATM   13  H   UNK N   1      17.742  18.065   1.775  0.00  0.00     0.167 HD
ENDBRANCH  10  12
ENDBRANCH   1  10
TORSDOF 6
ENDMDL
MODEL 8
REMARK VINA RESULT:      -4.1      4.537      6.065
REMARK  6 active torsions:
REMARK  status: ('A' for Active; 'I' for Inactive)
REMARK    1  A    between atoms: C_2  and  N_1 
REMARK    2  A    between atoms: C_2  and  C_3 
REMARK    3  A    between atoms: C_2  and  C_7 
REMARK    4  A    between atoms: C_3  and  C_4 
REMARK    5  A    between atoms: C_4  and  O_5 
REMARK    6  A    between atoms: C_7  and  O_8 
ROOT
HETATM    1  C   UNK N   1      36.328  13.990  12.641  0.00  0.00     0.183 C 
ENDROOT
BRANCH   1   2
HETATM    2  N   UNK N   1      37.454  13.360  11.961  0.00  0.00    -0.417 N 
HETATM    3  H   UNK N   1      37.288  12.641  11.257  0.00  0.00     0.150 HD
HETATM    4  H   UNK N   1      38.409  13.638  12.191  0.00  0.00     0.150 HD
ENDBRANCH   1   2
BRANCH   1   5
HETATM    5  C   UNK N   1      35.347  14.903  11.897  0.00  0.00     0.145 C 
BRANCH   5   6
HETATM    6  C   UNK N   1      35.874  16.079  11.125  0.00  0.00     0.141 C 
HETATM    7  O   UNK N   1      35.161  17.025  10.829  0.00  0.00    -0.650 OA
BRANCH   6   8
HETATM    8  O   UNK N   1      37.167  16.081  10.754  0.00  0.00    -0.776 OA
HETATM    9  H   UNK N   1      37.443  15.576  10.015  0.00  0.00     0.167 HD
ENDBRANCH   6   8
ENDBRANCH   5   6
ENDBRANCH   1   5
BRANCH   1  10
HETATM   10  C   UNK N   1      36.148  13.722  14.102  0.00  0.00     0.163 C 
HETATM   11  O   UNK N   1      35.029  13.470  14.537  0.00  0.00    -0.648 OA
BRANCH  10  12
HETATM   12  O   UNK N   1      37.194  13.753  14.941  0.00  0.00    -0.775 OA
HETATM   13  H   UNK N   1      37.361  13.026  15.510  0.00  0.00     0.167 HD
ENDBRANCH  10  12
ENDBRANCH   1  10
TORSDOF 6
ENDMDL
MODEL 9
REMARK VINA RESULT:      -4.0      1.228      4.153
REMARK  6 active torsions:
REMARK  status: ('A' for Active; 'I' for Inactive)
REMARK    1  A    between atoms: C_2  and  N_1 
REMARK    2  A    between atoms: C_2  and  C_3 
REMARK    3  A    between atoms: C_2  and  C_7 
REMARK    4  A    between atoms: C_3  and  C_4 
REMARK    5  A    between atoms: C_4  and  O_5 
REMARK    6  A    between atoms: C_7  and  O_8 
ROOT
HETATM    1  C   UNK N   1      33.867  15.741   8.624  0.00  0.00     0.183 C 
ENDROOT
BRANCH   1   2
HETATM    2  N   UNK N   1      34.749  15.123   7.641  0.00  0.00    -0.417 N 
HETATM    3  H   UNK N   1      34.961  15.610   6.769  0.00  0.00     0.150 HD
HETATM    4  H   UNK N   1      35.153  14.204   7.823  0.00  0.00     0.150 HD
ENDBRANCH   1   2
BRANCH   1   5
HETATM    5  C   UNK N   1      34.040  17.201   9.058  0.00  0.00     0.145 C 
BRANCH   5   6
HETATM    6  C   UNK N   1      34.587  18.200   8.080  0.00  0.00     0.141 C 
HETATM    7  O   UNK N   1      34.408  18.086   6.878  0.00  0.00    -0.650 OA
BRANCH   6   8
HETATM    8  O   UNK N   1      35.292  19.245   8.549  0.00  0.00    -0.776 OA
HETATM    9  H   UNK N   1      35.220  20.083   8.135  0.00  0.00     0.167 HD
ENDBRANCH   6   8
ENDBRANCH   5   6
ENDBRANCH   1   5
BRANCH   1  10
HETATM   10  C   UNK N   1      32.772  14.905   9.210  0.00  0.00     0.163 C 
HETATM   11  O   UNK N   1      32.309  13.973   8.561  0.00  0.00    -0.648 OA
BRANCH  10  12
HETATM   12  O   UNK N   1      32.290  15.163  10.436  0.00  0.00    -0.775 OA
HETATM   13  H   UNK N   1      32.780  15.699  11.029  0.00  0.00     0.167 HD
ENDBRANCH  10  12
ENDBRANCH   1  10
TORSDOF 6
ENDMDL
