MODEL 1
REMARK VINA RESULT:      -8.1      0.000      0.000
REMARK  3 active torsions:
REMARK  status: ('A' for Active; 'I' for Inactive)
REMARK    1  A    between atoms: C_19  and  C_22 
REMARK    2  A    between atoms: O_26  and  C_21 
REMARK    3  A    between atoms: C_22  and  O_27 
ROOT
HETATM    1  C   UNK N   1      34.849  13.259  17.028  0.00  0.00     0.014 C 
HETATM    2  C   UNK N   1      34.701   7.903   9.414  0.00  0.00     0.043 C 
HETATM    3  C   UNK N   1      35.915   9.012  15.205  0.00  0.00    -0.004 C 
HETATM    4  C   UNK N   1      35.877   8.151  14.173  0.00  0.00    -0.026 C 
HETATM    5  C   UNK N   1      35.829  10.486  15.037  0.00  0.00    -0.004 C 
HETATM    6  C   UNK N   1      35.830   8.607  12.749  0.00  0.00     0.031 C 
HETATM    7  C   UNK N   1      36.013  11.307  16.089  0.00  0.00    -0.023 C 
HETATM    8  C   UNK N   1      34.603   8.114  11.986  0.00  0.00     0.038 C 
HETATM    9  C   UNK N   1      35.493  13.370  14.636  0.00  0.00     0.010 C 
HETATM   10  C   UNK N   1      36.744  13.521  13.794  0.00  0.00     0.033 C 
HETATM   11  C   UNK N   1      34.596  10.114  10.566  0.00  0.00     0.084 C 
HETATM   12  C   UNK N   1      36.290  12.365  11.548  0.00  0.00     0.065 C 
HETATM   13  C   UNK N   1      36.690  14.058   9.639  0.00  0.00     0.103 C 
HETATM   14  C   UNK N   1      35.891  12.820  16.019  0.00  0.00     0.004 C 
HETATM   15  C   UNK N   1      34.602   8.768  10.632  0.00  0.00    -0.078 C 
HETATM   16  C   UNK N   1      36.606  13.650  12.280  0.00  0.00     0.127 C 
HETATM   17  C   UNK N   1      36.305  12.602  10.016  0.00  0.00     0.140 C 
HETATM   18  C   UNK N   1      34.687  10.931   9.328  0.00  0.00     0.283 C 
HETATM   19  C   UNK N   1      36.116  15.158  10.593  0.00  0.00     0.185 C 
HETATM   20  O   UNK N   1      34.391  10.442   8.244  0.00  0.00    -0.260 OA
HETATM   21  O   UNK N   1      35.129  12.218   9.370  0.00  0.00    -0.312 OA
HETATM   22  O   UNK N   1      35.672  14.624  11.843  0.00  0.00    -0.348 OA
ENDROOT
BRANCH  19  23
HETATM   23  C   UNK N   1      34.982  15.931   9.870  0.00  0.00     0.156 C 
HETATM   24  C   UNK N   1      34.889  15.463   8.407  0.00  0.00     0.113 C 
HETATM   25  S   UNK N   1      33.164  15.092   7.972  0.00  0.00    -0.085 SA
HETATM   26  C   UNK N   1      32.771  15.271   9.695  0.00  0.00     0.176 C 
HETATM   27  N   UNK N   1      33.694  15.697  10.473  0.00  0.00    -0.355 N 
ATOM     28  HN  UNK N   1      33.526  15.863  11.465  1.00  0.00     0.162 HD
BRANCH  26  29
HETATM   29  O   UNK N   1      31.543  14.982  10.161  0.00  0.00    -0.341 OA
HETATM   30  H   UNK N   1      31.110  14.151  10.147  0.00  0.00     0.220 HD
ENDBRANCH  26  29
ENDBRANCH  19  23
BRANCH  19  31
HETATM   31  O   UNK N   1      37.135  16.075  10.879  0.00  0.00    -0.363 OA
HETATM   32  H   UNK N   1      37.547  16.812  10.400  0.00  0.00     0.213 HD
ENDBRANCH  19  31
TORSDOF 3
ENDMDL
MODEL 2
REMARK VINA RESULT:      -7.8      5.200     10.040
REMARK  3 active torsions:
REMARK  status: ('A' for Active; 'I' for Inactive)
REMARK    1  A    between atoms: C_19  and  C_22 
REMARK    2  A    between atoms: O_26  and  C_21 
REMARK    3  A    between atoms: C_22  and  O_27 
ROOT
HETATM    1  C   UNK N   1      30.475  11.857   2.568  0.00  0.00     0.014 C 
HETATM    2  C   UNK N   1      28.072  19.175   7.798  0.00  0.00     0.043 C 
HETATM    3  C   UNK N   1      27.920  15.847   2.785  0.00  0.00    -0.004 C 
HETATM    4  C   UNK N   1      27.472  16.901   3.490  0.00  0.00    -0.026 C 
HETATM    5  C   UNK N   1      29.166  15.112   3.124  0.00  0.00    -0.004 C 
HETATM    6  C   UNK N   1      28.238  17.481   4.637  0.00  0.00     0.031 C 
HETATM    7  C   UNK N   1      29.641  14.155   2.303  0.00  0.00    -0.023 C 
HETATM    8  C   UNK N   1      27.473  17.466   5.959  0.00  0.00     0.038 C 
HETATM    9  C   UNK N   1      31.545  13.615   3.952  0.00  0.00     0.010 C 
HETATM   10  C   UNK N   1      32.491  14.788   3.781  0.00  0.00     0.033 C 
HETATM   11  C   UNK N   1      29.552  17.246   7.240  0.00  0.00     0.084 C 
HETATM   12  C   UNK N   1      31.948  16.474   5.638  0.00  0.00     0.065 C 
HETATM   13  C   UNK N   1      34.096  16.955   6.987  0.00  0.00     0.103 C 
HETATM   14  C   UNK N   1      30.874  13.319   2.597  0.00  0.00     0.004 C 
HETATM   15  C   UNK N   1      28.406  17.927   7.043  0.00  0.00    -0.078 C 
HETATM   16  C   UNK N   1      32.965  15.542   5.020  0.00  0.00     0.127 C 
HETATM   17  C   UNK N   1      32.589  17.274   6.801  0.00  0.00     0.140 C 
HETATM   18  C   UNK N   1      30.632  17.606   8.196  0.00  0.00     0.283 C 
HETATM   19  C   UNK N   1      34.484  15.454   6.765  0.00  0.00     0.185 C 
HETATM   20  O   UNK N   1      30.392  18.338   9.149  0.00  0.00    -0.260 OA
HETATM   21  O   UNK N   1      31.906  17.161   8.013  0.00  0.00    -0.312 OA
HETATM   22  O   UNK N   1      33.475  14.725   6.062  0.00  0.00    -0.348 OA
ENDROOT
BRANCH  19  23
HETATM   23  C   UNK N   1      34.813  14.797   8.130  0.00  0.00     0.156 C 
HETATM   24  C   UNK N   1      35.776  15.700   8.922  0.00  0.00     0.113 C 
HETATM   25  S   UNK N   1      35.179  15.919  10.624  0.00  0.00    -0.085 SA
HETATM   26  C   UNK N   1      33.674  15.123  10.118  0.00  0.00     0.176 C 
HETATM   27  N   UNK N   1      33.637  14.614   8.945  0.00  0.00    -0.355 N 
ATOM     28  HN  UNK N   1      32.820  14.107   8.604  1.00  0.00     0.162 HD
BRANCH  26  29
HETATM   29  O   UNK N   1      32.617  15.047  10.945  0.00  0.00    -0.341 OA
HETATM   30  H   UNK N   1      32.324  14.298  11.427  0.00  0.00     0.220 HD
ENDBRANCH  26  29
ENDBRANCH  19  23
BRANCH  19  31
HETATM   31  O   UNK N   1      35.644  15.406   5.983  0.00  0.00    -0.363 OA
HETATM   32  H   UNK N   1      36.508  14.971   6.066  0.00  0.00     0.213 HD
ENDBRANCH  19  31
TORSDOF 3
ENDMDL
MODEL 3
REMARK VINA RESULT:      -7.8     18.715     22.833
REMARK  3 active torsions:
REMARK  status: ('A' for Active; 'I' for Inactive)
REMARK    1  A    between atoms: C_19  and  C_22 
REMARK    2  A    between atoms: O_26  and  C_21 
REMARK    3  A    between atoms: C_22  and  O_27 
ROOT
HETATM    1  C   UNK N   1      27.621  23.072 -11.267  0.00  0.00     0.014 C 
HETATM    2  C   UNK N   1      31.649  21.814  -2.968  0.00  0.00     0.043 C 
HETATM    3  C   UNK N   1      29.525  19.924  -8.273  0.00  0.00    -0.004 C 
HETATM    4  C   UNK N   1      30.167  19.660  -7.121  0.00  0.00    -0.026 C 
HETATM    5  C   UNK N   1      28.708  21.147  -8.487  0.00  0.00    -0.004 C 
HETATM    6  C   UNK N   1      30.047  20.540  -5.918  0.00  0.00     0.031 C 
HETATM    7  C   UNK N   1      27.973  21.293  -9.607  0.00  0.00    -0.023 C 
HETATM    8  C   UNK N   1      31.380  21.110  -5.437  0.00  0.00     0.038 C 
HETATM    9  C   UNK N   1      27.250  23.657  -8.886  0.00  0.00     0.010 C 
HETATM   10  C   UNK N   1      26.243  23.387  -7.786  0.00  0.00     0.033 C 
HETATM   11  C   UNK N   1      30.287  23.135  -4.588  0.00  0.00     0.084 C 
HETATM   12  C   UNK N   1      27.496  23.562  -5.553  0.00  0.00     0.065 C 
HETATM   13  C   UNK N   1      26.311  25.306  -4.062  0.00  0.00     0.103 C 
HETATM   14  C   UNK N   1      27.154  22.530  -9.931  0.00  0.00     0.004 C 
HETATM   15  C   UNK N   1      31.097  22.088  -4.332  0.00  0.00    -0.078 C 
HETATM   16  C   UNK N   1      26.402  24.101  -6.446  0.00  0.00     0.127 C 
HETATM   17  C   UNK N   1      27.470  24.280  -4.179  0.00  0.00     0.140 C 
HETATM   18  C   UNK N   1      29.823  24.145  -3.602  0.00  0.00     0.283 C 
HETATM   19  C   UNK N   1      26.012  26.113  -5.369  0.00  0.00     0.185 C 
HETATM   20  O   UNK N   1      30.446  24.324  -2.562  0.00  0.00    -0.260 OA
HETATM   21  O   UNK N   1      28.686  24.863  -3.819  0.00  0.00    -0.312 OA
HETATM   22  O   UNK N   1      26.581  25.506  -6.532  0.00  0.00    -0.348 OA
ENDROOT
BRANCH  19  23
HETATM   23  C   UNK N   1      26.497  27.576  -5.197  0.00  0.00     0.156 C 
HETATM   24  C   UNK N   1      25.938  28.156  -3.886  0.00  0.00     0.113 C 
HETATM   25  S   UNK N   1      27.262  28.963  -2.938  0.00  0.00    -0.085 SA
HETATM   26  C   UNK N   1      28.413  28.265  -4.097  0.00  0.00     0.176 C 
HETATM   27  N   UNK N   1      27.933  27.669  -5.124  0.00  0.00    -0.355 N 
ATOM     28  HN  UNK N   1      28.536  27.282  -5.850  1.00  0.00     0.162 HD
BRANCH  26  29
HETATM   29  O   UNK N   1      29.740  28.372  -3.909  0.00  0.00    -0.341 OA
HETATM   30  H   UNK N   1      30.241  29.159  -3.827  0.00  0.00     0.220 HD
ENDBRANCH  26  29
ENDBRANCH  19  23
BRANCH  19  31
HETATM   31  O   UNK N   1      24.626  26.148  -5.563  0.00  0.00    -0.363 OA
HETATM   32  H   UNK N   1      23.858  25.799  -5.082  0.00  0.00     0.213 HD
ENDBRANCH  19  31
TORSDOF 3
ENDMDL
MODEL 4
REMARK VINA RESULT:      -7.8     11.555     14.442
REMARK  3 active torsions:
REMARK  status: ('A' for Active; 'I' for Inactive)
REMARK    1  A    between atoms: C_19  and  C_22 
REMARK    2  A    between atoms: O_26  and  C_21 
REMARK    3  A    between atoms: C_22  and  O_27 
ROOT
HETATM    1  C   UNK N   1      23.670  13.391   8.374  0.00  0.00     0.014 C 
HETATM    2  C   UNK N   1      20.972  19.796   2.179  0.00  0.00     0.043 C 
HETATM    3  C   UNK N   1      20.824  14.331   4.698  0.00  0.00    -0.004 C 
HETATM    4  C   UNK N   1      20.332  15.211   3.807  0.00  0.00    -0.026 C 
HETATM    5  C   UNK N   1      22.140  14.502   5.368  0.00  0.00    -0.004 C 
HETATM    6  C   UNK N   1      21.108  16.404   3.347  0.00  0.00     0.031 C 
HETATM    7  C   UNK N   1      22.646  13.523   6.143  0.00  0.00    -0.023 C 
HETATM    8  C   UNK N   1      20.415  17.735   3.631  0.00  0.00     0.038 C 
HETATM    9  C   UNK N   1      24.668  14.992   6.765  0.00  0.00     0.010 C 
HETATM   10  C   UNK N   1      25.509  14.972   5.504  0.00  0.00     0.033 C 
HETATM   11  C   UNK N   1      22.569  18.885   3.866  0.00  0.00     0.084 C 
HETATM   12  C   UNK N   1      24.932  17.090   4.175  0.00  0.00     0.065 C 
HETATM   13  C   UNK N   1      27.103  18.415   3.726  0.00  0.00     0.103 C 
HETATM   14  C   UNK N   1      23.955  13.635   6.906  0.00  0.00     0.004 C 
HETATM   15  C   UNK N   1      21.363  18.841   3.264  0.00  0.00    -0.078 C 
HETATM   16  C   UNK N   1      25.986  16.295   4.910  0.00  0.00     0.127 C 
HETATM   17  C   UNK N   1      25.567  18.339   3.511  0.00  0.00     0.140 C 
HETATM   18  C   UNK N   1      23.664  19.843   3.566  0.00  0.00     0.283 C 
HETATM   19  C   UNK N   1      27.595  17.945   5.135  0.00  0.00     0.185 C 
HETATM   20  O   UNK N   1      23.417  20.908   3.013  0.00  0.00    -0.260 OA
HETATM   21  O   UNK N   1      24.958  19.543   3.868  0.00  0.00    -0.312 OA
HETATM   22  O   UNK N   1      26.611  17.175   5.831  0.00  0.00    -0.348 OA
ENDROOT
BRANCH  19  23
HETATM   23  C   UNK N   1      28.044  19.176   5.964  0.00  0.00     0.156 C 
HETATM   24  C   UNK N   1      27.966  20.443   5.094  0.00  0.00     0.113 C 
HETATM   25  S   UNK N   1      27.102  21.769   5.986  0.00  0.00    -0.085 SA
HETATM   26  C   UNK N   1      26.674  20.560   7.214  0.00  0.00     0.176 C 
HETATM   27  N   UNK N   1      27.200  19.397   7.112  0.00  0.00    -0.355 N 
ATOM     28  HN  UNK N   1      27.031  18.668   7.804  1.00  0.00     0.162 HD
BRANCH  26  29
HETATM   29  O   UNK N   1      25.838  20.861   8.224  0.00  0.00    -0.341 OA
HETATM   30  H   UNK N   1      25.467  20.271   8.851  0.00  0.00     0.220 HD
ENDBRANCH  26  29
ENDBRANCH  19  23
BRANCH  19  31
HETATM   31  O   UNK N   1      28.714  17.121   4.964  0.00  0.00    -0.363 OA
HETATM   32  H   UNK N   1      28.851  16.206   4.672  0.00  0.00     0.213 HD
ENDBRANCH  19  31
TORSDOF 3
ENDMDL
MODEL 5
REMARK VINA RESULT:      -7.7     18.453     22.436
REMARK  3 active torsions:
REMARK  status: ('A' for Active; 'I' for Inactive)
REMARK    1  A    between atoms: C_19  and  C_22 
REMARK    2  A    between atoms: O_26  and  C_21 
REMARK    3  A    between atoms: C_22  and  O_27 
ROOT
HETATM    1  C   UNK N   1      33.958  27.590  -6.277  0.00  0.00     0.014 C 
HETATM    2  C   UNK N   1      24.680  26.969  -5.815  0.00  0.00     0.043 C 
HETATM    3  C   UNK N   1      29.892  29.980  -5.779  0.00  0.00    -0.004 C 
HETATM    4  C   UNK N   1      28.547  29.991  -5.763  0.00  0.00    -0.026 C 
HETATM    5  C   UNK N   1      30.700  28.765  -5.495  0.00  0.00    -0.004 C 
HETATM    6  C   UNK N   1      27.742  28.792  -5.373  0.00  0.00     0.031 C 
HETATM    7  C   UNK N   1      32.040  28.843  -5.387  0.00  0.00    -0.023 C 
HETATM    8  C   UNK N   1      26.788  28.311  -6.465  0.00  0.00     0.038 C 
HETATM    9  C   UNK N   1      32.215  26.291  -5.083  0.00  0.00     0.010 C 
HETATM   10  C   UNK N   1      31.717  26.079  -3.667  0.00  0.00     0.033 C 
HETATM   11  C   UNK N   1      26.972  25.989  -5.697  0.00  0.00     0.084 C 
HETATM   12  C   UNK N   1      29.233  25.451  -3.827  0.00  0.00     0.065 C 
HETATM   13  C   UNK N   1      28.860  23.195  -2.627  0.00  0.00     0.103 C 
HETATM   14  C   UNK N   1      32.945  27.646  -5.152  0.00  0.00     0.004 C 
HETATM   15  C   UNK N   1      26.164  27.024  -6.004  0.00  0.00    -0.078 C 
HETATM   16  C   UNK N   1      30.628  25.039  -3.415  0.00  0.00     0.127 C 
HETATM   17  C   UNK N   1      28.206  24.371  -3.401  0.00  0.00     0.140 C 
HETATM   18  C   UNK N   1      26.544  24.679  -5.140  0.00  0.00     0.283 C 
HETATM   19  C   UNK N   1      30.272  22.767  -3.151  0.00  0.00     0.185 C 
HETATM   20  O   UNK N   1      25.386  24.301  -5.275  0.00  0.00    -0.260 OA
HETATM   21  O   UNK N   1      27.415  23.895  -4.447  0.00  0.00    -0.312 OA
HETATM   22  O   UNK N   1      30.874  23.762  -3.982  0.00  0.00    -0.348 OA
ENDROOT
BRANCH  19  23
HETATM   23  C   UNK N   1      30.161  21.405  -3.884  0.00  0.00     0.156 C 
HETATM   24  C   UNK N   1      30.234  21.629  -5.405  0.00  0.00     0.113 C 
HETATM   25  S   UNK N   1      31.424  20.479  -6.156  0.00  0.00    -0.085 SA
HETATM   26  C   UNK N   1      31.920  20.037  -4.508  0.00  0.00     0.176 C 
HETATM   27  N   UNK N   1      31.234  20.509  -3.535  0.00  0.00    -0.355 N 
ATOM     28  HN  UNK N   1      31.437  20.263  -2.567  1.00  0.00     0.162 HD
BRANCH  26  29
HETATM   29  O   UNK N   1      32.969  19.224  -4.293  0.00  0.00    -0.341 OA
HETATM   30  H   UNK N   1      33.668  19.028  -4.886  0.00  0.00     0.220 HD
ENDBRANCH  26  29
ENDBRANCH  19  23
BRANCH  19  31
HETATM   31  O   UNK N   1      31.119  22.585  -2.050  0.00  0.00    -0.363 OA
HETATM   32  H   UNK N   1      30.986  22.380  -1.111  0.00  0.00     0.213 HD
ENDBRANCH  19  31
TORSDOF 3
ENDMDL
MODEL 6
REMARK VINA RESULT:      -7.4     17.668     21.204
REMARK  3 active torsions:
REMARK  status: ('A' for Active; 'I' for Inactive)
REMARK    1  A    between atoms: C_19  and  C_22 
REMARK    2  A    between atoms: O_26  and  C_21 
REMARK    3  A    between atoms: C_22  and  O_27 
ROOT
HETATM    1  C   UNK N   1      30.763  28.072  -4.100  0.00  0.00     0.014 C 
HETATM    2  C   UNK N   1      26.652  20.906  -8.394  0.00  0.00     0.043 C 
HETATM    3  C   UNK N   1      26.641  26.174  -5.481  0.00  0.00    -0.004 C 
HETATM    4  C   UNK N   1      25.970  25.211  -6.137  0.00  0.00    -0.026 C 
HETATM    5  C   UNK N   1      28.015  25.987  -4.945  0.00  0.00    -0.004 C 
HETATM    6  C   UNK N   1      26.518  23.831  -6.315  0.00  0.00     0.031 C 
HETATM    7  C   UNK N   1      28.585  26.934  -4.175  0.00  0.00    -0.023 C 
HETATM    8  C   UNK N   1      26.671  23.413  -7.776  0.00  0.00     0.038 C 
HETATM    9  C   UNK N   1      30.781  25.593  -4.062  0.00  0.00     0.010 C 
HETATM   10  C   UNK N   1      30.444  24.461  -3.112  0.00  0.00     0.033 C 
HETATM   11  C   UNK N   1      28.586  21.979  -7.238  0.00  0.00     0.084 C 
HETATM   12  C   UNK N   1      29.790  22.436  -4.547  0.00  0.00     0.065 C 
HETATM   13  C   UNK N   1      31.294  20.436  -3.908  0.00  0.00     0.103 C 
HETATM   14  C   UNK N   1      30.001  26.849  -3.632  0.00  0.00     0.004 C 
HETATM   15  C   UNK N   1      27.370  22.084  -7.810  0.00  0.00    -0.078 C 
HETATM   16  C   UNK N   1      30.745  23.026  -3.534  0.00  0.00     0.127 C 
HETATM   17  C   UNK N   1      30.123  20.942  -4.793  0.00  0.00     0.140 C 
HETATM   18  C   UNK N   1      29.382  20.732  -7.094  0.00  0.00     0.283 C 
HETATM   19  C   UNK N   1      32.451  21.468  -3.695  0.00  0.00     0.185 C 
HETATM   20  O   UNK N   1      29.161  19.772  -7.823  0.00  0.00    -0.260 OA
HETATM   21  O   UNK N   1      30.342  20.622  -6.134  0.00  0.00    -0.312 OA
HETATM   22  O   UNK N   1      32.061  22.806  -4.018  0.00  0.00    -0.348 OA
ENDROOT
BRANCH  19  23
HETATM   23  C   UNK N   1      33.695  21.027  -4.508  0.00  0.00     0.156 C 
HETATM   24  C   UNK N   1      34.266  19.726  -3.917  0.00  0.00     0.113 C 
HETATM   25  S   UNK N   1      34.568  18.513  -5.236  0.00  0.00    -0.085 SA
HETATM   26  C   UNK N   1      33.705  19.609  -6.336  0.00  0.00     0.176 C 
HETATM   27  N   UNK N   1      33.378  20.762  -5.889  0.00  0.00    -0.355 N 
ATOM     28  HN  UNK N   1      32.917  21.456  -6.478  1.00  0.00     0.162 HD
BRANCH  26  29
HETATM   29  O   UNK N   1      33.419  19.242  -7.598  0.00  0.00    -0.341 OA
HETATM   30  H   UNK N   1      34.015  19.160  -8.316  0.00  0.00     0.220 HD
ENDBRANCH  26  29
ENDBRANCH  19  23
BRANCH  19  31
HETATM   31  O   UNK N   1      32.808  21.462  -2.341  0.00  0.00    -0.363 OA
HETATM   32  H   UNK N   1      32.621  22.035  -1.581  0.00  0.00     0.213 HD
ENDBRANCH  19  31
TORSDOF 3
ENDMDL
MODEL 7
REMARK VINA RESULT:      -7.3     10.856     14.741
REMARK  3 active torsions:
REMARK  status: ('A' for Active; 'I' for Inactive)
REMARK    1  A    between atoms: C_19  and  C_22 
REMARK    2  A    between atoms: O_26  and  C_21 
REMARK    3  A    between atoms: C_22  and  O_27 
ROOT
HETATM    1  C   UNK N   1      21.317  20.654   2.663  0.00  0.00     0.014 C 
HETATM    2  C   UNK N   1      24.454  12.067   0.897  0.00  0.00     0.043 C 
HETATM    3  C   UNK N   1      20.125  16.124   1.918  0.00  0.00    -0.004 C 
HETATM    4  C   UNK N   1      20.484  14.866   1.604  0.00  0.00    -0.026 C 
HETATM    5  C   UNK N   1      21.063  17.115   2.507  0.00  0.00    -0.004 C 
HETATM    6  C   UNK N   1      21.848  14.326   1.898  0.00  0.00     0.031 C 
HETATM    7  C   UNK N   1      20.617  18.313   2.932  0.00  0.00    -0.023 C 
HETATM    8  C   UNK N   1      22.601  13.850   0.657  0.00  0.00     0.038 C 
HETATM    9  C   UNK N   1      23.013  19.057   3.513  0.00  0.00     0.010 C 
HETATM   10  C   UNK N   1      23.318  18.278   4.777  0.00  0.00     0.033 C 
HETATM   11  C   UNK N   1      24.762  14.421   1.667  0.00  0.00     0.084 C 
HETATM   12  C   UNK N   1      24.608  16.172   4.076  0.00  0.00     0.065 C 
HETATM   13  C   UNK N   1      26.848  16.097   5.360  0.00  0.00     0.103 C 
HETATM   14  C   UNK N   1      21.512  19.402   3.495  0.00  0.00     0.004 C 
HETATM   15  C   UNK N   1      23.998  13.482   1.073  0.00  0.00    -0.078 C 
HETATM   16  C   UNK N   1      24.610  17.468   4.855  0.00  0.00     0.127 C 
HETATM   17  C   UNK N   1      25.918  15.386   4.340  0.00  0.00     0.140 C 
HETATM   18  C   UNK N   1      26.125  14.216   2.225  0.00  0.00     0.283 C 
HETATM   19  C   UNK N   1      26.885  17.657   5.241  0.00  0.00     0.185 C 
HETATM   20  O   UNK N   1      26.810  13.273   1.848  0.00  0.00    -0.260 OA
HETATM   21  O   UNK N   1      26.620  15.048   3.182  0.00  0.00    -0.312 OA
HETATM   22  O   UNK N   1      25.784  18.177   4.491  0.00  0.00    -0.348 OA
ENDROOT
BRANCH  19  23
HETATM   23  C   UNK N   1      28.243  18.098   4.637  0.00  0.00     0.156 C 
HETATM   24  C   UNK N   1      29.365  17.874   5.667  0.00  0.00     0.113 C 
HETATM   25  S   UNK N   1      30.765  17.008   4.897  0.00  0.00    -0.085 SA
HETATM   26  C   UNK N   1      29.728  16.755   3.477  0.00  0.00     0.176 C 
HETATM   27  N   UNK N   1      28.589  17.339   3.461  0.00  0.00    -0.355 N 
ATOM     28  HN  UNK N   1      27.961  17.271   2.661  1.00  0.00     0.162 HD
BRANCH  26  29
HETATM   29  O   UNK N   1      30.133  15.988   2.449  0.00  0.00    -0.341 OA
HETATM   30  H   UNK N   1      30.341  16.266   1.579  0.00  0.00     0.220 HD
ENDBRANCH  26  29
ENDBRANCH  19  23
BRANCH  19  31
HETATM   31  O   UNK N   1      26.798  18.203   6.527  0.00  0.00    -0.363 OA
HETATM   32  H   UNK N   1      27.388  18.732   7.088  0.00  0.00     0.213 HD
ENDBRANCH  19  31
TORSDOF 3
ENDMDL
MODEL 8
REMARK VINA RESULT:      -7.2      2.527      5.863
REMARK  3 active torsions:
REMARK  status: ('A' for Active; 'I' for Inactive)
REMARK    1  A    between atoms: C_19  and  C_22 
REMARK    2  A    between atoms: O_26  and  C_21 
REMARK    3  A    between atoms: C_22  and  O_27 
ROOT
HETATM    1  C   UNK N   1      37.637   5.288  14.165  0.00  0.00     0.014 C 
HETATM    2  C   UNK N   1      35.019  12.847  18.928  0.00  0.00     0.043 C 
HETATM    3  C   UNK N   1      35.064   6.936  17.793  0.00  0.00    -0.004 C 
HETATM    4  C   UNK N   1      34.684   7.963  18.573  0.00  0.00    -0.026 C 
HETATM    5  C   UNK N   1      35.573   7.111  16.407  0.00  0.00    -0.004 C 
HETATM    6  C   UNK N   1      34.661   9.376  18.081  0.00  0.00     0.031 C 
HETATM    7  C   UNK N   1      35.806   6.041  15.622  0.00  0.00    -0.023 C 
HETATM    8  C   UNK N   1      35.552  10.321  18.885  0.00  0.00     0.038 C 
HETATM    9  C   UNK N   1      36.716   7.552  13.745  0.00  0.00     0.010 C 
HETATM   10  C   UNK N   1      35.463   8.190  13.180  0.00  0.00     0.033 C 
HETATM   11  C   UNK N   1      35.965  11.719  16.913  0.00  0.00     0.084 C 
HETATM   12  C   UNK N   1      35.207  10.483  14.306  0.00  0.00     0.065 C 
HETATM   13  C   UNK N   1      35.072  12.303  12.479  0.00  0.00     0.103 C 
HETATM   14  C   UNK N   1      36.375   6.126  14.217  0.00  0.00     0.004 C 
HETATM   15  C   UNK N   1      35.556  11.656  18.196  0.00  0.00    -0.078 C 
HETATM   16  C   UNK N   1      35.411   9.708  13.024  0.00  0.00     0.127 C 
HETATM   17  C   UNK N   1      35.042  11.993  14.000  0.00  0.00     0.140 C 
HETATM   18  C   UNK N   1      35.950  12.927  16.046  0.00  0.00     0.283 C 
HETATM   19  C   UNK N   1      36.089  11.446  11.653  0.00  0.00     0.185 C 
HETATM   20  O   UNK N   1      35.920  14.045  16.548  0.00  0.00    -0.260 OA
HETATM   21  O   UNK N   1      35.936  12.814  14.689  0.00  0.00    -0.312 OA
HETATM   22  O   UNK N   1      36.525  10.281  12.358  0.00  0.00    -0.348 OA
ENDROOT
BRANCH  19  23
HETATM   23  C   UNK N   1      37.287  12.333  11.226  0.00  0.00     0.156 C 
HETATM   24  C   UNK N   1      37.476  12.249   9.701  0.00  0.00     0.113 C 
HETATM   25  S   UNK N   1      37.647  13.914   8.993  0.00  0.00    -0.085 SA
HETATM   26  C   UNK N   1      37.187  14.555  10.585  0.00  0.00     0.176 C 
HETATM   27  N   UNK N   1      37.080  13.722  11.552  0.00  0.00    -0.355 N 
ATOM     28  HN  UNK N   1      36.860  14.026  12.500  1.00  0.00     0.162 HD
BRANCH  26  29
HETATM   29  O   UNK N   1      36.974  15.869  10.770  0.00  0.00    -0.341 OA
HETATM   30  H   UNK N   1      37.278  16.576  10.234  0.00  0.00     0.220 HD
ENDBRANCH  26  29
ENDBRANCH  19  23
BRANCH  19  31
HETATM   31  O   UNK N   1      35.454  11.004  10.486  0.00  0.00    -0.363 OA
HETATM   32  H   UNK N   1      35.455  11.287   9.557  0.00  0.00     0.213 HD
ENDBRANCH  19  31
TORSDOF 3
ENDMDL
MODEL 9
REMARK VINA RESULT:      -7.1      8.555     12.835
REMARK  3 active torsions:
REMARK  status: ('A' for Active; 'I' for Inactive)
REMARK    1  A    between atoms: C_19  and  C_22 
REMARK    2  A    between atoms: O_26  and  C_21 
REMARK    3  A    between atoms: C_22  and  O_27 
ROOT
HETATM    1  C   UNK N   1      24.159  13.374   8.967  0.00  0.00     0.014 C 
HETATM    2  C   UNK N   1      23.547  20.358   2.841  0.00  0.00     0.043 C 
HETATM    3  C   UNK N   1      21.705  15.202   5.343  0.00  0.00    -0.004 C 
HETATM    4  C   UNK N   1      21.505  16.200   4.464  0.00  0.00    -0.026 C 
HETATM    5  C   UNK N   1      23.017  14.939   5.991  0.00  0.00    -0.004 C 
HETATM    6  C   UNK N   1      22.613  17.088   3.995  0.00  0.00     0.031 C 
HETATM    7  C   UNK N   1      23.197  13.844   6.754  0.00  0.00    -0.023 C 
HETATM    8  C   UNK N   1      22.384  18.568   4.295  0.00  0.00     0.038 C 
HETATM    9  C   UNK N   1      25.591  14.587   7.346  0.00  0.00     0.010 C 
HETATM   10  C   UNK N   1      26.362  14.311   6.070  0.00  0.00     0.033 C 
HETATM   11  C   UNK N   1      24.795  18.971   4.497  0.00  0.00     0.084 C 
HETATM   12  C   UNK N   1      26.469  16.515   4.759  0.00  0.00     0.065 C 
HETATM   13  C   UNK N   1      28.941  17.083   4.277  0.00  0.00     0.103 C 
HETATM   14  C   UNK N   1      24.484  13.526   7.494  0.00  0.00     0.004 C 
HETATM   15  C   UNK N   1      23.630  19.319   3.915  0.00  0.00    -0.078 C 
HETATM   16  C   UNK N   1      27.226  15.419   5.473  0.00  0.00     0.127 C 
HETATM   17  C   UNK N   1      27.458  17.502   4.089  0.00  0.00     0.140 C 
HETATM   18  C   UNK N   1      26.134  19.533   4.181  0.00  0.00     0.283 C 
HETATM   19  C   UNK N   1      29.279  16.469   5.676  0.00  0.00     0.185 C 
HETATM   20  O   UNK N   1      26.231  20.626   3.636  0.00  0.00    -0.260 OA
HETATM   21  O   UNK N   1      27.270  18.835   4.459  0.00  0.00    -0.312 OA
HETATM   22  O   UNK N   1      28.112  16.046   6.387  0.00  0.00    -0.348 OA
ENDROOT
BRANCH  19  23
HETATM   23  C   UNK N   1      30.110  17.486   6.502  0.00  0.00     0.156 C 
HETATM   24  C   UNK N   1      29.216  18.134   7.574  0.00  0.00     0.113 C 
HETATM   25  S   UNK N   1      30.045  18.096   9.192  0.00  0.00    -0.085 SA
HETATM   26  C   UNK N   1      31.270  17.043   8.454  0.00  0.00     0.176 C 
HETATM   27  N   UNK N   1      31.212  16.860   7.188  0.00  0.00    -0.355 N 
ATOM     28  HN  UNK N   1      31.907  16.301   6.693  1.00  0.00     0.162 HD
BRANCH  26  29
HETATM   29  O   UNK N   1      32.234  16.471   9.197  0.00  0.00    -0.341 OA
HETATM   30  H   UNK N   1      32.750  16.874   9.868  0.00  0.00     0.220 HD
ENDBRANCH  26  29
ENDBRANCH  19  23
BRANCH  19  31
HETATM   31  O   UNK N   1      30.075  15.333   5.483  0.00  0.00    -0.363 OA
HETATM   32  H   UNK N   1      30.297  14.554   6.017  0.00  0.00     0.213 HD
ENDBRANCH  19  31
TORSDOF 3
ENDMDL
