MODEL 1
REMARK VINA RESULT:      -8.0      0.000      0.000
REMARK  11 active torsions:
REMARK  status: ('A' for Active; 'I' for Inactive)
REMARK    1  A    between atoms: C_26  and  C_7 
REMARK    2  A    between atoms: C_27  and  C_8 
REMARK    3  A    between atoms: C_16  and  C_14 
REMARK    4  A    between atoms: C_28  and  C_14 
REMARK    5  A    between atoms: C_17  and  C_15 
REMARK    6  A    between atoms: C_29  and  C_15 
REMARK    7  A    between atoms: C_36  and  C_16 
REMARK    8  A    between atoms: C_37  and  C_17 
REMARK    9  A    between atoms: C_38  and  C_25 
REMARK   10  A    between atoms: O_46  and  C_36 
REMARK   11  A    between atoms: O_48  and  C_37 
ROOT
HETATM    1  C   UNK N   1      24.170  15.279   6.744  0.00  0.00     0.046 A 
HETATM    2  C   UNK N   1      22.087  11.132   4.872  0.00  0.00     0.051 C 
HETATM    3  C   UNK N   1      22.298  20.800   2.687  0.00  0.00     0.051 C 
HETATM    4  C   UNK N   1      29.268  19.089   4.531  0.00  0.00     0.017 C 
HETATM    5  C   UNK N   1      24.541  12.803   5.432  0.00  0.00     0.031 C 
HETATM    6  C   UNK N   1      24.575  19.667   4.249  0.00  0.00     0.060 C 
HETATM    7  C   UNK N   1      21.293  16.006   3.967  0.00  0.00     0.064 C 
HETATM    8  C   UNK N   1      25.181  14.619   5.539  0.00  0.00    -0.053 A 
HETATM    9  C   UNK N   1      22.169  12.608   4.604  0.00  0.00    -0.025 A 
HETATM   10  C   UNK N   1      22.359  19.419   3.259  0.00  0.00    -0.025 A 
HETATM   11  C   UNK N   1      27.802  18.804   4.667  0.00  0.00     0.048 C 
HETATM   12  C   UNK N   1      26.857  19.972   4.763  0.00  0.00     0.069 C 
HETATM   13  C   UNK N   1      26.084  15.208   4.377  0.00  0.00    -0.031 A 
HETATM   14  C   UNK N   1      21.191  13.626   4.310  0.00  0.00    -0.021 A 
HETATM   15  C   UNK N   1      21.434  18.406   3.176  0.00  0.00    -0.021 A 
HETATM   16  C   UNK N   1      23.312  13.300   4.846  0.00  0.00     0.062 A 
HETATM   17  C   UNK N   1      23.410  18.906   3.950  0.00  0.00     0.066 A 
HETATM   18  C   UNK N   1      25.702  13.738   5.972  0.00  0.00     0.130 A 
HETATM   19  C   UNK N   1      25.594  19.228   4.928  0.00  0.00     0.045 C 
HETATM   20  C   UNK N   1      21.846  14.827   4.278  0.00  0.00     0.066 A 
HETATM   21  C   UNK N   1      21.976  17.309   3.827  0.00  0.00     0.066 A 
HETATM   22  C   UNK N   1      27.770  16.533   5.526  0.00  0.00     0.001 C 
HETATM   23  C   UNK N   1      27.165  17.723   5.477  0.00  0.00     0.049 C 
HETATM   24  C   UNK N   1      27.066  15.315   5.145  0.00  0.00     0.144 C 
HETATM   25 Fe   UNK N   1      24.573  16.351   5.021  0.00  0.00     0.000 Fe
HETATM   26  N   UNK N   1      23.083  14.670   4.644  0.00  0.00    -0.248 N 
HETATM   27  N   UNK N   1      23.220  17.604   4.236  0.00  0.00    -0.248 N 
HETATM   28  N   UNK N   1      26.462  14.777   6.064  0.00  0.00    -0.222 N 
HETATM   29  N   UNK N   1      25.792  17.892   5.320  0.00  0.00    -0.256 N 
ENDROOT
BRANCH  14  30
HETATM   30  C   UNK N   1      19.706  13.751   4.164  0.00  0.00     0.052 C 
BRANCH  30  31
HETATM   31  C   UNK N   1      18.925  12.827   3.325  0.00  0.00     0.115 C 
BRANCH  31  32
HETATM   32  C   UNK N   1      19.101  13.135   1.904  0.00  0.00     0.139 C 
HETATM   33  O   UNK N   1      19.905  12.522   1.217  0.00  0.00    -0.650 OA
BRANCH  32  34
HETATM   34  O   UNK N   1      18.438  14.187   1.407  0.00  0.00    -0.776 OA
HETATM   35  H   UNK N   1      18.346  14.529   0.539  0.00  0.00     0.167 HD
ENDBRANCH  32  34
ENDBRANCH  31  32
ENDBRANCH  30  31
ENDBRANCH  14  30
BRANCH  15  36
HETATM   36  C   UNK N   1      20.135  18.454   2.461  0.00  0.00     0.052 C 
BRANCH  36  37
HETATM   37  C   UNK N   1      20.313  18.287   0.963  0.00  0.00     0.115 C 
BRANCH  37  38
HETATM   38  C   UNK N   1      19.887  16.947   0.453  0.00  0.00     0.139 C 
HETATM   39  O   UNK N   1      20.687  16.028   0.438  0.00  0.00    -0.650 OA
BRANCH  38  40
HETATM   40  O   UNK N   1      18.614  16.740   0.052  0.00  0.00    -0.776 OA
HETATM   41  H   UNK N   1      18.176  16.921  -0.756  0.00  0.00     0.167 HD
ENDBRANCH  38  40
ENDBRANCH  37  38
ENDBRANCH  36  37
ENDBRANCH  15  36
BRANCH  13  42
HETATM   42  C   UNK N   1      25.981  16.171   3.212  0.00  0.00    -0.001 C 
HETATM   43  C   UNK N   1      25.807  15.799   1.946  0.00  0.00     0.012 C 
ENDBRANCH  13  42
BRANCH  22  44
HETATM   44  C   UNK N   1      28.550  16.371   6.796  0.00  0.00    -0.026 C 
HETATM   45  C   UNK N   1      29.928  16.184   6.605  0.00  0.00     0.012 C 
HETATM   46  C   UNK N   1      30.773  17.187   6.998  0.00  0.00     0.001 C 
HETATM   47  C   UNK N   1      30.240  18.288   7.671  0.00  0.00     0.000 C 
HETATM   48  C   UNK N   1      28.944  18.232   8.186  0.00  0.00     0.001 C 
HETATM   49  C   UNK N   1      28.107  17.211   7.801  0.00  0.00     0.012 C 
ENDBRANCH  22  44
BRANCH  12  50
HETATM   50  C   UNK N   1      27.150  20.924   5.868  0.00  0.00    -0.025 C 
HETATM   51  C   UNK N   1      26.317  20.937   6.905  0.00  0.00     0.007 C 
ENDBRANCH  12  50
TORSDOF 11
ENDMDL
MODEL 2
REMARK VINA RESULT:      -7.7     12.629     15.352
REMARK  11 active torsions:
REMARK  status: ('A' for Active; 'I' for Inactive)
REMARK    1  A    between atoms: C_26  and  C_7 
REMARK    2  A    between atoms: C_27  and  C_8 
REMARK    3  A    between atoms: C_16  and  C_14 
REMARK    4  A    between atoms: C_28  and  C_14 
REMARK    5  A    between atoms: C_17  and  C_15 
REMARK    6  A    between atoms: C_29  and  C_15 
REMARK    7  A    between atoms: C_36  and  C_16 
REMARK    8  A    between atoms: C_37  and  C_17 
REMARK    9  A    between atoms: C_38  and  C_25 
REMARK   10  A    between atoms: O_46  and  C_36 
REMARK   11  A    between atoms: O_48  and  C_37 
ROOT
HETATM    1  C   UNK N   1      28.010  25.033  -7.807  0.00  0.00     0.046 A 
HETATM    2  C   UNK N   1      25.579  20.672  -8.144  0.00  0.00     0.051 C 
HETATM    3  C   UNK N   1      34.387  23.869  -4.903  0.00  0.00     0.051 C 
HETATM    4  C   UNK N   1      29.506  28.896  -2.492  0.00  0.00     0.017 C 
HETATM    5  C   UNK N   1      25.883  23.408  -6.900  0.00  0.00     0.031 C 
HETATM    6  C   UNK N   1      32.124  25.814  -4.959  0.00  0.00     0.060 C 
HETATM    7  C   UNK N   1      30.382  21.789  -7.199  0.00  0.00     0.064 C 
HETATM    8  C   UNK N   1      27.187  24.718  -6.347  0.00  0.00    -0.053 A 
HETATM    9  C   UNK N   1      26.891  21.232  -7.673  0.00  0.00    -0.025 A 
HETATM   10  C   UNK N   1      33.045  23.625  -5.519  0.00  0.00    -0.025 A 
HETATM   11  C   UNK N   1      29.875  27.856  -3.507  0.00  0.00     0.048 C 
HETATM   12  C   UNK N   1      31.305  27.795  -3.975  0.00  0.00     0.069 C 
HETATM   13  C   UNK N   1      27.505  24.913  -4.807  0.00  0.00    -0.031 A 
HETATM   14  C   UNK N   1      28.269  20.855  -7.871  0.00  0.00    -0.021 A 
HETATM   15  C   UNK N   1      32.571  22.498  -6.144  0.00  0.00    -0.021 A 
HETATM   16  C   UNK N   1      26.959  22.457  -7.091  0.00  0.00     0.062 A 
HETATM   17  C   UNK N   1      32.014  24.511  -5.519  0.00  0.00     0.066 A 
HETATM   18  C   UNK N   1      26.107  24.929  -6.509  0.00  0.00     0.130 A 
HETATM   19  C   UNK N   1      31.175  26.704  -4.959  0.00  0.00     0.045 C 
HETATM   20  C   UNK N   1      29.046  21.817  -7.288  0.00  0.00     0.066 A 
HETATM   21  C   UNK N   1      31.255  22.753  -6.498  0.00  0.00     0.066 A 
HETATM   22  C   UNK N   1      27.741  27.318  -4.533  0.00  0.00     0.001 C 
HETATM   23  C   UNK N   1      29.065  27.414  -4.682  0.00  0.00     0.049 C 
HETATM   24  C   UNK N   1      27.038  26.074  -4.821  0.00  0.00     0.144 C 
HETATM   25 Fe   UNK N   1      29.069  24.779  -6.047  0.00  0.00     0.000 Fe
HETATM   26  N   UNK N   1      28.303  22.797  -6.869  0.00  0.00    -0.248 N 
HETATM   27  N   UNK N   1      30.901  23.966  -6.044  0.00  0.00    -0.248 N 
HETATM   28  N   UNK N   1      26.675  25.962  -5.984  0.00  0.00    -0.222 N 
HETATM   29  N   UNK N   1      29.843  26.469  -5.344  0.00  0.00    -0.256 N 
ENDROOT
BRANCH  14  30
HETATM   30  C   UNK N   1      29.056  19.821  -8.615  0.00  0.00     0.052 C 
BRANCH  30  31
HETATM   31  C   UNK N   1      29.539  18.592  -7.964  0.00  0.00     0.115 C 
BRANCH  31  32
HETATM   32  C   UNK N   1      30.796  18.141  -8.563  0.00  0.00     0.139 C 
HETATM   33  O   UNK N   1      31.786  18.858  -8.575  0.00  0.00    -0.650 OA
BRANCH  32  34
HETATM   34  O   UNK N   1      30.796  16.964  -9.204  0.00  0.00    -0.776 OA
HETATM   35  H   UNK N   1      30.183  16.555  -9.782  0.00  0.00     0.167 HD
ENDBRANCH  32  34
ENDBRANCH  31  32
ENDBRANCH  30  31
ENDBRANCH  14  30
BRANCH  15  36
HETATM   36  C   UNK N   1      33.304  21.222  -6.338  0.00  0.00     0.052 C 
BRANCH  36  37
HETATM   37  C   UNK N   1      32.950  20.204  -5.269  0.00  0.00     0.115 C 
BRANCH  37  38
HETATM   38  C   UNK N   1      33.861  20.232  -4.085  0.00  0.00     0.139 C 
HETATM   39  O   UNK N   1      35.033  19.925  -4.222  0.00  0.00    -0.650 OA
BRANCH  38  40
HETATM   40  O   UNK N   1      33.407  20.636  -2.880  0.00  0.00    -0.776 OA
HETATM   41  H   UNK N   1      32.554  20.609  -2.492  0.00  0.00     0.167 HD
ENDBRANCH  38  40
ENDBRANCH  37  38
ENDBRANCH  36  37
ENDBRANCH  15  36
BRANCH  13  42
HETATM   42  C   UNK N   1      28.596  24.594  -3.805  0.00  0.00    -0.001 C 
HETATM   43  C   UNK N   1      28.835  23.377  -3.320  0.00  0.00     0.012 C 
ENDBRANCH  13  42
BRANCH  22  44
HETATM   44  C   UNK N   1      27.042  28.516  -5.103  0.00  0.00    -0.026 C 
HETATM   45  C   UNK N   1      26.255  29.219  -4.177  0.00  0.00     0.012 C 
HETATM   46  C   UNK N   1      26.667  30.470  -3.802  0.00  0.00     0.001 C 
HETATM   47  C   UNK N   1      27.775  31.030  -4.439  0.00  0.00     0.000 C 
HETATM   48  C   UNK N   1      28.264  30.464  -5.619  0.00  0.00     0.001 C 
HETATM   49  C   UNK N   1      27.831  29.215  -5.998  0.00  0.00     0.012 C 
ENDBRANCH  22  44
BRANCH  12  50
HETATM   50  C   UNK N   1      31.831  29.066  -4.543  0.00  0.00    -0.025 C 
HETATM   51  C   UNK N   1      31.853  29.184  -5.868  0.00  0.00     0.007 C 
ENDBRANCH  12  50
TORSDOF 11
ENDMDL
MODEL 3
REMARK VINA RESULT:      -7.6      3.384      7.577
REMARK  11 active torsions:
REMARK  status: ('A' for Active; 'I' for Inactive)
REMARK    1  A    between atoms: C_26  and  C_7 
REMARK    2  A    between atoms: C_27  and  C_8 
REMARK    3  A    between atoms: C_16  and  C_14 
REMARK    4  A    between atoms: C_28  and  C_14 
REMARK    5  A    between atoms: C_17  and  C_15 
REMARK    6  A    between atoms: C_29  and  C_15 
REMARK    7  A    between atoms: C_36  and  C_16 
REMARK    8  A    between atoms: C_37  and  C_17 
REMARK    9  A    between atoms: C_38  and  C_25 
REMARK   10  A    between atoms: O_46  and  C_36 
REMARK   11  A    between atoms: O_48  and  C_37 
ROOT
HETATM    1  C   UNK N   1      26.111  15.328   1.712  0.00  0.00     0.046 A 
HETATM    2  C   UNK N   1      29.239  17.805   4.733  0.00  0.00     0.051 C 
HETATM    3  C   UNK N   1      19.436  16.821   3.625  0.00  0.00     0.051 C 
HETATM    4  C   UNK N   1      22.163   9.980   2.812  0.00  0.00     0.017 C 
HETATM    5  C   UNK N   1      28.031  15.204   3.783  0.00  0.00     0.031 C 
HETATM    6  C   UNK N   1      21.185  14.612   2.644  0.00  0.00     0.060 C 
HETATM    7  C   UNK N   1      24.296  18.201   3.942  0.00  0.00     0.064 C 
HETATM    8  C   UNK N   1      26.405  14.408   3.118  0.00  0.00    -0.053 A 
HETATM    9  C   UNK N   1      27.768  17.604   4.505  0.00  0.00    -0.025 A 
HETATM   10  C   UNK N   1      20.929  16.865   3.543  0.00  0.00    -0.025 A 
HETATM   11  C   UNK N   1      22.370  11.460   2.702  0.00  0.00     0.048 C 
HETATM   12  C   UNK N   1      21.234  12.300   2.178  0.00  0.00     0.069 C 
HETATM   13  C   UNK N   1      25.530  13.488   4.068  0.00  0.00    -0.031 A 
HETATM   14  C   UNK N   1      26.641  18.498   4.396  0.00  0.00    -0.021 A 
HETATM   15  C   UNK N   1      21.787  17.875   3.906  0.00  0.00    -0.021 A 
HETATM   16  C   UNK N   1      27.280  16.401   4.108  0.00  0.00     0.062 A 
HETATM   17  C   UNK N   1      21.717  15.844   3.115  0.00  0.00     0.066 A 
HETATM   18  C   UNK N   1      27.415  13.954   3.027  0.00  0.00     0.130 A 
HETATM   19  C   UNK N   1      21.898  13.617   2.201  0.00  0.00     0.045 C 
HETATM   20  C   UNK N   1      25.549  17.744   4.065  0.00  0.00     0.066 A 
HETATM   21  C   UNK N   1      23.074  17.413   3.681  0.00  0.00     0.066 A 
HETATM   22  C   UNK N   1      24.788  11.666   2.636  0.00  0.00     0.001 C 
HETATM   23  C   UNK N   1      23.609  12.168   2.259  0.00  0.00     0.049 C 
HETATM   24  C   UNK N   1      25.757  12.481   3.359  0.00  0.00     0.144 C 
HETATM   25 Fe   UNK N   1      24.559  14.878   3.006  0.00  0.00     0.000 Fe
HETATM   26  N   UNK N   1      25.908  16.516   3.837  0.00  0.00    -0.248 N 
HETATM   27  N   UNK N   1      23.023  16.138   3.264  0.00  0.00    -0.248 N 
HETATM   28  N   UNK N   1      26.524  13.106   2.638  0.00  0.00    -0.222 N 
HETATM   29  N   UNK N   1      23.298  13.525   2.280  0.00  0.00    -0.256 N 
ENDROOT
BRANCH  14  30
HETATM   30  C   UNK N   1      26.367  19.970   4.416  0.00  0.00     0.052 C 
BRANCH  30  31
HETATM   31  C   UNK N   1      27.144  20.896   5.256  0.00  0.00     0.115 C 
BRANCH  31  32
HETATM   32  C   UNK N   1      27.051  20.524   6.669  0.00  0.00     0.139 C 
HETATM   33  O   UNK N   1      27.916  19.846   7.205  0.00  0.00    -0.650 OA
BRANCH  32  34
HETATM   34  O   UNK N   1      25.930  20.849   7.328  0.00  0.00    -0.776 OA
HETATM   35  H   UNK N   1      25.101  21.183   7.047  0.00  0.00     0.167 HD
ENDBRANCH  32  34
ENDBRANCH  31  32
ENDBRANCH  30  31
ENDBRANCH  14  30
BRANCH  15  36
HETATM   36  C   UNK N   1      21.410  19.183   4.498  0.00  0.00     0.052 C 
BRANCH  36  37
HETATM   37  C   UNK N   1      20.778  20.103   3.469  0.00  0.00     0.115 C 
BRANCH  37  38
HETATM   38  C   UNK N   1      21.752  20.657   2.479  0.00  0.00     0.139 C 
HETATM   39  O   UNK N   1      22.752  21.230   2.877  0.00  0.00    -0.650 OA
BRANCH  38  40
HETATM   40  O   UNK N   1      21.553  20.489   1.154  0.00  0.00    -0.776 OA
HETATM   41  H   UNK N   1      21.363  21.099   0.468  0.00  0.00     0.167 HD
ENDBRANCH  38  40
ENDBRANCH  37  38
ENDBRANCH  36  37
ENDBRANCH  15  36
BRANCH  13  42
HETATM   42  C   UNK N   1      24.231  13.537   4.844  0.00  0.00    -0.001 C 
HETATM   43  C   UNK N   1      24.061  14.212   5.979  0.00  0.00     0.012 C 
ENDBRANCH  13  42
BRANCH  22  44
HETATM   44  C   UNK N   1      25.419  10.871   1.533  0.00  0.00    -0.026 C 
HETATM   45  C   UNK N   1      25.800   9.572   1.904  0.00  0.00     0.012 C 
HETATM   46  C   UNK N   1      25.110   8.520   1.365  0.00  0.00     0.001 C 
HETATM   47  C   UNK N   1      24.145   8.781   0.390  0.00  0.00     0.000 C 
HETATM   48  C   UNK N   1      24.093  10.033  -0.226  0.00  0.00     0.001 C 
HETATM   49  C   UNK N   1      24.805  11.079   0.311  0.00  0.00     0.012 C 
ENDBRANCH  22  44
BRANCH  12  50
HETATM   50  C   UNK N   1      20.727  11.899   0.837  0.00  0.00    -0.025 C 
HETATM   51  C   UNK N   1      19.417  11.993   0.623  0.00  0.00     0.007 C 
ENDBRANCH  12  50
TORSDOF 11
ENDMDL
MODEL 4
REMARK VINA RESULT:      -7.5      4.197      8.412
REMARK  11 active torsions:
REMARK  status: ('A' for Active; 'I' for Inactive)
REMARK    1  A    between atoms: C_26  and  C_7 
REMARK    2  A    between atoms: C_27  and  C_8 
REMARK    3  A    between atoms: C_16  and  C_14 
REMARK    4  A    between atoms: C_28  and  C_14 
REMARK    5  A    between atoms: C_17  and  C_15 
REMARK    6  A    between atoms: C_29  and  C_15 
REMARK    7  A    between atoms: C_36  and  C_16 
REMARK    8  A    between atoms: C_37  and  C_17 
REMARK    9  A    between atoms: C_38  and  C_25 
REMARK   10  A    between atoms: O_46  and  C_36 
REMARK   11  A    between atoms: O_48  and  C_37 
ROOT
HETATM    1  C   UNK N   1      28.779  13.778   2.440  0.00  0.00     0.046 A 
HETATM    2  C   UNK N   1      32.652  13.656   5.606  0.00  0.00     0.051 C 
HETATM    3  C   UNK N   1      24.664  19.328   4.086  0.00  0.00     0.051 C 
HETATM    4  C   UNK N   1      22.252  12.363   3.335  0.00  0.00     0.017 C 
HETATM    5  C   UNK N   1      30.068  12.469   4.587  0.00  0.00     0.031 C 
HETATM    6  C   UNK N   1      24.565  16.493   3.161  0.00  0.00     0.060 C 
HETATM    7  C   UNK N   1      29.219  17.184   4.614  0.00  0.00     0.064 C 
HETATM    8  C   UNK N   1      28.345  12.922   3.850  0.00  0.00    -0.053 A 
HETATM    9  C   UNK N   1      31.421  14.466   5.316  0.00  0.00    -0.025 A 
HETATM   10  C   UNK N   1      25.820  18.379   4.066  0.00  0.00    -0.025 A 
HETATM   11  C   UNK N   1      23.385  13.340   3.244  0.00  0.00     0.048 C 
HETATM   12  C   UNK N   1      23.100  14.708   2.680  0.00  0.00     0.069 C 
HETATM   13  C   UNK N   1      27.047  12.823   4.755  0.00  0.00    -0.031 A 
HETATM   14  C   UNK N   1      31.164  15.877   5.167  0.00  0.00    -0.021 A 
HETATM   15  C   UNK N   1      27.116  18.585   4.472  0.00  0.00    -0.021 A 
HETATM   16  C   UNK N   1      30.277  13.870   4.890  0.00  0.00     0.062 A 
HETATM   17  C   UNK N   1      25.758  17.083   3.663  0.00  0.00     0.066 A 
HETATM   18  C   UNK N   1      28.810  11.914   3.797  0.00  0.00     0.130 A 
HETATM   19  C   UNK N   1      24.464  15.266   2.741  0.00  0.00     0.045 C 
HETATM   20  C   UNK N   1      29.858  16.019   4.786  0.00  0.00     0.066 A 
HETATM   21  C   UNK N   1      27.791  17.386   4.297  0.00  0.00     0.066 A 
HETATM   22  C   UNK N   1      25.344  11.906   3.281  0.00  0.00     0.001 C 
HETATM   23  C   UNK N   1      24.799  13.050   2.859  0.00  0.00     0.049 C 
HETATM   24  C   UNK N   1      26.582  11.900   4.049  0.00  0.00     0.144 C 
HETATM   25 Fe   UNK N   1      27.268  14.486   3.665  0.00  0.00     0.000 Fe
HETATM   26  N   UNK N   1      29.330  14.853   4.563  0.00  0.00    -0.248 N 
HETATM   27  N   UNK N   1      26.929  16.450   3.869  0.00  0.00    -0.248 N 
HETATM   28  N   UNK N   1      27.596  11.852   3.365  0.00  0.00    -0.222 N 
HETATM   29  N   UNK N   1      25.455  14.278   2.878  0.00  0.00    -0.256 N 
ENDROOT
BRANCH  14  30
HETATM   30  C   UNK N   1      31.924  17.167   5.187  0.00  0.00     0.052 C 
BRANCH  30  31
HETATM   31  C   UNK N   1      33.025  17.437   4.247  0.00  0.00     0.115 C 
BRANCH  31  32
HETATM   32  C   UNK N   1      32.776  16.801   2.953  0.00  0.00     0.139 C 
HETATM   33  O   UNK N   1      33.486  15.894   2.544  0.00  0.00    -0.650 OA
BRANCH  32  34
HETATM   34  O   UNK N   1      31.817  17.323   2.175  0.00  0.00    -0.776 OA
HETATM   35  H   UNK N   1      31.117  17.923   2.344  0.00  0.00     0.167 HD
ENDBRANCH  32  34
ENDBRANCH  31  32
ENDBRANCH  30  31
ENDBRANCH  14  30
BRANCH  15  36
HETATM   36  C   UNK N   1      27.670  19.831   5.057  0.00  0.00     0.052 C 
BRANCH  36  37
HETATM   37  C   UNK N   1      27.461  19.887   6.559  0.00  0.00     0.115 C 
BRANCH  37  38
HETATM   38  C   UNK N   1      26.555  20.992   7.000  0.00  0.00     0.139 C 
HETATM   39  O   UNK N   1      26.368  21.945   6.263  0.00  0.00    -0.650 OA
BRANCH  38  40
HETATM   40  O   UNK N   1      25.910  20.918   8.184  0.00  0.00    -0.776 OA
HETATM   41  H   UNK N   1      26.225  20.852   9.064  0.00  0.00     0.167 HD
ENDBRANCH  38  40
ENDBRANCH  37  38
ENDBRANCH  36  37
ENDBRANCH  15  36
BRANCH  13  42
HETATM   42  C   UNK N   1      26.073  13.730   5.478  0.00  0.00    -0.001 C 
HETATM   43  C   UNK N   1      25.485  13.429   6.633  0.00  0.00     0.012 C 
ENDBRANCH  13  42
BRANCH  22  44
HETATM   44  C   UNK N   1      25.336  10.869   2.198  0.00  0.00    -0.026 C 
HETATM   45  C   UNK N   1      24.621   9.704   2.522  0.00  0.00     0.012 C 
HETATM   46  C   UNK N   1      23.456   9.457   1.846  0.00  0.00     0.001 C 
HETATM   47  C   UNK N   1      23.096  10.304   0.797  0.00  0.00     0.000 C 
HETATM   48  C   UNK N   1      24.033  11.191   0.261  0.00  0.00     0.001 C 
HETATM   49  C   UNK N   1      25.209  11.420   0.937  0.00  0.00     0.012 C 
ENDBRANCH  22  44
BRANCH  12  50
HETATM   50  C   UNK N   1      22.503  14.709   1.317  0.00  0.00    -0.025 C 
HETATM   51  C   UNK N   1      21.255  15.153   1.194  0.00  0.00     0.007 C 
ENDBRANCH  12  50
TORSDOF 11
ENDMDL
MODEL 5
REMARK VINA RESULT:      -7.5      2.799      5.558
REMARK  11 active torsions:
REMARK  status: ('A' for Active; 'I' for Inactive)
REMARK    1  A    between atoms: C_26  and  C_7 
REMARK    2  A    between atoms: C_27  and  C_8 
REMARK    3  A    between atoms: C_16  and  C_14 
REMARK    4  A    between atoms: C_28  and  C_14 
REMARK    5  A    between atoms: C_17  and  C_15 
REMARK    6  A    between atoms: C_29  and  C_15 
REMARK    7  A    between atoms: C_36  and  C_16 
REMARK    8  A    between atoms: C_37  and  C_17 
REMARK    9  A    between atoms: C_38  and  C_25 
REMARK   10  A    between atoms: O_46  and  C_36 
REMARK   11  A    between atoms: O_48  and  C_37 
ROOT
HETATM    1  C   UNK N   1      26.236  17.123   3.007  0.00  0.00     0.046 A 
HETATM    2  C   UNK N   1      21.409  17.550   4.256  0.00  0.00     0.051 C 
HETATM    3  C   UNK N   1      27.454  10.462   0.864  0.00  0.00     0.051 C 
HETATM    4  C   UNK N   1      31.366  14.004   6.065  0.00  0.00     0.017 C 
HETATM    5  C   UNK N   1      24.320  17.470   5.056  0.00  0.00     0.031 C 
HETATM    6  C   UNK N   1      28.664  12.722   2.392  0.00  0.00     0.060 C 
HETATM    7  C   UNK N   1      23.947  13.997   1.778  0.00  0.00     0.064 C 
HETATM    8  C   UNK N   1      26.017  16.657   4.633  0.00  0.00    -0.053 A 
HETATM    9  C   UNK N   1      22.385  16.529   3.745  0.00  0.00    -0.025 A 
HETATM   10  C   UNK N   1      26.737  11.701   1.297  0.00  0.00    -0.025 A 
HETATM   11  C   UNK N   1      30.278  14.044   5.035  0.00  0.00     0.048 C 
HETATM   12  C   UNK N   1      30.509  13.331   3.729  0.00  0.00     0.069 C 
HETATM   13  C   UNK N   1      26.604  15.520   5.570  0.00  0.00    -0.031 A 
HETATM   14  C   UNK N   1      22.361  15.574   2.665  0.00  0.00    -0.021 A 
HETATM   15  C   UNK N   1      25.420  12.048   1.117  0.00  0.00    -0.021 A 
HETATM   16  C   UNK N   1      23.676  16.525   4.167  0.00  0.00     0.062 A 
HETATM   17  C   UNK N   1      27.293  12.715   2.012  0.00  0.00     0.066 A 
HETATM   18  C   UNK N   1      25.892  17.579   5.241  0.00  0.00     0.130 A 
HETATM   19  C   UNK N   1      29.245  13.679   3.053  0.00  0.00     0.045 C 
HETATM   20  C   UNK N   1      23.595  14.989   2.606  0.00  0.00     0.066 A 
HETATM   21  C   UNK N   1      25.233  13.271   1.742  0.00  0.00     0.066 A 
HETATM   22  C   UNK N   1      28.987  15.994   5.685  0.00  0.00     0.001 C 
HETATM   23  C   UNK N   1      29.402  15.204   4.692  0.00  0.00     0.049 C 
HETATM   24  C   UNK N   1      27.568  16.245   5.905  0.00  0.00     0.144 C 
HETATM   25 Fe   UNK N   1      26.644  15.182   3.598  0.00  0.00     0.000 Fe
HETATM   26  N   UNK N   1      24.403  15.568   3.443  0.00  0.00    -0.248 N 
HETATM   27  N   UNK N   1      26.372  13.637   2.351  0.00  0.00    -0.248 N 
HETATM   28  N   UNK N   1      27.125  17.200   5.281  0.00  0.00    -0.222 N 
HETATM   29  N   UNK N   1      28.587  14.768   3.651  0.00  0.00    -0.256 N 
ENDROOT
BRANCH  14  30
HETATM   30  C   UNK N   1      21.446  15.154   1.556  0.00  0.00     0.052 C 
BRANCH  30  31
HETATM   31  C   UNK N   1      20.030  15.555   1.519  0.00  0.00     0.115 C 
BRANCH  31  32
HETATM   32  C   UNK N   1      19.870  16.848   0.854  0.00  0.00     0.139 C 
HETATM   33  O   UNK N   1      20.409  17.082  -0.218  0.00  0.00    -0.650 OA
BRANCH  32  34
HETATM   34  O   UNK N   1      19.209  17.811   1.512  0.00  0.00    -0.776 OA
HETATM   35  H   UNK N   1      18.369  17.837   1.925  0.00  0.00     0.167 HD
ENDBRANCH  32  34
ENDBRANCH  31  32
ENDBRANCH  30  31
ENDBRANCH  14  30
BRANCH  15  36
HETATM   36  C   UNK N   1      24.377  11.232   0.446  0.00  0.00     0.052 C 
BRANCH  36  37
HETATM   37  C   UNK N   1      23.843  10.143   1.358  0.00  0.00     0.115 C 
BRANCH  37  38
HETATM   38  C   UNK N   1      22.739  10.598   2.257  0.00  0.00     0.139 C 
HETATM   39  O   UNK N   1      22.828  10.415   3.459  0.00  0.00    -0.650 OA
BRANCH  38  40
HETATM   40  O   UNK N   1      21.668  11.247   1.751  0.00  0.00    -0.776 OA
HETATM   41  H   UNK N   1      21.172  11.118   0.966  0.00  0.00     0.167 HD
ENDBRANCH  38  40
ENDBRANCH  37  38
ENDBRANCH  36  37
ENDBRANCH  15  36
BRANCH  13  42
HETATM   42  C   UNK N   1      26.803  14.018   5.575  0.00  0.00    -0.001 C 
HETATM   43  C   UNK N   1      25.830  13.134   5.783  0.00  0.00     0.012 C 
ENDBRANCH  13  42
BRANCH  22  44
HETATM   44  C   UNK N   1      29.808  17.246   5.764  0.00  0.00    -0.026 C 
HETATM   45  C   UNK N   1      30.465  17.427   6.991  0.00  0.00     0.012 C 
HETATM   46  C   UNK N   1      31.830  17.326   7.010  0.00  0.00     0.001 C 
HETATM   47  C   UNK N   1      32.508  17.166   5.800  0.00  0.00     0.000 C 
HETATM   48  C   UNK N   1      31.847  17.398   4.592  0.00  0.00     0.001 C 
HETATM   49  C   UNK N   1      30.477  17.517   4.585  0.00  0.00     0.012 C 
ENDBRANCH  22  44
BRANCH  12  50
HETATM   50  C   UNK N   1      31.730  13.757   2.992  0.00  0.00    -0.025 C 
HETATM   51  C   UNK N   1      32.443  12.812   2.385  0.00  0.00     0.007 C 
ENDBRANCH  12  50
TORSDOF 11
ENDMDL
MODEL 6
REMARK VINA RESULT:      -7.3      4.278      7.370
REMARK  11 active torsions:
REMARK  status: ('A' for Active; 'I' for Inactive)
REMARK    1  A    between atoms: C_26  and  C_7 
REMARK    2  A    between atoms: C_27  and  C_8 
REMARK    3  A    between atoms: C_16  and  C_14 
REMARK    4  A    between atoms: C_28  and  C_14 
REMARK    5  A    between atoms: C_17  and  C_15 
REMARK    6  A    between atoms: C_29  and  C_15 
REMARK    7  A    between atoms: C_36  and  C_16 
REMARK    8  A    between atoms: C_37  and  C_17 
REMARK    9  A    between atoms: C_38  and  C_25 
REMARK   10  A    between atoms: O_46  and  C_36 
REMARK   11  A    between atoms: O_48  and  C_37 
ROOT
HETATM    1  C   UNK N   1      28.847  13.463   4.563  0.00  0.00     0.046 A 
HETATM    2  C   UNK N   1      25.600  15.219   1.184  0.00  0.00     0.051 C 
HETATM    3  C   UNK N   1      30.494  18.696   9.074  0.00  0.00     0.051 C 
HETATM    4  C   UNK N   1      35.439  14.580   5.400  0.00  0.00     0.017 C 
HETATM    5  C   UNK N   1      28.359  14.204   1.879  0.00  0.00     0.031 C 
HETATM    6  C   UNK N   1      31.655  16.361   7.623  0.00  0.00     0.060 C 
HETATM    7  C   UNK N   1      27.239  17.061   5.558  0.00  0.00     0.064 C 
HETATM    8  C   UNK N   1      29.693  14.187   3.271  0.00  0.00    -0.053 A 
HETATM    9  C   UNK N   1      26.376  15.673   2.387  0.00  0.00    -0.025 A 
HETATM   10  C   UNK N   1      29.819  17.927   7.982  0.00  0.00    -0.025 A 
HETATM   11  C   UNK N   1      34.005  14.854   5.741  0.00  0.00     0.048 C 
HETATM   12  C   UNK N   1      33.673  15.231   7.161  0.00  0.00     0.069 C 
HETATM   13  C   UNK N   1      30.985  15.097   3.137  0.00  0.00    -0.031 A 
HETATM   14  C   UNK N   1      26.032  16.403   3.582  0.00  0.00    -0.021 A 
HETATM   15  C   UNK N   1      28.584  18.131   7.416  0.00  0.00    -0.021 A 
HETATM   16  C   UNK N   1      27.627  15.204   2.629  0.00  0.00     0.062 A 
HETATM   17  C   UNK N   1      30.366  16.879   7.313  0.00  0.00     0.066 A 
HETATM   18  C   UNK N   1      29.670  13.486   2.408  0.00  0.00     0.130 A 
HETATM   19  C   UNK N   1      32.208  15.345   7.028  0.00  0.00     0.045 C 
HETATM   20  C   UNK N   1      27.138  16.419   4.387  0.00  0.00     0.066 A 
HETATM   21  C   UNK N   1      28.437  17.185   6.413  0.00  0.00     0.066 A 
HETATM   22  C   UNK N   1      32.798  13.708   3.974  0.00  0.00     0.001 C 
HETATM   23  C   UNK N   1      32.803  14.120   5.245  0.00  0.00     0.049 C 
HETATM   24  C   UNK N   1      31.728  14.092   3.062  0.00  0.00     0.144 C 
HETATM   25 Fe   UNK N   1      30.033  15.126   4.896  0.00  0.00     0.000 Fe
HETATM   26  N   UNK N   1      28.072  15.675   3.875  0.00  0.00    -0.248 N 
HETATM   27  N   UNK N   1      29.568  16.468   6.309  0.00  0.00    -0.248 N 
HETATM   28  N   UNK N   1      30.771  13.329   3.063  0.00  0.00    -0.222 N 
HETATM   29  N   UNK N   1      31.712  14.711   5.876  0.00  0.00    -0.256 N 
ENDROOT
BRANCH  14  30
HETATM   30  C   UNK N   1      24.821  17.012   4.219  0.00  0.00     0.052 C 
BRANCH  30  31
HETATM   31  C   UNK N   1      23.715  16.188   4.735  0.00  0.00     0.115 C 
BRANCH  31  32
HETATM   32  C   UNK N   1      22.898  16.945   5.684  0.00  0.00     0.139 C 
HETATM   33  O   UNK N   1      22.896  18.167   5.687  0.00  0.00    -0.650 OA
BRANCH  32  34
HETATM   34  O   UNK N   1      22.240  16.258   6.629  0.00  0.00    -0.776 OA
HETATM   35  H   UNK N   1      21.428  16.404   7.072  0.00  0.00     0.167 HD
ENDBRANCH  32  34
ENDBRANCH  31  32
ENDBRANCH  30  31
ENDBRANCH  14  30
BRANCH  15  36
HETATM   36  C   UNK N   1      27.621  19.206   7.762  0.00  0.00     0.052 C 
BRANCH  36  37
HETATM   37  C   UNK N   1      27.732  20.385   6.812  0.00  0.00     0.115 C 
BRANCH  37  38
HETATM   38  C   UNK N   1      26.638  20.443   5.795  0.00  0.00     0.139 C 
HETATM   39  O   UNK N   1      26.859  20.938   4.703  0.00  0.00    -0.650 OA
BRANCH  38  40
HETATM   40  O   UNK N   1      25.425  19.914   6.062  0.00  0.00    -0.776 OA
HETATM   41  H   UNK N   1      25.108  19.033   6.036  0.00  0.00     0.167 HD
ENDBRANCH  38  40
ENDBRANCH  37  38
ENDBRANCH  36  37
ENDBRANCH  15  36
BRANCH  13  42
HETATM   42  C   UNK N   1      31.564  16.371   3.716  0.00  0.00    -0.001 C 
HETATM   43  C   UNK N   1      32.384  17.187   3.058  0.00  0.00     0.012 C 
ENDBRANCH  13  42
BRANCH  22  44
HETATM   44  C   UNK N   1      33.141  12.251   3.874  0.00  0.00    -0.026 C 
HETATM   45  C   UNK N   1      34.242  11.975   3.048  0.00  0.00     0.012 C 
HETATM   46  C   UNK N   1      35.390  11.520   3.638  0.00  0.00     0.001 C 
HETATM   47  C   UNK N   1      35.377  11.244   5.007  0.00  0.00     0.000 C 
HETATM   48  C   UNK N   1      34.163  11.150   5.690  0.00  0.00     0.001 C 
HETATM   49  C   UNK N   1      33.011  11.591   5.082  0.00  0.00     0.012 C 
ENDBRANCH  22  44
BRANCH  12  50
HETATM   50  C   UNK N   1      34.115  14.250   8.189  0.00  0.00    -0.025 C 
HETATM   51  C   UNK N   1      33.197  13.427   8.687  0.00  0.00     0.007 C 
ENDBRANCH  12  50
TORSDOF 11
ENDMDL
MODEL 7
REMARK VINA RESULT:      -7.3      4.539      7.204
REMARK  11 active torsions:
REMARK  status: ('A' for Active; 'I' for Inactive)
REMARK    1  A    between atoms: C_26  and  C_7 
REMARK    2  A    between atoms: C_27  and  C_8 
REMARK    3  A    between atoms: C_16  and  C_14 
REMARK    4  A    between atoms: C_28  and  C_14 
REMARK    5  A    between atoms: C_17  and  C_15 
REMARK    6  A    between atoms: C_29  and  C_15 
REMARK    7  A    between atoms: C_36  and  C_16 
REMARK    8  A    between atoms: C_37  and  C_17 
REMARK    9  A    between atoms: C_38  and  C_25 
REMARK   10  A    between atoms: O_46  and  C_36 
REMARK   11  A    between atoms: O_48  and  C_37 
ROOT
HETATM    1  C   UNK N   1      31.446  12.493   4.961  0.00  0.00     0.046 A 
HETATM    2  C   UNK N   1      32.554  10.899   0.348  0.00  0.00     0.051 C 
HETATM    3  C   UNK N   1      26.553  17.620   4.487  0.00  0.00     0.051 C 
HETATM    4  C   UNK N   1      32.953  18.222   8.172  0.00  0.00     0.017 C 
HETATM    5  C   UNK N   1      33.348  12.352   2.875  0.00  0.00     0.031 C 
HETATM    6  C   UNK N   1      28.992  16.800   5.999  0.00  0.00     0.060 C 
HETATM    7  C   UNK N   1      28.834  13.769   2.120  0.00  0.00     0.064 C 
HETATM    8  C   UNK N   1      32.670  13.473   4.290  0.00  0.00    -0.053 A 
HETATM    9  C   UNK N   1      31.674  11.896   1.047  0.00  0.00    -0.025 A 
HETATM   10  C   UNK N   1      27.475  16.502   4.112  0.00  0.00    -0.025 A 
HETATM   11  C   UNK N   1      32.011  17.369   7.377  0.00  0.00     0.048 C 
HETATM   12  C   UNK N   1      30.534  17.511   7.636  0.00  0.00     0.069 C 
HETATM   13  C   UNK N   1      33.009  15.022   4.301  0.00  0.00    -0.031 A 
HETATM   14  C   UNK N   1      30.277  12.241   0.948  0.00  0.00    -0.021 A 
HETATM   15  C   UNK N   1      27.418  15.661   3.027  0.00  0.00    -0.021 A 
HETATM   16  C   UNK N   1      32.100  12.542   2.163  0.00  0.00     0.062 A 
HETATM   17  C   UNK N   1      28.595  16.151   4.796  0.00  0.00     0.066 A 
HETATM   18  C   UNK N   1      33.626  12.908   4.334  0.00  0.00     0.130 A 
HETATM   19  C   UNK N   1      30.040  16.482   6.701  0.00  0.00     0.045 C 
HETATM   20  C   UNK N   1      30.009  13.154   1.930  0.00  0.00     0.066 A 
HETATM   21  C   UNK N   1      28.524  14.828   3.102  0.00  0.00     0.066 A 
HETATM   22  C   UNK N   1      33.425  15.538   6.642  0.00  0.00     0.001 C 
HETATM   23  C   UNK N   1      32.199  15.940   6.985  0.00  0.00     0.049 C 
HETATM   24  C   UNK N   1      33.677  14.905   5.354  0.00  0.00     0.144 C 
HETATM   25 Fe   UNK N   1      31.103  14.507   4.629  0.00  0.00     0.000 Fe
HETATM   26  N   UNK N   1      31.049  13.308   2.692  0.00  0.00    -0.248 N 
HETATM   27  N   UNK N   1      29.279  15.186   4.153  0.00  0.00    -0.248 N 
HETATM   28  N   UNK N   1      33.539  13.688   5.358  0.00  0.00    -0.222 N 
HETATM   29  N   UNK N   1      31.042  15.580   6.301  0.00  0.00    -0.256 N 
ENDROOT
BRANCH  14  30
HETATM   30  C   UNK N   1      29.062  11.804   0.190  0.00  0.00     0.052 C 
BRANCH  30  31
HETATM   31  C   UNK N   1      28.465  10.471   0.376  0.00  0.00     0.115 C 
BRANCH  31  32
HETATM   32  C   UNK N   1      27.308  10.536   1.270  0.00  0.00     0.139 C 
HETATM   33  O   UNK N   1      27.446  10.630   2.481  0.00  0.00    -0.650 OA
BRANCH  32  34
HETATM   34  O   UNK N   1      26.092  10.372   0.730  0.00  0.00    -0.776 OA
HETATM   35  H   UNK N   1      25.737   9.733   0.144  0.00  0.00     0.167 HD
ENDBRANCH  32  34
ENDBRANCH  31  32
ENDBRANCH  30  31
ENDBRANCH  14  30
BRANCH  15  36
HETATM   36  C   UNK N   1      26.407  15.688   1.941  0.00  0.00     0.052 C 
BRANCH  36  37
HETATM   37  C   UNK N   1      25.106  15.032   2.369  0.00  0.00     0.115 C 
BRANCH  37  38
HETATM   38  C   UNK N   1      25.115  13.542   2.249  0.00  0.00     0.139 C 
HETATM   39  O   UNK N   1      24.819  13.024   1.186  0.00  0.00    -0.650 OA
BRANCH  38  40
HETATM   40  O   UNK N   1      25.491  12.773   3.293  0.00  0.00    -0.776 OA
HETATM   41  H   UNK N   1      24.997  12.264   3.904  0.00  0.00     0.167 HD
ENDBRANCH  38  40
ENDBRANCH  37  38
ENDBRANCH  36  37
ENDBRANCH  15  36
BRANCH  13  42
HETATM   42  C   UNK N   1      32.337  16.352   4.027  0.00  0.00    -0.001 C 
HETATM   43  C   UNK N   1      32.080  16.824   2.809  0.00  0.00     0.012 C 
ENDBRANCH  13  42
BRANCH  22  44
HETATM   44  C   UNK N   1      34.100  14.822   7.773  0.00  0.00    -0.026 C 
HETATM   45  C   UNK N   1      35.295  15.421   8.203  0.00  0.00     0.012 C 
HETATM   46  C   UNK N   1      35.312  16.004   9.442  0.00  0.00     0.001 C 
HETATM   47  C   UNK N   1      34.188  15.874  10.260  0.00  0.00     0.000 C 
HETATM   48  C   UNK N   1      33.200  14.937   9.949  0.00  0.00     0.001 C 
HETATM   49  C   UNK N   1      33.201  14.343   8.709  0.00  0.00     0.012 C 
ENDBRANCH  22  44
BRANCH  12  50
HETATM   50  C   UNK N   1      30.123  17.294   9.050  0.00  0.00    -0.025 C 
HETATM   51  C   UNK N   1      29.487  18.288   9.665  0.00  0.00     0.007 C 
ENDBRANCH  12  50
TORSDOF 11
ENDMDL
MODEL 8
REMARK VINA RESULT:      -7.1     13.819     17.855
REMARK  11 active torsions:
REMARK  status: ('A' for Active; 'I' for Inactive)
REMARK    1  A    between atoms: C_26  and  C_7 
REMARK    2  A    between atoms: C_27  and  C_8 
REMARK    3  A    between atoms: C_16  and  C_14 
REMARK    4  A    between atoms: C_28  and  C_14 
REMARK    5  A    between atoms: C_17  and  C_15 
REMARK    6  A    between atoms: C_29  and  C_15 
REMARK    7  A    between atoms: C_36  and  C_16 
REMARK    8  A    between atoms: C_37  and  C_17 
REMARK    9  A    between atoms: C_38  and  C_25 
REMARK   10  A    between atoms: O_46  and  C_36 
REMARK   11  A    between atoms: O_48  and  C_37 
ROOT
HETATM    1  C   UNK N   1      34.020  11.595  14.736  0.00  0.00     0.046 A 
HETATM    2  C   UNK N   1      35.137  12.612  19.507  0.00  0.00     0.051 C 
HETATM    3  C   UNK N   1      36.543   5.153  13.129  0.00  0.00     0.051 C 
HETATM    4  C   UNK N   1      37.885  11.305   9.224  0.00  0.00     0.017 C 
HETATM    5  C   UNK N   1      35.534  13.136  16.559  0.00  0.00     0.031 C 
HETATM    6  C   UNK N   1      36.150   7.894  12.015  0.00  0.00     0.060 C 
HETATM    7  C   UNK N   1      35.293   8.360  16.842  0.00  0.00     0.064 C 
HETATM    8  C   UNK N   1      35.578  12.282  14.830  0.00  0.00    -0.053 A 
HETATM    9  C   UNK N   1      35.312  11.526  18.484  0.00  0.00    -0.025 A 
HETATM   10  C   UNK N   1      36.144   6.362  13.914  0.00  0.00    -0.025 A 
HETATM   11  C   UNK N   1      37.173  10.646  10.367  0.00  0.00     0.048 C 
HETATM   12  C   UNK N   1      36.612   9.264  10.152  0.00  0.00     0.069 C 
HETATM   13  C   UNK N   1      36.968  12.031  14.109  0.00  0.00    -0.031 A 
HETATM   14  C   UNK N   1      35.103  10.099  18.494  0.00  0.00    -0.021 A 
HETATM   15  C   UNK N   1      35.904   6.479  15.262  0.00  0.00    -0.021 A 
HETATM   16  C   UNK N   1      35.520  11.825  17.176  0.00  0.00     0.062 A 
HETATM   17  C   UNK N   1      35.989   7.611  13.400  0.00  0.00     0.066 A 
HETATM   18  C   UNK N   1      35.463  13.375  14.993  0.00  0.00     0.130 A 
HETATM   19  C   UNK N   1      35.988   9.065  11.474  0.00  0.00     0.045 C 
HETATM   20  C   UNK N   1      35.321   9.643  17.223  0.00  0.00     0.066 A 
HETATM   21  C   UNK N   1      35.614   7.812  15.508  0.00  0.00     0.066 A 
HETATM   22  C   UNK N   1      36.536  12.525  11.766  0.00  0.00     0.001 C 
HETATM   23  C   UNK N   1      36.247  11.290  11.346  0.00  0.00     0.049 C 
HETATM   24  C   UNK N   1      36.672  12.824  13.186  0.00  0.00     0.144 C 
HETATM   25 Fe   UNK N   1      35.677  10.503  14.150  0.00  0.00     0.000 Fe
HETATM   26  N   UNK N   1      35.515  10.644  16.418  0.00  0.00    -0.248 N 
HETATM   27  N   UNK N   1      35.741   8.512  14.369  0.00  0.00    -0.248 N 
HETATM   28  N   UNK N   1      35.624  13.141  13.734  0.00  0.00    -0.222 N 
HETATM   29  N   UNK N   1      35.807  10.267  12.181  0.00  0.00    -0.256 N 
ENDROOT
BRANCH  14  30
HETATM   30  C   UNK N   1      34.610   9.041  19.432  0.00  0.00     0.052 C 
BRANCH  30  31
HETATM   31  C   UNK N   1      33.449   9.259  20.312  0.00  0.00     0.115 C 
BRANCH  31  32
HETATM   32  C   UNK N   1      32.329   8.402  19.922  0.00  0.00     0.139 C 
HETATM   33  O   UNK N   1      32.512   7.266  19.509  0.00  0.00    -0.650 OA
BRANCH  32  34
HETATM   34  O   UNK N   1      31.102   8.940  19.921  0.00  0.00    -0.776 OA
HETATM   35  H   UNK N   1      30.443   9.020  19.259  0.00  0.00     0.167 HD
ENDBRANCH  32  34
ENDBRANCH  31  32
ENDBRANCH  30  31
ENDBRANCH  14  30
BRANCH  15  36
HETATM   36  C   UNK N   1      36.009   5.399  16.274  0.00  0.00     0.052 C 
BRANCH  36  37
HETATM   37  C   UNK N   1      34.773   4.519  16.286  0.00  0.00     0.115 C 
BRANCH  37  38
HETATM   38  C   UNK N   1      33.869   4.767  17.452  0.00  0.00     0.139 C 
HETATM   39  O   UNK N   1      32.706   4.405  17.397  0.00  0.00    -0.650 OA
BRANCH  38  40
HETATM   40  O   UNK N   1      34.344   5.346  18.575  0.00  0.00    -0.776 OA
HETATM   41  H   UNK N   1      33.911   5.763  19.294  0.00  0.00     0.167 HD
ENDBRANCH  38  40
ENDBRANCH  37  38
ENDBRANCH  36  37
ENDBRANCH  15  36
BRANCH  13  42
HETATM   42  C   UNK N   1      37.915  10.892  13.795  0.00  0.00    -0.001 C 
HETATM   43  C   UNK N   1      38.625  10.235  14.709  0.00  0.00     0.012 C 
ENDBRANCH  13  42
BRANCH  22  44
HETATM   44  C   UNK N   1      35.719  13.551  11.040  0.00  0.00    -0.026 C 
HETATM   45  C   UNK N   1      36.480  14.526  10.374  0.00  0.00     0.012 C 
HETATM   46  C   UNK N   1      36.472  14.522   9.005  0.00  0.00     0.001 C 
HETATM   47  C   UNK N   1      35.625  13.633   8.341  0.00  0.00     0.000 C 
HETATM   48  C   UNK N   1      34.608  12.981   9.042  0.00  0.00     0.001 C 
HETATM   49  C   UNK N   1      34.613  13.005  10.417  0.00  0.00     0.012 C 
ENDBRANCH  22  44
BRANCH  12  50
HETATM   50  C   UNK N   1      35.666   9.144   9.009  0.00  0.00    -0.025 C 
HETATM   51  C   UNK N   1      34.365   9.167   9.284  0.00  0.00     0.007 C 
ENDBRANCH  12  50
TORSDOF 11
ENDMDL
MODEL 9
REMARK VINA RESULT:      -7.1      4.783      7.389
REMARK  11 active torsions:
REMARK  status: ('A' for Active; 'I' for Inactive)
REMARK    1  A    between atoms: C_26  and  C_7 
REMARK    2  A    between atoms: C_27  and  C_8 
REMARK    3  A    between atoms: C_16  and  C_14 
REMARK    4  A    between atoms: C_28  and  C_14 
REMARK    5  A    between atoms: C_17  and  C_15 
REMARK    6  A    between atoms: C_29  and  C_15 
REMARK    7  A    between atoms: C_36  and  C_16 
REMARK    8  A    between atoms: C_37  and  C_17 
REMARK    9  A    between atoms: C_38  and  C_25 
REMARK   10  A    between atoms: O_46  and  C_36 
REMARK   11  A    between atoms: O_48  and  C_37 
ROOT
HETATM    1  C   UNK N   1      23.051  13.314   5.777  0.00  0.00     0.046 A 
HETATM    2  C   UNK N   1      20.390  14.358   9.884  0.00  0.00     0.051 C 
HETATM    3  C   UNK N   1      20.199  16.780   0.272  0.00  0.00     0.051 C 
HETATM    4  C   UNK N   1      21.630   9.511   0.399  0.00  0.00     0.017 C 
HETATM    5  C   UNK N   1      21.265  12.393   7.764  0.00  0.00     0.031 C 
HETATM    6  C   UNK N   1      21.490  14.202   1.042  0.00  0.00     0.060 C 
HETATM    7  C   UNK N   1      20.490  16.436   5.314  0.00  0.00     0.064 C 
HETATM    8  C   UNK N   1      21.733  12.239   5.899  0.00  0.00    -0.053 A 
HETATM    9  C   UNK N   1      20.424  14.677   8.417  0.00  0.00    -0.025 A 
HETATM   10  C   UNK N   1      20.480  16.332   1.671  0.00  0.00    -0.025 A 
HETATM   11  C   UNK N   1      21.711  10.842   1.084  0.00  0.00     0.048 C 
HETATM   12  C   UNK N   1      22.045  12.051   0.249  0.00  0.00     0.069 C 
HETATM   13  C   UNK N   1      20.709  11.587   4.879  0.00  0.00    -0.031 A 
HETATM   14  C   UNK N   1      20.346  15.900   7.656  0.00  0.00    -0.021 A 
HETATM   15  C   UNK N   1      20.199  16.966   2.857  0.00  0.00    -0.021 A 
HETATM   16  C   UNK N   1      20.797  13.740   7.507  0.00  0.00     0.062 A 
HETATM   17  C   UNK N   1      21.049  15.145   2.011  0.00  0.00     0.066 A 
HETATM   18  C   UNK N   1      21.977  11.483   6.677  0.00  0.00     0.130 A 
HETATM   19  C   UNK N   1      22.062  13.067   1.318  0.00  0.00     0.045 C 
HETATM   20  C   UNK N   1      20.555  15.581   6.343  0.00  0.00     0.066 A 
HETATM   21  C   UNK N   1      20.613  16.123   3.876  0.00  0.00     0.066 A 
HETATM   22  C   UNK N   1      22.095  10.237   3.403  0.00  0.00     0.001 C 
HETATM   23  C   UNK N   1      22.290  11.131   2.430  0.00  0.00     0.049 C 
HETATM   24  C   UNK N   1      21.479  10.623   4.667  0.00  0.00     0.144 C 
HETATM   25 Fe   UNK N   1      21.577  13.302   4.324  0.00  0.00     0.000 Fe
HETATM   26  N   UNK N   1      20.875  14.326   6.234  0.00  0.00    -0.248 N 
HETATM   27  N   UNK N   1      21.067  14.975   3.347  0.00  0.00    -0.248 N 
HETATM   28  N   UNK N   1      22.274  11.014   5.513  0.00  0.00    -0.222 N 
HETATM   29  N   UNK N   1      22.176  12.508   2.603  0.00  0.00    -0.256 N 
ENDROOT
BRANCH  14  30
HETATM   30  C   UNK N   1      20.235  17.372   7.903  0.00  0.00     0.052 C 
BRANCH  30  31
HETATM   31  C   UNK N   1      19.570  17.914   9.100  0.00  0.00     0.115 C 
BRANCH  31  32
HETATM   32  C   UNK N   1      18.147  17.570   9.109  0.00  0.00     0.139 C 
HETATM   33  O   UNK N   1      17.676  16.796   8.288  0.00  0.00    -0.650 OA
BRANCH  32  34
HETATM   34  O   UNK N   1      17.353  18.220   9.970  0.00  0.00    -0.776 OA
HETATM   35  H   UNK N   1      17.468  18.999  10.478  0.00  0.00     0.167 HD
ENDBRANCH  32  34
ENDBRANCH  31  32
ENDBRANCH  30  31
ENDBRANCH  14  30
BRANCH  15  36
HETATM   36  C   UNK N   1      19.514  18.273   3.017  0.00  0.00     0.052 C 
BRANCH  36  37
HETATM   37  C   UNK N   1      20.469  19.353   3.492  0.00  0.00     0.115 C 
BRANCH  37  38
HETATM   38  C   UNK N   1      20.873  20.312   2.418  0.00  0.00     0.139 C 
HETATM   39  O   UNK N   1      20.672  20.025   1.250  0.00  0.00    -0.650 OA
BRANCH  38  40
HETATM   40  O   UNK N   1      21.415  21.507   2.736  0.00  0.00    -0.776 OA
HETATM   41  H   UNK N   1      21.534  21.941   3.558  0.00  0.00     0.167 HD
ENDBRANCH  38  40
ENDBRANCH  37  38
ENDBRANCH  36  37
ENDBRANCH  15  36
BRANCH  13  42
HETATM   42  C   UNK N   1      19.763  12.002   3.771  0.00  0.00    -0.001 C 
HETATM   43  C   UNK N   1      18.597  12.611   3.972  0.00  0.00     0.012 C 
ENDBRANCH  13  42
BRANCH  22  44
HETATM   44  C   UNK N   1      23.303   9.370   3.596  0.00  0.00    -0.026 C 
HETATM   45  C   UNK N   1      23.037   7.993   3.537  0.00  0.00     0.012 C 
HETATM   46  C   UNK N   1      23.526   7.288   2.470  0.00  0.00     0.001 C 
HETATM   47  C   UNK N   1      24.356   7.943   1.558  0.00  0.00     0.000 C 
HETATM   48  C   UNK N   1      24.909   9.184   1.881  0.00  0.00     0.001 C 
HETATM   49  C   UNK N   1      24.425   9.877   2.966  0.00  0.00     0.012 C 
ENDBRANCH  22  44
BRANCH  12  50
HETATM   50  C   UNK N   1      23.318  11.951  -0.515  0.00  0.00    -0.025 C 
HETATM   51  C   UNK N   1      24.438  12.306   0.109  0.00  0.00     0.007 C 
ENDBRANCH  12  50
TORSDOF 11
ENDMDL
