REMARK  5 active torsions:
REMARK  status: ('A' for Active; 'I' for Inactive)
REMARK    1  A    between atoms: C_2  and  C_3 
REMARK    2  A    between atoms: C_3  and  C_4 
REMARK    3  A    between atoms: C_4  and  B_5 
REMARK    4  A    between atoms: B_5  and  O_6 
REMARK    5  A    between atoms: B_5  and  O_7 
ROOT
HETATM    1  B   UNK N   1       3.255   0.705  -0.000  0.00  0.00     0.490 B 
ENDROOT
BRANCH   1   2
HETATM    2  C   UNK N   1       1.889   1.522   0.000  0.00  0.00     0.021 C 
BRANCH   2   3
HETATM    3  C   UNK N   1       0.719   0.560   0.000  0.00  0.00    -0.005 C 
BRANCH   3   4
HETATM    4  C   UNK N   1      -0.592   1.311  -0.000  0.00  0.00    -0.005 C 
HETATM    5  C   UNK N   1      -1.723   0.304  -0.000  0.00  0.00     0.005 C 
ENDBRANCH   3   4
ENDBRANCH   2   3
ENDBRANCH   1   2
BRANCH   1   6
HETATM    6  O   UNK N   1       4.528   1.415  -0.000  0.00  0.00    -0.438 OA
HETATM    7  H   UNK N   1       5.361   0.918  -0.000  0.00  0.00     0.184 HD
ENDBRANCH   1   6
BRANCH   1   8
HETATM    8  O   UNK N   1       3.243  -0.759   0.000  0.00  0.00    -0.438 OA
HETATM    9  H   UNK N   1       2.399  -1.237   0.000  0.00  0.00     0.184 HD
ENDBRANCH   1   8
TORSDOF 5
