MODEL 1
REMARK VINA RESULT:      -4.7      0.000      0.000
REMARK  8 active torsions:
REMARK  status: ('A' for Active; 'I' for Inactive)
REMARK    1  A    between atoms: C_2  and  O_3 
REMARK    2  A    between atoms: C_2  and  C_8 
REMARK    3  A    between atoms: O_3  and  P_4 
REMARK    4  A    between atoms: P_4  and  O_5 
REMARK    5  A    between atoms: P_4  and  O_6 
REMARK    6  A    between atoms: C_8  and  N_9 
REMARK    7  A    between atoms: C_8  and  C_10 
REMARK    8  A    between atoms: C_10  and  O_11 
ROOT
HETATM    1  C   UNK N   1      32.674  14.999   8.536  0.00  0.00     0.043 C 
HETATM    2  C   UNK N   1      33.425  16.260   8.968  0.00  0.00     0.162 C 
ENDROOT
BRANCH   2   3
HETATM    3  O   UNK N   1      34.833  16.101   8.986  0.00  0.00    -0.289 OA
BRANCH   3   4
HETATM    4  P   UNK N   1      35.372  15.577  10.570  0.00  0.00     0.391 P 
HETATM    5  O   UNK N   1      36.315  14.751   9.655  0.00  0.00    -0.632 OA
BRANCH   4   6
HETATM    6  O   UNK N   1      36.933  16.014  11.191  0.00  0.00    -0.307 OA
HETATM    7  H   UNK N   1      37.654  15.365  11.200  0.00  0.00     0.222 HD
ENDBRANCH   4   6
BRANCH   4   8
HETATM    8  O   UNK N   1      35.733  17.261  10.341  0.00  0.00    -0.307 OA
HETATM    9  H   UNK N   1      36.101  17.813   9.632  0.00  0.00     0.222 HD
ENDBRANCH   4   8
ENDBRANCH   3   4
ENDBRANCH   2   3
BRANCH   2  10
HETATM   10  C   UNK N   1      32.930  17.555   8.302  0.00  0.00     0.202 C 
BRANCH  10  11
HETATM   11  N   UNK N   1      31.883  17.242   7.338  0.00  0.00    -0.416 N 
HETATM   12  H   UNK N   1      31.953  16.473   6.673  0.00  0.00     0.150 HD
HETATM   13  H   UNK N   1      31.042  17.820   7.329  0.00  0.00     0.150 HD
ENDBRANCH  10  11
BRANCH  10  14
HETATM   14  C   UNK N   1      34.065  18.269   7.606  0.00  0.00     0.165 C 
HETATM   15  O   UNK N   1      34.256  18.098   6.411  0.00  0.00    -0.648 OA
BRANCH  14  16
HETATM   16  O   UNK N   1      34.878  19.096   8.292  0.00  0.00    -0.775 OA
HETATM   17  H   UNK N   1      35.693  18.840   8.676  0.00  0.00     0.167 HD
ENDBRANCH  14  16
ENDBRANCH  10  14
ENDBRANCH   2  10
TORSDOF 8
ENDMDL
MODEL 2
REMARK VINA RESULT:      -4.7     14.957     15.819
REMARK  8 active torsions:
REMARK  status: ('A' for Active; 'I' for Inactive)
REMARK    1  A    between atoms: C_2  and  O_3 
REMARK    2  A    between atoms: C_2  and  C_8 
REMARK    3  A    between atoms: O_3  and  P_4 
REMARK    4  A    between atoms: P_4  and  O_5 
REMARK    5  A    between atoms: P_4  and  O_6 
REMARK    6  A    between atoms: C_8  and  N_9 
REMARK    7  A    between atoms: C_8  and  C_10 
REMARK    8  A    between atoms: C_10  and  O_11 
ROOT
HETATM    1  C   UNK N   1      21.682  17.468   3.445  0.00  0.00     0.043 C 
HETATM    2  C   UNK N   1      20.232  17.770   3.067  0.00  0.00     0.162 C 
ENDROOT
BRANCH   2   3
HETATM    3  O   UNK N   1      20.012  19.121   2.698  0.00  0.00    -0.289 OA
BRANCH   3   4
HETATM    4  P   UNK N   1      21.515  20.023   2.752  0.00  0.00     0.391 P 
HETATM    5  O   UNK N   1      21.071  20.285   1.287  0.00  0.00    -0.632 OA
BRANCH   4   6
HETATM    6  O   UNK N   1      21.538  21.758   2.685  0.00  0.00    -0.307 OA
HETATM    7  H   UNK N   1      21.085  22.224   1.965  0.00  0.00     0.222 HD
ENDBRANCH   4   6
BRANCH   4   8
HETATM    8  O   UNK N   1      20.343  20.747   3.811  0.00  0.00    -0.307 OA
HETATM    9  H   UNK N   1      19.424  21.049   3.743  0.00  0.00     0.222 HD
ENDBRANCH   4   8
ENDBRANCH   3   4
ENDBRANCH   2   3
BRANCH   2  10
HETATM   10  C   UNK N   1      19.590  16.732   2.130  0.00  0.00     0.202 C 
BRANCH  10  11
HETATM   11  N   UNK N   1      19.607  15.421   2.763  0.00  0.00    -0.416 N 
HETATM   12  H   UNK N   1      18.823  14.771   2.716  0.00  0.00     0.150 HD
HETATM   13  H   UNK N   1      20.443  15.140   3.277  0.00  0.00     0.150 HD
ENDBRANCH  10  11
BRANCH  10  14
HETATM   14  C   UNK N   1      20.326  16.670   0.812  0.00  0.00     0.165 C 
HETATM   15  O   UNK N   1      20.964  15.672   0.513  0.00  0.00    -0.648 OA
BRANCH  14  16
HETATM   16  O   UNK N   1      20.291  17.712  -0.043  0.00  0.00    -0.775 OA
HETATM   17  H   UNK N   1      19.563  17.920  -0.595  0.00  0.00     0.167 HD
ENDBRANCH  14  16
ENDBRANCH  10  14
ENDBRANCH   2  10
TORSDOF 8
ENDMDL
MODEL 3
REMARK VINA RESULT:      -4.5      2.323      4.044
REMARK  8 active torsions:
REMARK  status: ('A' for Active; 'I' for Inactive)
REMARK    1  A    between atoms: C_2  and  O_3 
REMARK    2  A    between atoms: C_2  and  C_8 
REMARK    3  A    between atoms: O_3  and  P_4 
REMARK    4  A    between atoms: P_4  and  O_5 
REMARK    5  A    between atoms: P_4  and  O_6 
REMARK    6  A    between atoms: C_8  and  N_9 
REMARK    7  A    between atoms: C_8  and  C_10 
REMARK    8  A    between atoms: C_10  and  O_11 
ROOT
HETATM    1  C   UNK N   1      32.584  15.613   8.748  0.00  0.00     0.043 C 
HETATM    2  C   UNK N   1      34.093  15.375   8.683  0.00  0.00     0.162 C 
ENDROOT
BRANCH   2   3
HETATM    3  O   UNK N   1      34.770  16.268   7.815  0.00  0.00    -0.289 OA
BRANCH   3   4
HETATM    4  P   UNK N   1      33.619  17.216   6.891  0.00  0.00     0.391 P 
HETATM    5  O   UNK N   1      34.568  18.331   7.406  0.00  0.00    -0.632 OA
BRANCH   4   6
HETATM    6  O   UNK N   1      34.070  18.002   5.410  0.00  0.00    -0.307 OA
HETATM    7  H   UNK N   1      34.107  18.970   5.364  0.00  0.00     0.222 HD
ENDBRANCH   4   6
BRANCH   4   8
HETATM    8  O   UNK N   1      34.528  16.178   5.833  0.00  0.00    -0.307 OA
HETATM    9  H   UNK N   1      35.394  16.202   5.396  0.00  0.00     0.222 HD
ENDBRANCH   4   8
ENDBRANCH   3   4
ENDBRANCH   2   3
BRANCH   2  10
HETATM   10  C   UNK N   1      34.765  15.172  10.052  0.00  0.00     0.202 C 
BRANCH  10  11
HETATM   11  N   UNK N   1      33.746  15.048  11.085  0.00  0.00    -0.416 N 
HETATM   12  H   UNK N   1      33.917  14.593  11.982  0.00  0.00     0.150 HD
HETATM   13  H   UNK N   1      32.819  15.434  10.904  0.00  0.00     0.150 HD
ENDBRANCH  10  11
BRANCH  10  14
HETATM   14  C   UNK N   1      35.682  16.328  10.377  0.00  0.00     0.165 C 
HETATM   15  O   UNK N   1      36.799  16.116  10.824  0.00  0.00    -0.648 OA
BRANCH  14  16
HETATM   16  O   UNK N   1      35.278  17.599  10.184  0.00  0.00    -0.775 OA
HETATM   17  H   UNK N   1      35.790  18.259   9.758  0.00  0.00     0.167 HD
ENDBRANCH  14  16
ENDBRANCH  10  14
ENDBRANCH   2  10
TORSDOF 8
ENDMDL
MODEL 4
REMARK VINA RESULT:      -4.5      1.639      2.056
REMARK  8 active torsions:
REMARK  status: ('A' for Active; 'I' for Inactive)
REMARK    1  A    between atoms: C_2  and  O_3 
REMARK    2  A    between atoms: C_2  and  C_8 
REMARK    3  A    between atoms: O_3  and  P_4 
REMARK    4  A    between atoms: P_4  and  O_5 
REMARK    5  A    between atoms: P_4  and  O_6 
REMARK    6  A    between atoms: C_8  and  N_9 
REMARK    7  A    between atoms: C_8  and  C_10 
REMARK    8  A    between atoms: C_10  and  O_11 
ROOT
HETATM    1  C   UNK N   1      34.738  15.394   8.087  0.00  0.00     0.043 C 
HETATM    2  C   UNK N   1      33.990  16.123   9.204  0.00  0.00     0.162 C 
ENDROOT
BRANCH   2   3
HETATM    3  O   UNK N   1      34.681  16.123  10.441  0.00  0.00    -0.289 OA
BRANCH   3   4
HETATM    4  P   UNK N   1      35.002  14.481  10.965  0.00  0.00     0.391 P 
HETATM    5  O   UNK N   1      35.855  15.283  11.985  0.00  0.00    -0.632 OA
BRANCH   4   6
HETATM    6  O   UNK N   1      34.401  13.874  12.477  0.00  0.00    -0.307 OA
HETATM    7  H   UNK N   1      34.955  13.912  13.272  0.00  0.00     0.222 HD
ENDBRANCH   4   6
BRANCH   4   8
HETATM    8  O   UNK N   1      33.330  14.877  11.226  0.00  0.00    -0.307 OA
HETATM    9  H   UNK N   1      32.545  14.425  11.573  0.00  0.00     0.222 HD
ENDBRANCH   4   8
ENDBRANCH   3   4
ENDBRANCH   2   3
BRANCH   2  10
HETATM   10  C   UNK N   1      33.402  17.483   8.792  0.00  0.00     0.202 C 
BRANCH  10  11
HETATM   11  N   UNK N   1      32.162  17.281   8.057  0.00  0.00    -0.416 N 
HETATM   12  H   UNK N   1      32.116  16.769   7.175  0.00  0.00     0.150 HD
HETATM   13  H   UNK N   1      31.299  17.667   8.441  0.00  0.00     0.150 HD
ENDBRANCH  10  11
BRANCH  10  14
HETATM   14  C   UNK N   1      34.380  18.255   7.937  0.00  0.00     0.165 C 
HETATM   15  O   UNK N   1      35.183  19.015   8.458  0.00  0.00    -0.648 OA
BRANCH  14  16
HETATM   16  O   UNK N   1      34.376  18.118   6.596  0.00  0.00    -0.775 OA
HETATM   17  H   UNK N   1      34.315  17.298   6.148  0.00  0.00     0.167 HD
ENDBRANCH  14  16
ENDBRANCH  10  14
ENDBRANCH   2  10
TORSDOF 8
ENDMDL
MODEL 5
REMARK VINA RESULT:      -4.4      3.328      4.186
REMARK  8 active torsions:
REMARK  status: ('A' for Active; 'I' for Inactive)
REMARK    1  A    between atoms: C_2  and  O_3 
REMARK    2  A    between atoms: C_2  and  C_8 
REMARK    3  A    between atoms: O_3  and  P_4 
REMARK    4  A    between atoms: P_4  and  O_5 
REMARK    5  A    between atoms: P_4  and  O_6 
REMARK    6  A    between atoms: C_8  and  N_9 
REMARK    7  A    between atoms: C_8  and  C_10 
REMARK    8  A    between atoms: C_10  and  O_11 
ROOT
HETATM    1  C   UNK N   1      35.423  13.157  10.046  0.00  0.00     0.043 C 
HETATM    2  C   UNK N   1      35.291  13.832  11.412  0.00  0.00     0.162 C 
ENDROOT
BRANCH   2   3
HETATM    3  O   UNK N   1      36.485  13.803  12.175  0.00  0.00    -0.289 OA
BRANCH   3   4
HETATM    4  P   UNK N   1      36.139  13.378  13.842  0.00  0.00     0.391 P 
HETATM    5  O   UNK N   1      37.191  12.296  13.478  0.00  0.00    -0.632 OA
BRANCH   4   6
HETATM    6  O   UNK N   1      37.314  13.598  15.100  0.00  0.00    -0.307 OA
HETATM    7  H   UNK N   1      37.028  13.802  16.004  0.00  0.00     0.222 HD
ENDBRANCH   4   6
BRANCH   4   8
HETATM    8  O   UNK N   1      36.912  14.933  13.768  0.00  0.00    -0.307 OA
HETATM    9  H   UNK N   1      37.778  15.301  14.006  0.00  0.00     0.222 HD
ENDBRANCH   4   8
ENDBRANCH   3   4
ENDBRANCH   2   3
BRANCH   2  10
HETATM   10  C   UNK N   1      34.577  15.194  11.383  0.00  0.00     0.202 C 
BRANCH  10  11
HETATM   11  N   UNK N   1      33.356  15.091  10.596  0.00  0.00    -0.416 N 
HETATM   12  H   UNK N   1      33.164  15.684   9.788  0.00  0.00     0.150 HD
HETATM   13  H   UNK N   1      32.660  14.395  10.865  0.00  0.00     0.150 HD
ENDBRANCH  10  11
BRANCH  10  14
HETATM   14  C   UNK N   1      35.474  16.258  10.793  0.00  0.00     0.165 C 
HETATM   15  O   UNK N   1      34.988  17.201  10.187  0.00  0.00    -0.648 OA
BRANCH  14  16
HETATM   16  O   UNK N   1      36.813  16.178  10.926  0.00  0.00    -0.775 OA
HETATM   17  H   UNK N   1      37.408  16.032  10.218  0.00  0.00     0.167 HD
ENDBRANCH  14  16
ENDBRANCH  10  14
ENDBRANCH   2  10
TORSDOF 8
ENDMDL
MODEL 6
REMARK VINA RESULT:      -4.3     10.244     11.329
REMARK  8 active torsions:
REMARK  status: ('A' for Active; 'I' for Inactive)
REMARK    1  A    between atoms: C_2  and  O_3 
REMARK    2  A    between atoms: C_2  and  C_8 
REMARK    3  A    between atoms: O_3  and  P_4 
REMARK    4  A    between atoms: P_4  and  O_5 
REMARK    5  A    between atoms: P_4  and  O_6 
REMARK    6  A    between atoms: C_8  and  N_9 
REMARK    7  A    between atoms: C_8  and  C_10 
REMARK    8  A    between atoms: C_10  and  O_11 
ROOT
HETATM    1  C   UNK N   1      41.170  23.256   1.669  0.00  0.00     0.043 C 
HETATM    2  C   UNK N   1      41.873  21.977   2.125  0.00  0.00     0.162 C 
ENDROOT
BRANCH   2   3
HETATM    3  O   UNK N   1      42.649  22.145   3.299  0.00  0.00    -0.289 OA
BRANCH   3   4
HETATM    4  P   UNK N   1      44.275  22.661   2.891  0.00  0.00     0.391 P 
HETATM    5  O   UNK N   1      43.849  23.789   3.869  0.00  0.00    -0.632 OA
BRANCH   4   6
HETATM    6  O   UNK N   1      45.562  22.618   4.055  0.00  0.00    -0.307 OA
HETATM    7  H   UNK N   1      46.434  22.981   3.831  0.00  0.00     0.222 HD
ENDBRANCH   4   6
BRANCH   4   8
HETATM    8  O   UNK N   1      44.325  21.166   3.776  0.00  0.00    -0.307 OA
HETATM    9  H   UNK N   1      43.717  20.430   3.950  0.00  0.00     0.222 HD
ENDBRANCH   4   8
ENDBRANCH   3   4
ENDBRANCH   2   3
BRANCH   2  10
HETATM   10  C   UNK N   1      40.981  20.724   2.115  0.00  0.00     0.202 C 
BRANCH  10  11
HETATM   11  N   UNK N   1      39.581  21.116   2.176  0.00  0.00    -0.416 N 
HETATM   12  H   UNK N   1      39.191  21.669   2.940  0.00  0.00     0.150 HD
HETATM   13  H   UNK N   1      38.960  20.826   1.420  0.00  0.00     0.150 HD
ENDBRANCH  10  11
BRANCH  10  14
HETATM   14  C   UNK N   1      41.308  19.822   3.283  0.00  0.00     0.165 C 
HETATM   15  O   UNK N   1      42.197  18.990   3.184  0.00  0.00    -0.648 OA
BRANCH  14  16
HETATM   16  O   UNK N   1      40.624  19.924   4.440  0.00  0.00    -0.775 OA
HETATM   17  H   UNK N   1      39.895  20.496   4.576  0.00  0.00     0.167 HD
ENDBRANCH  14  16
ENDBRANCH  10  14
ENDBRANCH   2  10
TORSDOF 8
ENDMDL
MODEL 7
REMARK VINA RESULT:      -4.2     13.101     14.307
REMARK  8 active torsions:
REMARK  status: ('A' for Active; 'I' for Inactive)
REMARK    1  A    between atoms: C_2  and  O_3 
REMARK    2  A    between atoms: C_2  and  C_8 
REMARK    3  A    between atoms: O_3  and  P_4 
REMARK    4  A    between atoms: P_4  and  O_5 
REMARK    5  A    between atoms: P_4  and  O_6 
REMARK    6  A    between atoms: C_8  and  N_9 
REMARK    7  A    between atoms: C_8  and  C_10 
REMARK    8  A    between atoms: C_10  and  O_11 
ROOT
HETATM    1  C   UNK N   1      43.986  23.354  -0.070  0.00  0.00     0.043 C 
HETATM    2  C   UNK N   1      44.091  23.521   1.446  0.00  0.00     0.162 C 
ENDROOT
BRANCH   2   3
HETATM    3  O   UNK N   1      44.386  24.847   1.850  0.00  0.00    -0.289 OA
BRANCH   3   4
HETATM    4  P   UNK N   1      45.980  25.319   1.292  0.00  0.00     0.391 P 
HETATM    5  O   UNK N   1      45.403  26.695   1.721  0.00  0.00    -0.632 OA
BRANCH   4   6
HETATM    6  O   UNK N   1      47.199  25.881   2.392  0.00  0.00    -0.307 OA
HETATM    7  H   UNK N   1      47.948  26.404   2.064  0.00  0.00     0.222 HD
ENDBRANCH   4   6
BRANCH   4   8
HETATM    8  O   UNK N   1      46.112  24.321   2.709  0.00  0.00    -0.307 OA
HETATM    9  H   UNK N   1      46.334  24.452   3.644  0.00  0.00     0.222 HD
ENDBRANCH   4   8
ENDBRANCH   3   4
ENDBRANCH   2   3
BRANCH   2  10
HETATM   10  C   UNK N   1      42.964  22.840   2.241  0.00  0.00     0.202 C 
BRANCH  10  11
HETATM   11  N   UNK N   1      41.733  23.604   2.101  0.00  0.00    -0.416 N 
HETATM   12  H   UNK N   1      40.807  23.195   2.226  0.00  0.00     0.150 HD
HETATM   13  H   UNK N   1      41.799  24.596   1.867  0.00  0.00     0.150 HD
ENDBRANCH  10  11
BRANCH  10  14
HETATM   14  C   UNK N   1      43.329  22.727   3.703  0.00  0.00     0.165 C 
HETATM   15  O   UNK N   1      43.406  21.628   4.232  0.00  0.00    -0.648 OA
BRANCH  14  16
HETATM   16  O   UNK N   1      43.568  23.831   4.437  0.00  0.00    -0.775 OA
HETATM   17  H   UNK N   1      44.188  24.495   4.209  0.00  0.00     0.167 HD
ENDBRANCH  14  16
ENDBRANCH  10  14
ENDBRANCH   2  10
TORSDOF 8
ENDMDL
MODEL 8
REMARK VINA RESULT:      -4.1      3.245      4.630
REMARK  8 active torsions:
REMARK  status: ('A' for Active; 'I' for Inactive)
REMARK    1  A    between atoms: C_2  and  O_3 
REMARK    2  A    between atoms: C_2  and  C_8 
REMARK    3  A    between atoms: O_3  and  P_4 
REMARK    4  A    between atoms: P_4  and  O_5 
REMARK    5  A    between atoms: P_4  and  O_6 
REMARK    6  A    between atoms: C_8  and  N_9 
REMARK    7  A    between atoms: C_8  and  C_10 
REMARK    8  A    between atoms: C_10  and  O_11 
ROOT
HETATM    1  C   UNK N   1      36.026  13.874   8.828  0.00  0.00     0.043 C 
HETATM    2  C   UNK N   1      35.582  15.263   9.289  0.00  0.00     0.162 C 
ENDROOT
BRANCH   2   3
HETATM    3  O   UNK N   1      34.398  15.718   8.655  0.00  0.00    -0.289 OA
BRANCH   3   4
HETATM    4  P   UNK N   1      34.397  17.469   8.542  0.00  0.00     0.391 P 
HETATM    5  O   UNK N   1      34.608  17.082   7.054  0.00  0.00    -0.632 OA
BRANCH   4   6
HETATM    6  O   UNK N   1      33.102  18.330   7.771  0.00  0.00    -0.307 OA
HETATM    7  H   UNK N   1      33.004  19.286   7.905  0.00  0.00     0.222 HD
ENDBRANCH   4   6
BRANCH   4   8
HETATM    8  O   UNK N   1      32.831  16.899   9.034  0.00  0.00    -0.307 OA
HETATM    9  H   UNK N   1      32.367  16.047   9.059  0.00  0.00     0.222 HD
ENDBRANCH   4   8
ENDBRANCH   3   4
ENDBRANCH   2   3
BRANCH   2  10
HETATM   10  C   UNK N   1      35.617  15.468  10.813  0.00  0.00     0.202 C 
BRANCH  10  11
HETATM   11  N   UNK N   1      36.887  14.994  11.343  0.00  0.00    -0.416 N 
HETATM   12  H   UNK N   1      37.302  15.358  12.201  0.00  0.00     0.150 HD
HETATM   13  H   UNK N   1      37.386  14.264  10.833  0.00  0.00     0.150 HD
ENDBRANCH  10  11
BRANCH  10  14
HETATM   14  C   UNK N   1      34.480  14.731  11.481  0.00  0.00     0.165 C 
HETATM   15  O   UNK N   1      34.711  13.925  12.370  0.00  0.00    -0.648 OA
BRANCH  14  16
HETATM   16  O   UNK N   1      33.204  14.949  11.104  0.00  0.00    -0.775 OA
HETATM   17  H   UNK N   1      32.821  14.620  10.315  0.00  0.00     0.167 HD
ENDBRANCH  14  16
ENDBRANCH  10  14
ENDBRANCH   2  10
TORSDOF 8
ENDMDL
MODEL 9
REMARK VINA RESULT:      -4.1      6.307      7.026
REMARK  8 active torsions:
REMARK  status: ('A' for Active; 'I' for Inactive)
REMARK    1  A    between atoms: C_2  and  O_3 
REMARK    2  A    between atoms: C_2  and  C_8 
REMARK    3  A    between atoms: O_3  and  P_4 
REMARK    4  A    between atoms: P_4  and  O_5 
REMARK    5  A    between atoms: P_4  and  O_6 
REMARK    6  A    between atoms: C_8  and  N_9 
REMARK    7  A    between atoms: C_8  and  C_10 
REMARK    8  A    between atoms: C_10  and  O_11 
ROOT
HETATM    1  C   UNK N   1      29.041  17.251   6.063  0.00  0.00     0.043 C 
HETATM    2  C   UNK N   1      28.126  18.301   6.696  0.00  0.00     0.162 C 
ENDROOT
BRANCH   2   3
HETATM    3  O   UNK N   1      28.708  18.962   7.807  0.00  0.00    -0.289 OA
BRANCH   3   4
HETATM    4  P   UNK N   1      29.376  17.797   8.935  0.00  0.00     0.391 P 
HETATM    5  O   UNK N   1      30.359  18.984   9.126  0.00  0.00    -0.632 OA
BRANCH   4   6
HETATM    6  O   UNK N   1      29.296  18.044  10.651  0.00  0.00    -0.307 OA
HETATM    7  H   UNK N   1      29.326  17.285  11.255  0.00  0.00     0.222 HD
ENDBRANCH   4   6
BRANCH   4   8
HETATM    8  O   UNK N   1      27.801  18.308   9.463  0.00  0.00    -0.307 OA
HETATM    9  H   UNK N   1      27.444  18.950  10.097  0.00  0.00     0.222 HD
ENDBRANCH   4   8
ENDBRANCH   3   4
ENDBRANCH   2   3
BRANCH   2  10
HETATM   10  C   UNK N   1      27.427  19.227   5.687  0.00  0.00     0.202 C 
BRANCH  10  11
HETATM   11  N   UNK N   1      28.331  19.523   4.584  0.00  0.00    -0.416 N 
HETATM   12  H   UNK N   1      28.773  20.434   4.458  0.00  0.00     0.150 HD
HETATM   13  H   UNK N   1      28.532  18.786   3.908  0.00  0.00     0.150 HD
ENDBRANCH  10  11
BRANCH  10  14
HETATM   14  C   UNK N   1      26.993  20.514   6.349  0.00  0.00     0.165 C 
HETATM   15  O   UNK N   1      27.160  21.582   5.780  0.00  0.00    -0.648 OA
BRANCH  14  16
HETATM   16  O   UNK N   1      26.423  20.499   7.570  0.00  0.00    -0.775 OA
HETATM   17  H   UNK N   1      26.343  21.248   8.127  0.00  0.00     0.167 HD
ENDBRANCH  14  16
ENDBRANCH  10  14
ENDBRANCH   2  10
TORSDOF 8
ENDMDL
