MODEL 1
REMARK VINA RESULT:      -5.8      0.000      0.000
REMARK  9 active torsions:
REMARK  status: ('A' for Active; 'I' for Inactive)
REMARK    1  A    between atoms: P_1  and  O_2 
REMARK    2  A    between atoms: P_1  and  O_3 
REMARK    3  A    between atoms: P_1  and  O_4 
REMARK    4  A    between atoms: O_2  and  C_6 
REMARK    5  A    between atoms: C_7  and  C_6 
REMARK    6  A    between atoms: C_8  and  O_11 
REMARK    7  A    between atoms: C_10  and  O_14 
REMARK    8  A    between atoms: C_12  and  O_15 
REMARK    9  A    between atoms: C_13  and  N_16 
ROOT
HETATM    1  C   UNK N   1      34.967  14.366   9.369  0.00  0.00     0.180 C 
HETATM    2  C   UNK N   1      34.553  14.631  10.831  0.00  0.00     0.180 C 
HETATM    3  O   UNK N   1      36.160  13.602   9.187  0.00  0.00    -0.349 OA
HETATM    4  C   UNK N   1      34.925  13.385  11.625  0.00  0.00     0.176 C 
HETATM    5  C   UNK N   1      37.019  13.801  10.285  0.00  0.00     0.282 C 
HETATM    6  C   UNK N   1      36.449  13.137  11.550  0.00  0.00     0.161 C 
ENDROOT
BRANCH   1   7
HETATM    7  C   UNK N   1      34.965  15.625   8.521  0.00  0.00     0.215 C 
BRANCH   7   8
HETATM    8  O   UNK N   1      34.472  16.688   9.279  0.00  0.00    -0.294 OA
BRANCH   8   9
HETATM    9  P   UNK N   1      34.298  18.021   8.167  0.00  0.00     0.390 P 
HETATM   10  O   UNK N   1      32.838  18.548   8.234  0.00  0.00    -0.632 OA
BRANCH   9  11
HETATM   11  O   UNK N   1      34.561  17.509   6.530  0.00  0.00    -0.307 OA
HETATM   12  H   UNK N   1      34.192  17.631   5.642  0.00  0.00     0.222 HD
ENDBRANCH   9  11
BRANCH   9  13
HETATM   13  O   UNK N   1      35.350  19.338   8.579  0.00  0.00    -0.307 OA
HETATM   14  H   UNK N   1      35.743  19.914   9.253  0.00  0.00     0.222 HD
ENDBRANCH   9  13
ENDBRANCH   8   9
ENDBRANCH   7   8
ENDBRANCH   1   7
BRANCH   2  15
HETATM   15  O   UNK N   1      33.180  14.872  10.901  0.00  0.00    -0.390 OA
HETATM   16  H   UNK N   1      32.624  14.803  10.109  0.00  0.00     0.210 HD
ENDBRANCH   2  15
BRANCH   4  17
HETATM   17  O   UNK N   1      34.469  13.450  12.945  0.00  0.00    -0.391 OA
HETATM   18  H   UNK N   1      34.937  13.018  13.675  0.00  0.00     0.210 HD
ENDBRANCH   4  17
BRANCH   5  19
HETATM   19  O   UNK N   1      38.295  13.311  10.003  0.00  0.00    -0.369 OA
HETATM   20  H   UNK N   1      38.432  12.710   9.255  0.00  0.00     0.212 HD
ENDBRANCH   5  19
BRANCH   6  21
HETATM   21  N   UNK N   1      37.134  13.678  12.713  0.00  0.00    -0.420 N 
HETATM   22  H   UNK N   1      38.048  13.705  13.166  0.00  0.00     0.150 HD
HETATM   23  H   UNK N   1      36.471  14.217  13.270  0.00  0.00     0.150 HD
ENDBRANCH   6  21
TORSDOF 9
ENDMDL
MODEL 2
REMARK VINA RESULT:      -5.5      5.267      7.160
REMARK  9 active torsions:
REMARK  status: ('A' for Active; 'I' for Inactive)
REMARK    1  A    between atoms: P_1  and  O_2 
REMARK    2  A    between atoms: P_1  and  O_3 
REMARK    3  A    between atoms: P_1  and  O_4 
REMARK    4  A    between atoms: O_2  and  C_6 
REMARK    5  A    between atoms: C_7  and  C_6 
REMARK    6  A    between atoms: C_8  and  O_11 
REMARK    7  A    between atoms: C_10  and  O_14 
REMARK    8  A    between atoms: C_12  and  O_15 
REMARK    9  A    between atoms: C_13  and  N_16 
ROOT
HETATM    1  C   UNK N   1      30.633  17.756   7.658  0.00  0.00     0.180 C 
HETATM    2  C   UNK N   1      29.639  17.673   8.836  0.00  0.00     0.180 C 
HETATM    3  O   UNK N   1      30.091  17.479   6.366  0.00  0.00    -0.349 OA
HETATM    4  C   UNK N   1      28.301  18.187   8.318  0.00  0.00     0.176 C 
HETATM    5  C   UNK N   1      28.999  16.598   6.490  0.00  0.00     0.282 C 
HETATM    6  C   UNK N   1      27.803  17.304   7.152  0.00  0.00     0.161 C 
ENDROOT
BRANCH   1   7
HETATM    7  C   UNK N   1      31.912  16.980   7.914  0.00  0.00     0.215 C 
BRANCH   7   8
HETATM    8  O   UNK N   1      32.743  17.728   8.750  0.00  0.00    -0.294 OA
BRANCH   8   9
HETATM    9  P   UNK N   1      34.287  17.797   7.941  0.00  0.00     0.390 P 
HETATM   10  O   UNK N   1      35.083  16.502   8.261  0.00  0.00    -0.632 OA
BRANCH   9  11
HETATM   11  O   UNK N   1      35.244  19.119   8.528  0.00  0.00    -0.307 OA
HETATM   12  H   UNK N   1      35.324  19.697   9.303  0.00  0.00     0.222 HD
ENDBRANCH   9  11
BRANCH   9  13
HETATM   13  O   UNK N   1      34.102  17.885   6.217  0.00  0.00    -0.307 OA
HETATM   14  H   UNK N   1      34.378  18.258   5.365  0.00  0.00     0.222 HD
ENDBRANCH   9  13
ENDBRANCH   8   9
ENDBRANCH   7   8
ENDBRANCH   1   7
BRANCH   2  15
HETATM   15  O   UNK N   1      30.094  18.457   9.898  0.00  0.00    -0.390 OA
HETATM   16  H   UNK N   1      30.104  18.108  10.803  0.00  0.00     0.210 HD
ENDBRANCH   2  15
BRANCH   4  17
HETATM   17  O   UNK N   1      27.352  18.294   9.339  0.00  0.00    -0.391 OA
HETATM   18  H   UNK N   1      26.721  17.584   9.534  0.00  0.00     0.210 HD
ENDBRANCH   4  17
BRANCH   5  19
HETATM   19  O   UNK N   1      28.640  16.084   5.243  0.00  0.00    -0.369 OA
HETATM   20  H   UNK N   1      28.336  15.168   5.163  0.00  0.00     0.212 HD
ENDBRANCH   5  19
BRANCH   6  21
HETATM   21  N   UNK N   1      26.861  16.296   7.613  0.00  0.00    -0.420 N 
HETATM   22  H   UNK N   1      25.862  16.129   7.738  0.00  0.00     0.150 HD
HETATM   23  H   UNK N   1      27.378  15.472   7.918  0.00  0.00     0.150 HD
ENDBRANCH   6  21
TORSDOF 9
ENDMDL
MODEL 3
REMARK VINA RESULT:      -5.5      5.167      7.051
REMARK  9 active torsions:
REMARK  status: ('A' for Active; 'I' for Inactive)
REMARK    1  A    between atoms: P_1  and  O_2 
REMARK    2  A    between atoms: P_1  and  O_3 
REMARK    3  A    between atoms: P_1  and  O_4 
REMARK    4  A    between atoms: O_2  and  C_6 
REMARK    5  A    between atoms: C_7  and  C_6 
REMARK    6  A    between atoms: C_8  and  O_11 
REMARK    7  A    between atoms: C_10  and  O_14 
REMARK    8  A    between atoms: C_12  and  O_15 
REMARK    9  A    between atoms: C_13  and  N_16 
ROOT
HETATM    1  C   UNK N   1      30.761  16.924   7.653  0.00  0.00     0.180 C 
HETATM    2  C   UNK N   1      29.596  17.327   6.725  0.00  0.00     0.180 C 
HETATM    3  O   UNK N   1      30.567  17.184   9.044  0.00  0.00    -0.349 OA
HETATM    4  C   UNK N   1      28.309  17.059   7.495  0.00  0.00     0.176 C 
HETATM    5  C   UNK N   1      29.701  18.283   9.203  0.00  0.00     0.282 C 
HETATM    6  C   UNK N   1      28.269  17.912   8.783  0.00  0.00     0.161 C 
ENDROOT
BRANCH   1   7
HETATM    7  C   UNK N   1      32.105  17.434   7.164  0.00  0.00     0.215 C 
BRANCH   7   8
HETATM    8  O   UNK N   1      32.614  18.347   8.089  0.00  0.00    -0.294 OA
BRANCH   8   9
HETATM    9  P   UNK N   1      34.259  17.847   8.389  0.00  0.00     0.390 P 
HETATM   10  O   UNK N   1      35.178  19.099   8.374  0.00  0.00    -0.632 OA
BRANCH   9  11
HETATM   11  O   UNK N   1      34.835  16.800   7.131  0.00  0.00    -0.307 OA
HETATM   12  H   UNK N   1      34.500  16.246   6.409  0.00  0.00     0.222 HD
ENDBRANCH   9  11
BRANCH   9  13
HETATM   13  O   UNK N   1      34.424  17.094   9.944  0.00  0.00    -0.307 OA
HETATM   14  H   UNK N   1      34.558  16.293  10.475  0.00  0.00     0.222 HD
ENDBRANCH   9  13
ENDBRANCH   8   9
ENDBRANCH   7   8
ENDBRANCH   1   7
BRANCH   2  15
HETATM   15  O   UNK N   1      29.640  16.570   5.553  0.00  0.00    -0.390 OA
HETATM   16  H   UNK N   1      30.477  16.433   5.082  0.00  0.00     0.210 HD
ENDBRANCH   2  15
BRANCH   4  17
HETATM   17  O   UNK N   1      27.176  17.254   6.701  0.00  0.00    -0.391 OA
HETATM   18  H   UNK N   1      26.345  17.600   7.062  0.00  0.00     0.210 HD
ENDBRANCH   4  17
BRANCH   5  19
HETATM   19  O   UNK N   1      29.726  18.739  10.522  0.00  0.00    -0.369 OA
HETATM   20  H   UNK N   1      30.256  19.515  10.760  0.00  0.00     0.212 HD
ENDBRANCH   5  19
BRANCH   6  21
HETATM   21  N   UNK N   1      27.506  19.135   8.588  0.00  0.00    -0.420 N 
HETATM   22  H   UNK N   1      26.839  19.748   9.056  0.00  0.00     0.150 HD
HETATM   23  H   UNK N   1      27.707  19.508   7.660  0.00  0.00     0.150 HD
ENDBRANCH   6  21
TORSDOF 9
ENDMDL
MODEL 4
REMARK VINA RESULT:      -5.4      5.313      7.594
REMARK  9 active torsions:
REMARK  status: ('A' for Active; 'I' for Inactive)
REMARK    1  A    between atoms: P_1  and  O_2 
REMARK    2  A    between atoms: P_1  and  O_3 
REMARK    3  A    between atoms: P_1  and  O_4 
REMARK    4  A    between atoms: O_2  and  C_6 
REMARK    5  A    between atoms: C_7  and  C_6 
REMARK    6  A    between atoms: C_8  and  O_11 
REMARK    7  A    between atoms: C_10  and  O_14 
REMARK    8  A    between atoms: C_12  and  O_15 
REMARK    9  A    between atoms: C_13  and  N_16 
ROOT
HETATM    1  C   UNK N   1      30.543  16.880   7.661  0.00  0.00     0.180 C 
HETATM    2  C   UNK N   1      30.591  17.659   6.330  0.00  0.00     0.180 C 
HETATM    3  O   UNK N   1      29.339  17.013   8.417  0.00  0.00    -0.349 OA
HETATM    4  C   UNK N   1      29.183  17.623   5.749  0.00  0.00     0.176 C 
HETATM    5  C   UNK N   1      28.748  18.263   8.148  0.00  0.00     0.282 C 
HETATM    6  C   UNK N   1      28.187  18.302   6.716  0.00  0.00     0.161 C 
ENDROOT
BRANCH   1   7
HETATM    7  C   UNK N   1      31.777  17.102   8.517  0.00  0.00     0.215 C 
BRANCH   7   8
HETATM    8  O   UNK N   1      32.376  18.309   8.152  0.00  0.00    -0.294 OA
BRANCH   8   9
HETATM    9  P   UNK N   1      34.067  17.946   7.922  0.00  0.00     0.390 P 
HETATM   10  O   UNK N   1      34.336  17.727   6.407  0.00  0.00    -0.632 OA
BRANCH   9  11
HETATM   11  O   UNK N   1      34.504  16.465   8.715  0.00  0.00    -0.307 OA
HETATM   12  H   UNK N   1      34.437  16.035   9.582  0.00  0.00     0.222 HD
ENDBRANCH   9  11
BRANCH   9  13
HETATM   13  O   UNK N   1      35.080  19.252   8.451  0.00  0.00    -0.307 OA
HETATM   14  H   UNK N   1      35.904  19.756   8.369  0.00  0.00     0.222 HD
ENDBRANCH   9  13
ENDBRANCH   8   9
ENDBRANCH   7   8
ENDBRANCH   1   7
BRANCH   2  15
HETATM   15  O   UNK N   1      31.502  17.058   5.460  0.00  0.00    -0.390 OA
HETATM   16  H   UNK N   1      32.220  16.501   5.801  0.00  0.00     0.210 HD
ENDBRANCH   2  15
BRANCH   4  17
HETATM   17  O   UNK N   1      29.132  18.178   4.468  0.00  0.00    -0.391 OA
HETATM   18  H   UNK N   1      28.723  17.716   3.720  0.00  0.00     0.210 HD
ENDBRANCH   4  17
BRANCH   5  19
HETATM   19  O   UNK N   1      27.745  18.540   9.078  0.00  0.00    -0.369 OA
HETATM   20  H   UNK N   1      26.963  17.970   9.137  0.00  0.00     0.212 HD
ENDBRANCH   5  19
BRANCH   6  21
HETATM   21  N   UNK N   1      27.947  19.688   6.345  0.00  0.00    -0.420 N 
HETATM   22  H   UNK N   1      28.434  20.561   6.146  0.00  0.00     0.150 HD
HETATM   23  H   UNK N   1      26.942  19.838   6.254  0.00  0.00     0.150 HD
ENDBRANCH   6  21
TORSDOF 9
ENDMDL
MODEL 5
REMARK VINA RESULT:      -5.3      3.455      6.147
REMARK  9 active torsions:
REMARK  status: ('A' for Active; 'I' for Inactive)
REMARK    1  A    between atoms: P_1  and  O_2 
REMARK    2  A    between atoms: P_1  and  O_3 
REMARK    3  A    between atoms: P_1  and  O_4 
REMARK    4  A    between atoms: O_2  and  C_6 
REMARK    5  A    between atoms: C_7  and  C_6 
REMARK    6  A    between atoms: C_8  and  O_11 
REMARK    7  A    between atoms: C_10  and  O_14 
REMARK    8  A    between atoms: C_12  and  O_15 
REMARK    9  A    between atoms: C_13  and  N_16 
ROOT
HETATM    1  C   UNK N   1      35.297  13.037  11.704  0.00  0.00     0.180 C 
HETATM    2  C   UNK N   1      36.379  14.127  11.855  0.00  0.00     0.180 C 
HETATM    3  O   UNK N   1      34.159  13.394  10.919  0.00  0.00    -0.349 OA
HETATM    4  C   UNK N   1      36.429  14.882  10.533  0.00  0.00     0.176 C 
HETATM    5  C   UNK N   1      33.952  14.786  10.992  0.00  0.00     0.282 C 
HETATM    6  C   UNK N   1      35.062  15.541  10.241  0.00  0.00     0.161 C 
ENDROOT
BRANCH   1   7
HETATM    7  C   UNK N   1      34.898  12.418  13.032  0.00  0.00     0.215 C 
BRANCH   7   8
HETATM    8  O   UNK N   1      34.898  13.407  14.017  0.00  0.00    -0.294 OA
BRANCH   8   9
HETATM    9  P   UNK N   1      35.984  12.837  15.258  0.00  0.00     0.390 P 
HETATM   10  O   UNK N   1      36.235  11.317  15.050  0.00  0.00    -0.632 OA
BRANCH   9  11
HETATM   11  O   UNK N   1      35.280  13.007  16.834  0.00  0.00    -0.307 OA
HETATM   12  H   UNK N   1      34.465  13.317  17.258  0.00  0.00     0.222 HD
ENDBRANCH   9  11
BRANCH   9  13
HETATM   13  O   UNK N   1      37.522  13.637  15.178  0.00  0.00    -0.307 OA
HETATM   14  H   UNK N   1      38.416  13.767  15.531  0.00  0.00     0.222 HD
ENDBRANCH   9  13
ENDBRANCH   8   9
ENDBRANCH   7   8
ENDBRANCH   1   7
BRANCH   2  15
HETATM   15  O   UNK N   1      37.612  13.537  12.136  0.00  0.00    -0.390 OA
HETATM   16  H   UNK N   1      38.286  14.014  12.645  0.00  0.00     0.210 HD
ENDBRANCH   2  15
BRANCH   4  17
HETATM   17  O   UNK N   1      37.475  15.808  10.499  0.00  0.00    -0.391 OA
HETATM   18  H   UNK N   1      37.826  16.161   9.667  0.00  0.00     0.210 HD
ENDBRANCH   4  17
BRANCH   5  19
HETATM   19  O   UNK N   1      32.696  15.121  10.485  0.00  0.00    -0.369 OA
HETATM   20  H   UNK N   1      32.374  14.709   9.668  0.00  0.00     0.212 HD
ENDBRANCH   5  19
BRANCH   6  21
HETATM   21  N   UNK N   1      35.043  16.934  10.654  0.00  0.00    -0.420 N 
HETATM   22  H   UNK N   1      35.662  17.711  10.887  0.00  0.00     0.150 HD
HETATM   23  H   UNK N   1      34.075  17.242  10.745  0.00  0.00     0.150 HD
ENDBRANCH   6  21
TORSDOF 9
ENDMDL
MODEL 6
REMARK VINA RESULT:      -5.2      3.170      5.526
REMARK  9 active torsions:
REMARK  status: ('A' for Active; 'I' for Inactive)
REMARK    1  A    between atoms: P_1  and  O_2 
REMARK    2  A    between atoms: P_1  and  O_3 
REMARK    3  A    between atoms: P_1  and  O_4 
REMARK    4  A    between atoms: O_2  and  C_6 
REMARK    5  A    between atoms: C_7  and  C_6 
REMARK    6  A    between atoms: C_8  and  O_11 
REMARK    7  A    between atoms: C_10  and  O_14 
REMARK    8  A    between atoms: C_12  and  O_15 
REMARK    9  A    between atoms: C_13  and  N_16 
ROOT
HETATM    1  C   UNK N   1      34.698  16.020  10.175  0.00  0.00     0.180 C 
HETATM    2  C   UNK N   1      33.768  15.358   9.137  0.00  0.00     0.180 C 
HETATM    3  O   UNK N   1      34.898  17.426  10.023  0.00  0.00    -0.349 OA
HETATM    4  C   UNK N   1      32.674  16.369   8.818  0.00  0.00     0.176 C 
HETATM    5  C   UNK N   1      34.758  17.779   8.666  0.00  0.00     0.282 C 
HETATM    6  C   UNK N   1      33.291  17.654   8.221  0.00  0.00     0.161 C 
ENDROOT
BRANCH   1   7
HETATM    7  C   UNK N   1      36.010  15.276  10.347  0.00  0.00     0.215 C 
BRANCH   7   8
HETATM    8  O   UNK N   1      35.743  13.952  10.698  0.00  0.00    -0.294 OA
BRANCH   8   9
HETATM    9  P   UNK N   1      36.113  13.831  12.399  0.00  0.00     0.390 P 
HETATM   10  O   UNK N   1      34.859  13.306  13.152  0.00  0.00    -0.632 OA
BRANCH   9  11
HETATM   11  O   UNK N   1      36.474  15.388  13.074  0.00  0.00    -0.307 OA
HETATM   12  H   UNK N   1      36.045  16.236  13.265  0.00  0.00     0.222 HD
ENDBRANCH   9  11
BRANCH   9  13
HETATM   13  O   UNK N   1      37.408  12.714  12.694  0.00  0.00    -0.307 OA
HETATM   14  H   UNK N   1      38.339  12.467  12.585  0.00  0.00     0.222 HD
ENDBRANCH   9  13
ENDBRANCH   8   9
ENDBRANCH   7   8
ENDBRANCH   1   7
BRANCH   2  15
HETATM   15  O   UNK N   1      33.222  14.187   9.667  0.00  0.00    -0.390 OA
HETATM   16  H   UNK N   1      32.436  14.219  10.235  0.00  0.00     0.210 HD
ENDBRANCH   2  15
BRANCH   4  17
HETATM   17  O   UNK N   1      31.686  15.827   7.992  0.00  0.00    -0.391 OA
HETATM   18  H   UNK N   1      31.347  14.927   8.112  0.00  0.00     0.210 HD
ENDBRANCH   4  17
BRANCH   5  19
HETATM   19  O   UNK N   1      35.231  19.074   8.446  0.00  0.00    -0.369 OA
HETATM   20  H   UNK N   1      36.138  19.310   8.692  0.00  0.00     0.212 HD
ENDBRANCH   5  19
BRANCH   6  21
HETATM   21  N   UNK N   1      33.242  17.642   6.768  0.00  0.00    -0.420 N 
HETATM   22  H   UNK N   1      32.910  18.186   5.971  0.00  0.00     0.150 HD
HETATM   23  H   UNK N   1      33.696  16.794   6.427  0.00  0.00     0.150 HD
ENDBRANCH   6  21
TORSDOF 9
ENDMDL
MODEL 7
REMARK VINA RESULT:      -5.2      1.341      1.663
REMARK  9 active torsions:
REMARK  status: ('A' for Active; 'I' for Inactive)
REMARK    1  A    between atoms: P_1  and  O_2 
REMARK    2  A    between atoms: P_1  and  O_3 
REMARK    3  A    between atoms: P_1  and  O_4 
REMARK    4  A    between atoms: O_2  and  C_6 
REMARK    5  A    between atoms: C_7  and  C_6 
REMARK    6  A    between atoms: C_8  and  O_11 
REMARK    7  A    between atoms: C_10  and  O_14 
REMARK    8  A    between atoms: C_12  and  O_15 
REMARK    9  A    between atoms: C_13  and  N_16 
ROOT
HETATM    1  C   UNK N   1      34.767  15.052   9.408  0.00  0.00     0.180 C 
HETATM    2  C   UNK N   1      34.324  14.988  10.885  0.00  0.00     0.180 C 
HETATM    3  O   UNK N   1      36.060  14.517   9.122  0.00  0.00    -0.349 OA
HETATM    4  C   UNK N   1      34.880  13.689  11.454  0.00  0.00     0.176 C 
HETATM    5  C   UNK N   1      36.884  14.641  10.257  0.00  0.00     0.282 C 
HETATM    6  C   UNK N   1      36.424  13.685  11.371  0.00  0.00     0.161 C 
ENDROOT
BRANCH   1   7
HETATM    7  C   UNK N   1      34.575  16.429   8.797  0.00  0.00     0.215 C 
BRANCH   7   8
HETATM    8  O   UNK N   1      33.400  16.436   8.043  0.00  0.00    -0.294 OA
BRANCH   8   9
HETATM    9  P   UNK N   1      33.904  16.621   6.384  0.00  0.00     0.390 P 
HETATM   10  O   UNK N   1      33.965  18.135   6.040  0.00  0.00    -0.632 OA
BRANCH   9  11
HETATM   11  O   UNK N   1      32.751  15.917   5.296  0.00  0.00    -0.307 OA
HETATM   12  H   UNK N   1      32.621  15.754   4.349  0.00  0.00     0.222 HD
ENDBRANCH   9  11
BRANCH   9  13
HETATM   13  O   UNK N   1      35.487  15.960   6.119  0.00  0.00    -0.307 OA
HETATM   14  H   UNK N   1      36.409  15.859   6.404  0.00  0.00     0.222 HD
ENDBRANCH   9  13
ENDBRANCH   8   9
ENDBRANCH   7   8
ENDBRANCH   1   7
BRANCH   2  15
HETATM   15  O   UNK N   1      32.931  15.008  10.965  0.00  0.00    -0.390 OA
HETATM   16  H   UNK N   1      32.416  14.193  10.857  0.00  0.00     0.210 HD
ENDBRANCH   2  15
BRANCH   4  17
HETATM   17  O   UNK N   1      34.424  13.450  12.753  0.00  0.00    -0.391 OA
HETATM   18  H   UNK N   1      33.507  13.619  13.018  0.00  0.00     0.210 HD
ENDBRANCH   4  17
BRANCH   5  19
HETATM   19  O   UNK N   1      38.218  14.402   9.922  0.00  0.00    -0.369 OA
HETATM   20  H   UNK N   1      38.645  14.919   9.222  0.00  0.00     0.212 HD
ENDBRANCH   5  19
BRANCH   6  21
HETATM   21  N   UNK N   1      37.025  14.105  12.627  0.00  0.00    -0.420 N 
HETATM   22  H   UNK N   1      37.278  13.757  13.552  0.00  0.00     0.150 HD
HETATM   23  H   UNK N   1      37.282  15.090  12.560  0.00  0.00     0.150 HD
ENDBRANCH   6  21
TORSDOF 9
ENDMDL
MODEL 8
REMARK VINA RESULT:      -5.2      5.409      7.036
REMARK  9 active torsions:
REMARK  status: ('A' for Active; 'I' for Inactive)
REMARK    1  A    between atoms: P_1  and  O_2 
REMARK    2  A    between atoms: P_1  and  O_3 
REMARK    3  A    between atoms: P_1  and  O_4 
REMARK    4  A    between atoms: O_2  and  C_6 
REMARK    5  A    between atoms: C_7  and  C_6 
REMARK    6  A    between atoms: C_8  and  O_11 
REMARK    7  A    between atoms: C_10  and  O_14 
REMARK    8  A    between atoms: C_12  and  O_15 
REMARK    9  A    between atoms: C_13  and  N_16 
ROOT
HETATM    1  C   UNK N   1      30.813  17.424   7.020  0.00  0.00     0.180 C 
HETATM    2  C   UNK N   1      30.756  17.445   8.562  0.00  0.00     0.180 C 
HETATM    3  O   UNK N   1      29.612  17.807   6.349  0.00  0.00    -0.349 OA
HETATM    4  C   UNK N   1      29.870  18.620   8.954  0.00  0.00     0.176 C 
HETATM    5  C   UNK N   1      28.500  17.501   7.158  0.00  0.00     0.282 C 
HETATM    6  C   UNK N   1      28.447  18.431   8.382  0.00  0.00     0.161 C 
ENDROOT
BRANCH   1   7
HETATM    7  C   UNK N   1      31.381  16.128   6.471  0.00  0.00     0.215 C 
BRANCH   7   8
HETATM    8  O   UNK N   1      32.635  15.900   7.041  0.00  0.00    -0.294 OA
BRANCH   8   9
HETATM    9  P   UNK N   1      33.778  16.729   6.015  0.00  0.00     0.390 P 
HETATM   10  O   UNK N   1      34.204  18.055   6.703  0.00  0.00    -0.632 OA
BRANCH   9  11
HETATM   11  O   UNK N   1      33.054  17.172   4.501  0.00  0.00    -0.307 OA
HETATM   12  H   UNK N   1      33.298  17.340   3.578  0.00  0.00     0.222 HD
ENDBRANCH   9  11
BRANCH   9  13
HETATM   13  O   UNK N   1      35.212  15.785   5.762  0.00  0.00    -0.307 OA
HETATM   14  H   UNK N   1      35.703  14.960   5.895  0.00  0.00     0.222 HD
ENDBRANCH   9  13
ENDBRANCH   8   9
ENDBRANCH   7   8
ENDBRANCH   1   7
BRANCH   2  15
HETATM   15  O   UNK N   1      32.042  17.599   9.083  0.00  0.00    -0.390 OA
HETATM   16  H   UNK N   1      32.547  18.412   8.925  0.00  0.00     0.210 HD
ENDBRANCH   2  15
BRANCH   4  17
HETATM   17  O   UNK N   1      29.857  18.828  10.335  0.00  0.00    -0.391 OA
HETATM   18  H   UNK N   1      29.291  19.495  10.753  0.00  0.00     0.210 HD
ENDBRANCH   4  17
BRANCH   5  19
HETATM   19  O   UNK N   1      27.319  17.589   6.420  0.00  0.00    -0.369 OA
HETATM   20  H   UNK N   1      26.884  16.784   6.097  0.00  0.00     0.212 HD
ENDBRANCH   5  19
BRANCH   6  21
HETATM   21  N   UNK N   1      27.549  17.854   9.370  0.00  0.00    -0.420 N 
HETATM   22  H   UNK N   1      27.545  17.280  10.213  0.00  0.00     0.150 HD
HETATM   23  H   UNK N   1      26.589  18.112   9.138  0.00  0.00     0.150 HD
ENDBRANCH   6  21
TORSDOF 9
ENDMDL
MODEL 9
REMARK VINA RESULT:      -5.2     12.557     13.655
REMARK  9 active torsions:
REMARK  status: ('A' for Active; 'I' for Inactive)
REMARK    1  A    between atoms: P_1  and  O_2 
REMARK    2  A    between atoms: P_1  and  O_3 
REMARK    3  A    between atoms: P_1  and  O_4 
REMARK    4  A    between atoms: O_2  and  C_6 
REMARK    5  A    between atoms: C_7  and  C_6 
REMARK    6  A    between atoms: C_8  and  O_11 
REMARK    7  A    between atoms: C_10  and  O_14 
REMARK    8  A    between atoms: C_12  and  O_15 
REMARK    9  A    between atoms: C_13  and  N_16 
ROOT
HETATM    1  C   UNK N   1      21.630  12.996   8.621  0.00  0.00     0.180 C 
HETATM    2  C   UNK N   1      21.666  12.934  10.162  0.00  0.00     0.180 C 
HETATM    3  O   UNK N   1      22.859  12.702   7.957  0.00  0.00    -0.349 OA
HETATM    4  C   UNK N   1      22.613  11.801  10.534  0.00  0.00     0.176 C 
HETATM    5  C   UNK N   1      23.941  13.047   8.791  0.00  0.00     0.282 C 
HETATM    6  C   UNK N   1      24.031  12.087   9.990  0.00  0.00     0.161 C 
ENDROOT
BRANCH   1   7
HETATM    7  C   UNK N   1      20.994  14.272   8.099  0.00  0.00     0.215 C 
BRANCH   7   8
HETATM    8  O   UNK N   1      20.746  15.132   9.170  0.00  0.00    -0.294 OA
BRANCH   8   9
HETATM    9  P   UNK N   1      19.557  16.271   8.594  0.00  0.00     0.390 P 
HETATM   10  O   UNK N   1      19.273  15.989   7.093  0.00  0.00    -0.632 OA
BRANCH   9  11
HETATM   11  O   UNK N   1      20.154  17.898   8.683  0.00  0.00    -0.307 OA
HETATM   12  H   UNK N   1      19.948  18.747   9.105  0.00  0.00     0.222 HD
ENDBRANCH   9  11
BRANCH   9  13
HETATM   13  O   UNK N   1      18.056  16.116   9.451  0.00  0.00    -0.307 OA
HETATM   14  H   UNK N   1      17.554  16.189  10.277  0.00  0.00     0.222 HD
ENDBRANCH   9  13
ENDBRANCH   8   9
ENDBRANCH   7   8
ENDBRANCH   1   7
BRANCH   2  15
HETATM   15  O   UNK N   1      20.384  12.692  10.658  0.00  0.00    -0.390 OA
HETATM   16  H   UNK N   1      20.164  12.892  11.582  0.00  0.00     0.210 HD
ENDBRANCH   2  15
BRANCH   4  17
HETATM   17  O   UNK N   1      22.620  11.555  11.910  0.00  0.00    -0.391 OA
HETATM   18  H   UNK N   1      23.127  12.101  12.530  0.00  0.00     0.210 HD
ENDBRANCH   4  17
BRANCH   5  19
HETATM   19  O   UNK N   1      25.135  13.049   8.069  0.00  0.00    -0.369 OA
HETATM   20  H   UNK N   1      25.746  13.797   8.139  0.00  0.00     0.212 HD
ENDBRANCH   5  19
BRANCH   6  21
HETATM   21  N   UNK N   1      24.881  12.686  11.006  0.00  0.00    -0.420 N 
HETATM   22  H   UNK N   1      25.712  12.503  11.568  0.00  0.00     0.150 HD
HETATM   23  H   UNK N   1      24.518  13.611  11.240  0.00  0.00     0.150 HD
ENDBRANCH   6  21
TORSDOF 9
ENDMDL
