MODEL 1
REMARK VINA RESULT:      -5.6      0.000      0.000
REMARK  17 active torsions:
REMARK  status: ('A' for Active; 'I' for Inactive)
REMARK    1  A    between atoms: C_3  and  C_1 
REMARK    2  A    between atoms: O_17  and  C_1 
REMARK    3  A    between atoms: C_4  and  C_2 
REMARK    4  A    between atoms: O_18  and  C_2 
REMARK    5  A    between atoms: C_5  and  C_3 
REMARK    6  A    between atoms: C_3  and  O_7 
REMARK    7  A    between atoms: C_6  and  C_4 
REMARK    8  A    between atoms: C_4  and  O_8 
REMARK    9  A    between atoms: C_6  and  C_5 
REMARK   10  A    between atoms: C_5  and  O_9 
REMARK   11  A    between atoms: C_6  and  O_10 
REMARK   12  A    between atoms: P_19  and  O_11 
REMARK   13  A    between atoms: P_19  and  O_12 
REMARK   14  A    between atoms: P_20  and  O_14 
REMARK   15  A    between atoms: P_20  and  O_15 
REMARK   16  A    between atoms: P_19  and  O_17 
REMARK   17  A    between atoms: P_20  and  O_18 
ROOT
HETATM    1  C   UNK N   1      35.160  14.512  11.650  0.00  0.00     0.180 C 
ENDROOT
BRANCH   1   2
HETATM    2  C   UNK N   1      35.626  15.943  11.307  0.00  0.00     0.173 C 
BRANCH   2   3
HETATM    3  C   UNK N   1      34.773  16.460  10.151  0.00  0.00     0.214 C 
BRANCH   3   4
HETATM    4  O   UNK N   1      35.286  17.643   9.605  0.00  0.00    -0.294 OA
BRANCH   4   5
HETATM    5  P   UNK N   1      34.165  18.074   8.345  0.00  0.00     0.390 P 
HETATM    6  O   UNK N   1      35.260  19.159   8.164  0.00  0.00    -0.632 OA
BRANCH   5   7
HETATM    7  O   UNK N   1      34.565  17.916   6.664  0.00  0.00    -0.307 OA
HETATM    8  H   UNK N   1      34.102  17.281   6.095  0.00  0.00     0.222 HD
ENDBRANCH   5   7
BRANCH   5   9
HETATM    9  O   UNK N   1      34.853  16.521   7.970  0.00  0.00    -0.307 OA
HETATM   10  H   UNK N   1      34.962  15.587   7.734  0.00  0.00     0.222 HD
ENDBRANCH   5   9
ENDBRANCH   4   5
ENDBRANCH   3   4
ENDBRANCH   2   3
BRANCH   2  11
HETATM   11  O   UNK N   1      36.967  15.950  10.917  0.00  0.00    -0.391 OA
HETATM   12  H   UNK N   1      37.743  16.441  11.228  0.00  0.00     0.210 HD
ENDBRANCH   2  11
ENDBRANCH   1   2
BRANCH   1  13
HETATM   13  C   UNK N   1      35.596  14.029  13.054  0.00  0.00     0.180 C 
BRANCH  13  14
HETATM   14  C   UNK N   1      35.472  12.491  13.165  0.00  0.00     0.173 C 
BRANCH  14  15
HETATM   15  C   UNK N   1      36.020  11.768  11.938  0.00  0.00     0.214 C 
BRANCH  15  16
HETATM   16  O   UNK N   1      37.407  11.940  11.843  0.00  0.00    -0.294 OA
BRANCH  16  17
HETATM   17  P   UNK N   1      37.731  12.142  10.148  0.00  0.00     0.390 P 
HETATM   18  O   UNK N   1      38.406  10.776  10.453  0.00  0.00    -0.632 OA
BRANCH  17  19
HETATM   19  O   UNK N   1      39.351  12.389   9.579  0.00  0.00    -0.307 OA
HETATM   20  H   UNK N   1      40.167  11.902   9.773  0.00  0.00     0.222 HD
ENDBRANCH  17  19
BRANCH  17  21
HETATM   21  O   UNK N   1      38.535  13.397  11.043  0.00  0.00    -0.307 OA
HETATM   22  H   UNK N   1      38.247  14.304  11.233  0.00  0.00     0.222 HD
ENDBRANCH  17  21
ENDBRANCH  16  17
ENDBRANCH  15  16
ENDBRANCH  14  15
BRANCH  14  23
HETATM   23  O   UNK N   1      34.141  12.112  13.366  0.00  0.00    -0.391 OA
HETATM   24  H   UNK N   1      33.407  11.772  13.903  0.00  0.00     0.210 HD
ENDBRANCH  14  23
ENDBRANCH  13  14
BRANCH  13  25
HETATM   25  O   UNK N   1      36.915  14.416  13.304  0.00  0.00    -0.390 OA
HETATM   26  H   UNK N   1      37.335  15.045  13.911  0.00  0.00     0.210 HD
ENDBRANCH  13  25
ENDBRANCH   1  13
BRANCH   1  27
HETATM   27  O   UNK N   1      33.766  14.461  11.554  0.00  0.00    -0.390 OA
HETATM   28  H   UNK N   1      33.156  14.356  10.808  0.00  0.00     0.210 HD
ENDBRANCH   1  27
TORSDOF 17
ENDMDL
MODEL 2
REMARK VINA RESULT:      -5.3      2.135      6.588
REMARK  17 active torsions:
REMARK  status: ('A' for Active; 'I' for Inactive)
REMARK    1  A    between atoms: C_3  and  C_1 
REMARK    2  A    between atoms: O_17  and  C_1 
REMARK    3  A    between atoms: C_4  and  C_2 
REMARK    4  A    between atoms: O_18  and  C_2 
REMARK    5  A    between atoms: C_5  and  C_3 
REMARK    6  A    between atoms: C_3  and  O_7 
REMARK    7  A    between atoms: C_6  and  C_4 
REMARK    8  A    between atoms: C_4  and  O_8 
REMARK    9  A    between atoms: C_6  and  C_5 
REMARK   10  A    between atoms: C_5  and  O_9 
REMARK   11  A    between atoms: C_6  and  O_10 
REMARK   12  A    between atoms: P_19  and  O_11 
REMARK   13  A    between atoms: P_19  and  O_12 
REMARK   14  A    between atoms: P_20  and  O_14 
REMARK   15  A    between atoms: P_20  and  O_15 
REMARK   16  A    between atoms: P_19  and  O_17 
REMARK   17  A    between atoms: P_20  and  O_18 
ROOT
HETATM    1  C   UNK N   1      35.828  14.016  11.707  0.00  0.00     0.180 C 
ENDROOT
BRANCH   1   2
HETATM    2  C   UNK N   1      35.041  12.728  12.029  0.00  0.00     0.173 C 
BRANCH   2   3
HETATM    3  C   UNK N   1      35.375  12.308  13.459  0.00  0.00     0.214 C 
BRANCH   3   4
HETATM    4  O   UNK N   1      34.735  13.114  14.408  0.00  0.00    -0.294 OA
BRANCH   4   5
HETATM    5  P   UNK N   1      35.461  12.674  15.928  0.00  0.00     0.390 P 
HETATM    6  O   UNK N   1      36.427  13.786  15.438  0.00  0.00    -0.632 OA
BRANCH   5   7
HETATM    7  O   UNK N   1      35.491  13.759  17.282  0.00  0.00    -0.307 OA
HETATM    8  H   UNK N   1      36.327  14.105  17.630  0.00  0.00     0.222 HD
ENDBRANCH   5   7
BRANCH   5   9
HETATM    9  O   UNK N   1      33.905  13.386  16.240  0.00  0.00    -0.307 OA
HETATM   10  H   UNK N   1      32.961  13.509  16.425  0.00  0.00     0.222 HD
ENDBRANCH   5   9
ENDBRANCH   4   5
ENDBRANCH   3   4
ENDBRANCH   2   3
BRANCH   2  11
HETATM   11  O   UNK N   1      35.399  11.695  11.160  0.00  0.00    -0.391 OA
HETATM   12  H   UNK N   1      35.276  11.560  10.208  0.00  0.00     0.210 HD
ENDBRANCH   2  11
ENDBRANCH   1   2
BRANCH   1  13
HETATM   13  C   UNK N   1      34.958  15.295  11.690  0.00  0.00     0.180 C 
BRANCH  13  14
HETATM   14  C   UNK N   1      35.649  16.415  10.876  0.00  0.00     0.173 C 
BRANCH  14  15
HETATM   15  C   UNK N   1      35.036  16.598   9.491  0.00  0.00     0.214 C 
BRANCH  15  16
HETATM   16  O   UNK N   1      34.067  17.610   9.510  0.00  0.00    -0.294 OA
BRANCH  16  17
HETATM   17  P   UNK N   1      33.460  17.697   7.885  0.00  0.00     0.390 P 
HETATM   18  O   UNK N   1      33.923  16.218   7.985  0.00  0.00    -0.632 OA
BRANCH  17  19
HETATM   19  O   UNK N   1      34.532  17.546   6.529  0.00  0.00    -0.307 OA
HETATM   20  H   UNK N   1      35.498  17.619   6.480  0.00  0.00     0.222 HD
ENDBRANCH  17  19
BRANCH  17  21
HETATM   21  O   UNK N   1      34.837  18.746   8.043  0.00  0.00    -0.307 OA
HETATM   22  H   UNK N   1      34.961  19.656   7.730  0.00  0.00     0.222 HD
ENDBRANCH  17  21
ENDBRANCH  16  17
ENDBRANCH  15  16
ENDBRANCH  14  15
BRANCH  14  23
HETATM   23  O   UNK N   1      37.018  16.161  10.743  0.00  0.00    -0.391 OA
HETATM   24  H   UNK N   1      37.799  15.847  10.261  0.00  0.00     0.210 HD
ENDBRANCH  14  23
ENDBRANCH  13  14
BRANCH  13  25
HETATM   25  O   UNK N   1      33.706  15.014  11.139  0.00  0.00    -0.390 OA
HETATM   26  H   UNK N   1      32.902  14.580  11.464  0.00  0.00     0.210 HD
ENDBRANCH  13  25
ENDBRANCH   1  13
BRANCH   1  27
HETATM   27  O   UNK N   1      36.850  14.162  12.649  0.00  0.00    -0.390 OA
HETATM   28  H   UNK N   1      37.165  13.606  13.378  0.00  0.00     0.210 HD
ENDBRANCH   1  27
TORSDOF 17
ENDMDL
MODEL 3
REMARK VINA RESULT:      -5.3      1.867      5.765
REMARK  17 active torsions:
REMARK  status: ('A' for Active; 'I' for Inactive)
REMARK    1  A    between atoms: C_3  and  C_1 
REMARK    2  A    between atoms: O_17  and  C_1 
REMARK    3  A    between atoms: C_4  and  C_2 
REMARK    4  A    between atoms: O_18  and  C_2 
REMARK    5  A    between atoms: C_5  and  C_3 
REMARK    6  A    between atoms: C_3  and  O_7 
REMARK    7  A    between atoms: C_6  and  C_4 
REMARK    8  A    between atoms: C_4  and  O_8 
REMARK    9  A    between atoms: C_6  and  C_5 
REMARK   10  A    between atoms: C_5  and  O_9 
REMARK   11  A    between atoms: C_6  and  O_10 
REMARK   12  A    between atoms: P_19  and  O_11 
REMARK   13  A    between atoms: P_19  and  O_12 
REMARK   14  A    between atoms: P_20  and  O_14 
REMARK   15  A    between atoms: P_20  and  O_15 
REMARK   16  A    between atoms: P_19  and  O_17 
REMARK   17  A    between atoms: P_20  and  O_18 
ROOT
HETATM    1  C   UNK N   1      36.070  13.545  11.900  0.00  0.00     0.180 C 
ENDROOT
BRANCH   1   2
HETATM    2  C   UNK N   1      35.385  12.305  12.513  0.00  0.00     0.173 C 
BRANCH   2   3
HETATM    3  C   UNK N   1      34.740  11.507  11.381  0.00  0.00     0.214 C 
BRANCH   3   4
HETATM    4  O   UNK N   1      34.962  12.094  10.129  0.00  0.00    -0.294 OA
BRANCH   4   5
HETATM    5  P   UNK N   1      33.794  11.349   9.075  0.00  0.00     0.390 P 
HETATM    6  O   UNK N   1      33.806  10.358  10.270  0.00  0.00    -0.632 OA
BRANCH   5   7
HETATM    7  O   UNK N   1      32.112  11.251   9.489  0.00  0.00    -0.307 OA
HETATM    8  H   UNK N   1      31.823  11.233  10.414  0.00  0.00     0.222 HD
ENDBRANCH   5   7
BRANCH   5   9
HETATM    9  O   UNK N   1      33.157  12.872   9.622  0.00  0.00    -0.307 OA
HETATM   10  H   UNK N   1      32.969  13.664  10.150  0.00  0.00     0.222 HD
ENDBRANCH   5   9
ENDBRANCH   4   5
ENDBRANCH   3   4
ENDBRANCH   2   3
BRANCH   2  11
HETATM   11  O   UNK N   1      34.394  12.682  13.421  0.00  0.00    -0.391 OA
HETATM   12  H   UNK N   1      33.659  12.202  13.833  0.00  0.00     0.210 HD
ENDBRANCH   2  11
ENDBRANCH   1   2
BRANCH   1  13
HETATM   13  C   UNK N   1      35.235  14.843  12.011  0.00  0.00     0.180 C 
BRANCH  13  14
HETATM   14  C   UNK N   1      35.869  15.974  11.166  0.00  0.00     0.173 C 
BRANCH  14  15
HETATM   15  C   UNK N   1      35.075  16.273   9.898  0.00  0.00     0.214 C 
BRANCH  15  16
HETATM   16  O   UNK N   1      35.145  17.637   9.582  0.00  0.00    -0.294 OA
BRANCH  16  17
HETATM   17  P   UNK N   1      33.986  17.875   8.311  0.00  0.00     0.390 P 
HETATM   18  O   UNK N   1      34.580  16.484   7.958  0.00  0.00    -0.632 OA
BRANCH  17  19
HETATM   19  O   UNK N   1      34.503  18.093   6.669  0.00  0.00    -0.307 OA
HETATM   20  H   UNK N   1      35.028  17.516   6.093  0.00  0.00     0.222 HD
ENDBRANCH  17  19
BRANCH  17  21
HETATM   21  O   UNK N   1      35.230  19.083   8.191  0.00  0.00    -0.307 OA
HETATM   22  H   UNK N   1      35.298  19.948   8.626  0.00  0.00     0.222 HD
ENDBRANCH  17  21
ENDBRANCH  16  17
ENDBRANCH  15  16
ENDBRANCH  14  15
BRANCH  14  23
HETATM   23  O   UNK N   1      37.187  15.658  10.820  0.00  0.00    -0.391 OA
HETATM   24  H   UNK N   1      37.978  15.731  10.264  0.00  0.00     0.210 HD
ENDBRANCH  14  23
ENDBRANCH  13  14
BRANCH  13  25
HETATM   25  O   UNK N   1      33.927  14.608  11.582  0.00  0.00    -0.390 OA
HETATM   26  H   UNK N   1      33.094  15.100  11.639  0.00  0.00     0.210 HD
ENDBRANCH  13  25
ENDBRANCH   1  13
BRANCH   1  27
HETATM   27  O   UNK N   1      37.304  13.732  12.530  0.00  0.00    -0.390 OA
HETATM   28  H   UNK N   1      37.771  13.249  13.231  0.00  0.00     0.210 HD
ENDBRANCH   1  27
TORSDOF 17
ENDMDL
MODEL 4
REMARK VINA RESULT:      -5.3      2.096      3.431
REMARK  17 active torsions:
REMARK  status: ('A' for Active; 'I' for Inactive)
REMARK    1  A    between atoms: C_3  and  C_1 
REMARK    2  A    between atoms: O_17  and  C_1 
REMARK    3  A    between atoms: C_4  and  C_2 
REMARK    4  A    between atoms: O_18  and  C_2 
REMARK    5  A    between atoms: C_5  and  C_3 
REMARK    6  A    between atoms: C_3  and  O_7 
REMARK    7  A    between atoms: C_6  and  C_4 
REMARK    8  A    between atoms: C_4  and  O_8 
REMARK    9  A    between atoms: C_6  and  C_5 
REMARK   10  A    between atoms: C_5  and  O_9 
REMARK   11  A    between atoms: C_6  and  O_10 
REMARK   12  A    between atoms: P_19  and  O_11 
REMARK   13  A    between atoms: P_19  and  O_12 
REMARK   14  A    between atoms: P_20  and  O_14 
REMARK   15  A    between atoms: P_20  and  O_15 
REMARK   16  A    between atoms: P_19  and  O_17 
REMARK   17  A    between atoms: P_20  and  O_18 
ROOT
HETATM    1  C   UNK N   1      34.992  14.858  11.202  0.00  0.00     0.180 C 
ENDROOT
BRANCH   1   2
HETATM    2  C   UNK N   1      35.614  16.217  10.814  0.00  0.00     0.173 C 
BRANCH   2   3
HETATM    3  C   UNK N   1      35.042  16.636   9.461  0.00  0.00     0.214 C 
BRANCH   3   4
HETATM    4  O   UNK N   1      34.005  17.568   9.593  0.00  0.00    -0.294 OA
BRANCH   4   5
HETATM    5  P   UNK N   1      33.647  18.069   7.964  0.00  0.00     0.390 P 
HETATM    6  O   UNK N   1      34.908  18.918   8.275  0.00  0.00    -0.632 OA
BRANCH   5   7
HETATM    7  O   UNK N   1      34.690  17.680   6.633  0.00  0.00    -0.307 OA
HETATM    8  H   UNK N   1      34.590  16.849   6.143  0.00  0.00     0.222 HD
ENDBRANCH   5   7
BRANCH   5   9
HETATM    9  O   UNK N   1      34.098  16.389   7.944  0.00  0.00    -0.307 OA
HETATM   10  H   UNK N   1      34.453  15.526   7.678  0.00  0.00     0.222 HD
ENDBRANCH   5   9
ENDBRANCH   4   5
ENDBRANCH   3   4
ENDBRANCH   2   3
BRANCH   2  11
HETATM   11  O   UNK N   1      37.002  16.117  10.705  0.00  0.00    -0.391 OA
HETATM   12  H   UNK N   1      37.728  16.707  10.956  0.00  0.00     0.210 HD
ENDBRANCH   2  11
ENDBRANCH   1   2
BRANCH   1  13
HETATM   13  C   UNK N   1      35.535  14.275  12.528  0.00  0.00     0.180 C 
BRANCH  13  14
HETATM   14  C   UNK N   1      36.362  12.994  12.263  0.00  0.00     0.173 C 
BRANCH  14  15
HETATM   15  C   UNK N   1      36.431  12.079  13.482  0.00  0.00     0.214 C 
BRANCH  15  16
HETATM   16  O   UNK N   1      36.031  12.764  14.637  0.00  0.00    -0.294 OA
BRANCH  16  17
HETATM   17  P   UNK N   1      34.926  11.695  15.446  0.00  0.00     0.390 P 
HETATM   18  O   UNK N   1      34.381  13.094  15.843  0.00  0.00    -0.632 OA
BRANCH  17  19
HETATM   19  O   UNK N   1      34.888  11.606  17.179  0.00  0.00    -0.307 OA
HETATM   20  H   UNK N   1      35.004  12.300  17.847  0.00  0.00     0.222 HD
ENDBRANCH  17  19
BRANCH  17  21
HETATM   21  O   UNK N   1      36.520  11.487  16.108  0.00  0.00    -0.307 OA
HETATM   22  H   UNK N   1      37.018  10.672  16.280  0.00  0.00     0.222 HD
ENDBRANCH  17  21
ENDBRANCH  16  17
ENDBRANCH  15  16
ENDBRANCH  14  15
BRANCH  14  23
HETATM   23  O   UNK N   1      37.660  13.315  11.854  0.00  0.00    -0.391 OA
HETATM   24  H   UNK N   1      38.374  13.937  11.643  0.00  0.00     0.210 HD
ENDBRANCH  14  23
ENDBRANCH  13  14
BRANCH  13  25
HETATM   25  O   UNK N   1      36.328  15.224  13.177  0.00  0.00    -0.390 OA
HETATM   26  H   UNK N   1      36.452  15.488  14.102  0.00  0.00     0.210 HD
ENDBRANCH  13  25
ENDBRANCH   1  13
BRANCH   1  27
HETATM   27  O   UNK N   1      33.606  15.012  11.296  0.00  0.00    -0.390 OA
HETATM   28  H   UNK N   1      32.865  14.386  11.258  0.00  0.00     0.210 HD
ENDBRANCH   1  27
TORSDOF 17
ENDMDL
MODEL 5
REMARK VINA RESULT:      -5.2      1.978      6.506
REMARK  17 active torsions:
REMARK  status: ('A' for Active; 'I' for Inactive)
REMARK    1  A    between atoms: C_3  and  C_1 
REMARK    2  A    between atoms: O_17  and  C_1 
REMARK    3  A    between atoms: C_4  and  C_2 
REMARK    4  A    between atoms: O_18  and  C_2 
REMARK    5  A    between atoms: C_5  and  C_3 
REMARK    6  A    between atoms: C_3  and  O_7 
REMARK    7  A    between atoms: C_6  and  C_4 
REMARK    8  A    between atoms: C_4  and  O_8 
REMARK    9  A    between atoms: C_6  and  C_5 
REMARK   10  A    between atoms: C_5  and  O_9 
REMARK   11  A    between atoms: C_6  and  O_10 
REMARK   12  A    between atoms: P_19  and  O_11 
REMARK   13  A    between atoms: P_19  and  O_12 
REMARK   14  A    between atoms: P_20  and  O_14 
REMARK   15  A    between atoms: P_20  and  O_15 
REMARK   16  A    between atoms: P_19  and  O_17 
REMARK   17  A    between atoms: P_20  and  O_18 
ROOT
HETATM    1  C   UNK N   1      36.242  13.895  11.360  0.00  0.00     0.180 C 
ENDROOT
BRANCH   1   2
HETATM    2  C   UNK N   1      35.322  14.101  12.582  0.00  0.00     0.173 C 
BRANCH   2   3
HETATM    3  C   UNK N   1      36.164  13.942  13.847  0.00  0.00     0.214 C 
BRANCH   3   4
HETATM    4  O   UNK N   1      35.603  13.021  14.741  0.00  0.00    -0.294 OA
BRANCH   4   5
HETATM    5  P   UNK N   1      36.895  11.913  15.106  0.00  0.00     0.390 P 
HETATM    6  O   UNK N   1      36.444  11.409  13.709  0.00  0.00    -0.632 OA
BRANCH   5   7
HETATM    7  O   UNK N   1      38.385  11.911  14.217  0.00  0.00    -0.307 OA
HETATM    8  H   UNK N   1      38.774  11.084  13.893  0.00  0.00     0.222 HD
ENDBRANCH   5   7
BRANCH   5   9
HETATM    9  O   UNK N   1      37.564  13.509  14.933  0.00  0.00    -0.307 OA
HETATM   10  H   UNK N   1      38.176  14.249  14.799  0.00  0.00     0.222 HD
ENDBRANCH   5   9
ENDBRANCH   4   5
ENDBRANCH   3   4
ENDBRANCH   2   3
BRANCH   2  11
HETATM   11  O   UNK N   1      34.298  13.153  12.600  0.00  0.00    -0.391 OA
HETATM   12  H   UNK N   1      34.278  12.206  12.808  0.00  0.00     0.210 HD
ENDBRANCH   2  11
ENDBRANCH   1   2
BRANCH   1  13
HETATM   13  C   UNK N   1      36.264  15.094  10.382  0.00  0.00     0.180 C 
BRANCH  13  14
HETATM   14  C   UNK N   1      34.855  15.722  10.257  0.00  0.00     0.173 C 
BRANCH  14  15
HETATM   15  C   UNK N   1      34.277  15.590   8.851  0.00  0.00     0.214 C 
BRANCH  15  16
HETATM   16  O   UNK N   1      34.909  16.479   7.972  0.00  0.00    -0.294 OA
BRANCH  16  17
HETATM   17  P   UNK N   1      33.698  16.910   6.803  0.00  0.00     0.390 P 
HETATM   18  O   UNK N   1      34.696  16.078   5.952  0.00  0.00    -0.632 OA
BRANCH  17  19
HETATM   19  O   UNK N   1      34.070  17.991   5.498  0.00  0.00    -0.307 OA
HETATM   20  H   UNK N   1      33.540  18.696   5.095  0.00  0.00     0.222 HD
ENDBRANCH  17  19
BRANCH  17  21
HETATM   21  O   UNK N   1      34.486  18.350   7.375  0.00  0.00    -0.307 OA
HETATM   22  H   UNK N   1      34.731  19.155   6.892  0.00  0.00     0.222 HD
ENDBRANCH  17  21
ENDBRANCH  16  17
ENDBRANCH  15  16
ENDBRANCH  14  15
BRANCH  14  23
HETATM   23  O   UNK N   1      34.878  17.073  10.620  0.00  0.00    -0.391 OA
HETATM   24  H   UNK N   1      34.482  17.954  10.706  0.00  0.00     0.210 HD
ENDBRANCH  14  23
ENDBRANCH  13  14
BRANCH  13  25
HETATM   25  O   UNK N   1      37.173  16.057  10.826  0.00  0.00    -0.390 OA
HETATM   26  H   UNK N   1      38.139  16.140  10.805  0.00  0.00     0.210 HD
ENDBRANCH  13  25
ENDBRANCH   1  13
BRANCH   1  27
HETATM   27  O   UNK N   1      37.540  13.644  11.815  0.00  0.00    -0.390 OA
HETATM   28  H   UNK N   1      38.392  14.082  11.663  0.00  0.00     0.210 HD
ENDBRANCH   1  27
TORSDOF 17
ENDMDL
MODEL 6
REMARK VINA RESULT:      -5.2      2.324      6.836
REMARK  17 active torsions:
REMARK  status: ('A' for Active; 'I' for Inactive)
REMARK    1  A    between atoms: C_3  and  C_1 
REMARK    2  A    between atoms: O_17  and  C_1 
REMARK    3  A    between atoms: C_4  and  C_2 
REMARK    4  A    between atoms: O_18  and  C_2 
REMARK    5  A    between atoms: C_5  and  C_3 
REMARK    6  A    between atoms: C_3  and  O_7 
REMARK    7  A    between atoms: C_6  and  C_4 
REMARK    8  A    between atoms: C_4  and  O_8 
REMARK    9  A    between atoms: C_6  and  C_5 
REMARK   10  A    between atoms: C_5  and  O_9 
REMARK   11  A    between atoms: C_6  and  O_10 
REMARK   12  A    between atoms: P_19  and  O_11 
REMARK   13  A    between atoms: P_19  and  O_12 
REMARK   14  A    between atoms: P_20  and  O_14 
REMARK   15  A    between atoms: P_20  and  O_15 
REMARK   16  A    between atoms: P_19  and  O_17 
REMARK   17  A    between atoms: P_20  and  O_18 
ROOT
HETATM    1  C   UNK N   1      35.381  14.754  11.905  0.00  0.00     0.180 C 
ENDROOT
BRANCH   1   2
HETATM    2  C   UNK N   1      36.239  13.561  12.377  0.00  0.00     0.173 C 
BRANCH   2   3
HETATM    3  C   UNK N   1      36.349  13.624  13.899  0.00  0.00     0.214 C 
BRANCH   3   4
HETATM    4  O   UNK N   1      35.114  13.415  14.527  0.00  0.00    -0.294 OA
BRANCH   4   5
HETATM    5  P   UNK N   1      35.515  12.763  16.091  0.00  0.00     0.390 P 
HETATM    6  O   UNK N   1      36.440  14.009  16.031  0.00  0.00    -0.632 OA
BRANCH   5   7
HETATM    7  O   UNK N   1      35.114  13.590  17.562  0.00  0.00    -0.307 OA
HETATM    8  H   UNK N   1      34.486  14.329  17.567  0.00  0.00     0.222 HD
ENDBRANCH   5   7
BRANCH   5   9
HETATM    9  O   UNK N   1      33.861  13.300  16.119  0.00  0.00    -0.307 OA
HETATM   10  H   UNK N   1      32.906  13.356  16.279  0.00  0.00     0.222 HD
ENDBRANCH   5   9
ENDBRANCH   4   5
ENDBRANCH   3   4
ENDBRANCH   2   3
BRANCH   2  11
HETATM   11  O   UNK N   1      37.521  13.621  11.829  0.00  0.00    -0.391 OA
HETATM   12  H   UNK N   1      38.100  12.955  11.427  0.00  0.00     0.210 HD
ENDBRANCH   2  11
ENDBRANCH   1   2
BRANCH   1  13
HETATM   13  C   UNK N   1      35.876  15.401  10.589  0.00  0.00     0.180 C 
BRANCH  13  14
HETATM   14  C   UNK N   1      34.786  16.322   9.990  0.00  0.00     0.173 C 
BRANCH  14  15
HETATM   15  C   UNK N   1      34.246  15.804   8.660  0.00  0.00     0.214 C 
BRANCH  15  16
HETATM   16  O   UNK N   1      33.474  16.785   8.025  0.00  0.00    -0.294 OA
BRANCH  16  17
HETATM   17  P   UNK N   1      33.991  16.776   6.367  0.00  0.00     0.390 P 
HETATM   18  O   UNK N   1      34.645  18.076   6.908  0.00  0.00    -0.632 OA
BRANCH  17  19
HETATM   19  O   UNK N   1      33.417  17.976   5.253  0.00  0.00    -0.307 OA
HETATM   20  H   UNK N   1      33.794  18.834   5.004  0.00  0.00     0.222 HD
ENDBRANCH  17  19
BRANCH  17  21
HETATM   21  O   UNK N   1      32.260  16.928   6.431  0.00  0.00    -0.307 OA
HETATM   22  H   UNK N   1      31.711  17.724   6.516  0.00  0.00     0.222 HD
ENDBRANCH  17  21
ENDBRANCH  16  17
ENDBRANCH  15  16
ENDBRANCH  14  15
BRANCH  14  23
HETATM   23  O   UNK N   1      35.273  17.621   9.814  0.00  0.00    -0.391 OA
HETATM   24  H   UNK N   1      35.771  18.405  10.093  0.00  0.00     0.210 HD
ENDBRANCH  14  23
ENDBRANCH  13  14
BRANCH  13  25
HETATM   25  O   UNK N   1      37.038  16.137  10.828  0.00  0.00    -0.390 OA
HETATM   26  H   UNK N   1      37.945  16.105  10.486  0.00  0.00     0.210 HD
ENDBRANCH  13  25
ENDBRANCH   1  13
BRANCH   1  27
HETATM   27  O   UNK N   1      34.062  14.319  11.741  0.00  0.00    -0.390 OA
HETATM   28  H   UNK N   1      33.515  13.670  12.208  0.00  0.00     0.210 HD
ENDBRANCH   1  27
TORSDOF 17
ENDMDL
MODEL 7
REMARK VINA RESULT:      -5.1      2.441      6.712
REMARK  17 active torsions:
REMARK  status: ('A' for Active; 'I' for Inactive)
REMARK    1  A    between atoms: C_3  and  C_1 
REMARK    2  A    between atoms: O_17  and  C_1 
REMARK    3  A    between atoms: C_4  and  C_2 
REMARK    4  A    between atoms: O_18  and  C_2 
REMARK    5  A    between atoms: C_5  and  C_3 
REMARK    6  A    between atoms: C_3  and  O_7 
REMARK    7  A    between atoms: C_6  and  C_4 
REMARK    8  A    between atoms: C_4  and  O_8 
REMARK    9  A    between atoms: C_6  and  C_5 
REMARK   10  A    between atoms: C_5  and  O_9 
REMARK   11  A    between atoms: C_6  and  O_10 
REMARK   12  A    between atoms: P_19  and  O_11 
REMARK   13  A    between atoms: P_19  and  O_12 
REMARK   14  A    between atoms: P_20  and  O_14 
REMARK   15  A    between atoms: P_20  and  O_15 
REMARK   16  A    between atoms: P_19  and  O_17 
REMARK   17  A    between atoms: P_20  and  O_18 
ROOT
HETATM    1  C   UNK N   1      34.441  15.818  10.721  0.00  0.00     0.180 C 
ENDROOT
BRANCH   1   2
HETATM    2  C   UNK N   1      35.879  15.327  10.990  0.00  0.00     0.173 C 
BRANCH   2   3
HETATM    3  C   UNK N   1      35.999  14.988  12.474  0.00  0.00     0.214 C 
BRANCH   3   4
HETATM    4  O   UNK N   1      36.063  13.606  12.696  0.00  0.00    -0.294 OA
BRANCH   4   5
HETATM    5  P   UNK N   1      36.149  13.437  14.426  0.00  0.00     0.390 P 
HETATM    6  O   UNK N   1      37.117  12.317  13.960  0.00  0.00    -0.632 OA
BRANCH   5   7
HETATM    7  O   UNK N   1      37.592  13.804  15.316  0.00  0.00    -0.307 OA
HETATM    8  H   UNK N   1      38.434  13.370  15.108  0.00  0.00     0.222 HD
ENDBRANCH   5   7
BRANCH   5   9
HETATM    9  O   UNK N   1      36.826  14.977  13.983  0.00  0.00    -0.307 OA
HETATM   10  H   UNK N   1      37.400  15.667  13.617  0.00  0.00     0.222 HD
ENDBRANCH   5   9
ENDBRANCH   4   5
ENDBRANCH   3   4
ENDBRANCH   2   3
BRANCH   2  11
HETATM   11  O   UNK N   1      36.811  16.319  10.677  0.00  0.00    -0.391 OA
HETATM   12  H   UNK N   1      37.032  17.170  11.087  0.00  0.00     0.210 HD
ENDBRANCH   2  11
ENDBRANCH   1   2
BRANCH   1  13
HETATM   13  C   UNK N   1      34.128  16.057   9.224  0.00  0.00     0.180 C 
BRANCH  13  14
HETATM   14  C   UNK N   1      33.955  17.568   8.937  0.00  0.00     0.173 C 
BRANCH  14  15
HETATM   15  C   UNK N   1      33.293  17.837   7.589  0.00  0.00     0.214 C 
BRANCH  15  16
HETATM   16  O   UNK N   1      34.253  17.876   6.568  0.00  0.00    -0.294 OA
BRANCH  16  17
HETATM   17  P   UNK N   1      33.476  17.179   5.179  0.00  0.00     0.390 P 
HETATM   18  O   UNK N   1      32.344  17.144   6.242  0.00  0.00    -0.632 OA
BRANCH  17  19
HETATM   19  O   UNK N   1      33.006  15.509   5.173  0.00  0.00    -0.307 OA
HETATM   20  H   UNK N   1      32.148  15.098   4.982  0.00  0.00     0.222 HD
ENDBRANCH  17  19
BRANCH  17  21
HETATM   21  O   UNK N   1      34.780  16.148   5.690  0.00  0.00    -0.307 OA
HETATM   22  H   UNK N   1      35.281  16.149   6.522  0.00  0.00     0.222 HD
ENDBRANCH  17  21
ENDBRANCH  16  17
ENDBRANCH  15  16
ENDBRANCH  14  15
BRANCH  14  23
HETATM   23  O   UNK N   1      35.187  18.229   8.985  0.00  0.00    -0.391 OA
HETATM   24  H   UNK N   1      36.156  18.255   9.019  0.00  0.00     0.210 HD
ENDBRANCH  14  23
ENDBRANCH  13  14
BRANCH  13  25
HETATM   25  O   UNK N   1      35.158  15.541   8.434  0.00  0.00    -0.390 OA
HETATM   26  H   UNK N   1      35.224  14.815   7.794  0.00  0.00     0.210 HD
ENDBRANCH  13  25
ENDBRANCH   1  13
BRANCH   1  27
HETATM   27  O   UNK N   1      33.544  14.879  11.237  0.00  0.00    -0.390 OA
HETATM   28  H   UNK N   1      32.590  14.899  11.411  0.00  0.00     0.210 HD
ENDBRANCH   1  27
TORSDOF 17
ENDMDL
MODEL 8
REMARK VINA RESULT:      -5.1     13.090     15.193
REMARK  17 active torsions:
REMARK  status: ('A' for Active; 'I' for Inactive)
REMARK    1  A    between atoms: C_3  and  C_1 
REMARK    2  A    between atoms: O_17  and  C_1 
REMARK    3  A    between atoms: C_4  and  C_2 
REMARK    4  A    between atoms: O_18  and  C_2 
REMARK    5  A    between atoms: C_5  and  C_3 
REMARK    6  A    between atoms: C_3  and  O_7 
REMARK    7  A    between atoms: C_6  and  C_4 
REMARK    8  A    between atoms: C_4  and  O_8 
REMARK    9  A    between atoms: C_6  and  C_5 
REMARK   10  A    between atoms: C_5  and  O_9 
REMARK   11  A    between atoms: C_6  and  O_10 
REMARK   12  A    between atoms: P_19  and  O_11 
REMARK   13  A    between atoms: P_19  and  O_12 
REMARK   14  A    between atoms: P_20  and  O_14 
REMARK   15  A    between atoms: P_20  and  O_15 
REMARK   16  A    between atoms: P_19  and  O_17 
REMARK   17  A    between atoms: P_20  and  O_18 
ROOT
HETATM    1  C   UNK N   1      42.384  23.408  -0.032  0.00  0.00     0.180 C 
ENDROOT
BRANCH   1   2
HETATM    2  C   UNK N   1      42.569  24.813  -0.643  0.00  0.00     0.173 C 
BRANCH   2   3
HETATM    3  C   UNK N   1      43.801  25.453  -0.006  0.00  0.00     0.214 C 
BRANCH   3   4
HETATM    4  O   UNK N   1      44.174  24.812   1.182  0.00  0.00    -0.294 OA
BRANCH   4   5
HETATM    5  P   UNK N   1      45.645  25.603   1.672  0.00  0.00     0.390 P 
HETATM    6  O   UNK N   1      44.991  25.295   3.045  0.00  0.00    -0.632 OA
BRANCH   5   7
HETATM    7  O   UNK N   1      46.912  24.757   2.501  0.00  0.00    -0.307 OA
HETATM    8  H   UNK N   1      46.829  24.523   3.439  0.00  0.00     0.222 HD
ENDBRANCH   5   7
BRANCH   5   9
HETATM    9  O   UNK N   1      46.053  24.099   0.900  0.00  0.00    -0.307 OA
HETATM   10  H   UNK N   1      46.241  23.418   0.236  0.00  0.00     0.222 HD
ENDBRANCH   5   9
ENDBRANCH   4   5
ENDBRANCH   3   4
ENDBRANCH   2   3
BRANCH   2  11
HETATM   11  O   UNK N   1      41.458  25.619  -0.384  0.00  0.00    -0.391 OA
HETATM   12  H   UNK N   1      41.338  26.579  -0.324  0.00  0.00     0.210 HD
ENDBRANCH   2  11
ENDBRANCH   1   2
BRANCH   1  13
HETATM   13  C   UNK N   1      41.215  23.311   0.978  0.00  0.00     0.180 C 
BRANCH  13  14
HETATM   14  C   UNK N   1      41.220  21.936   1.688  0.00  0.00     0.173 C 
BRANCH  14  15
HETATM   15  C   UNK N   1      42.591  21.571   2.249  0.00  0.00     0.214 C 
BRANCH  15  16
HETATM   16  O   UNK N   1      42.933  22.422   3.308  0.00  0.00    -0.294 OA
BRANCH  16  17
HETATM   17  P   UNK N   1      44.319  21.691   4.057  0.00  0.00     0.390 P 
HETATM   18  O   UNK N   1      43.994  22.855   5.032  0.00  0.00    -0.632 OA
BRANCH  17  19
HETATM   19  O   UNK N   1      45.830  22.540   4.145  0.00  0.00    -0.307 OA
HETATM   20  H   UNK N   1      46.182  23.128   4.832  0.00  0.00     0.222 HD
ENDBRANCH  17  19
BRANCH  17  21
HETATM   21  O   UNK N   1      44.775  22.341   2.511  0.00  0.00    -0.307 OA
HETATM   22  H   UNK N   1      45.484  22.965   2.286  0.00  0.00     0.222 HD
ENDBRANCH  17  21
ENDBRANCH  16  17
ENDBRANCH  15  16
ENDBRANCH  14  15
BRANCH  14  23
HETATM   23  O   UNK N   1      40.793  20.926   0.820  0.00  0.00    -0.391 OA
HETATM   24  H   UNK N   1      40.887  20.069   0.374  0.00  0.00     0.210 HD
ENDBRANCH  14  23
ENDBRANCH  13  14
BRANCH  13  25
HETATM   25  O   UNK N   1      41.316  24.333   1.924  0.00  0.00    -0.390 OA
HETATM   26  H   UNK N   1      40.864  24.534   2.758  0.00  0.00     0.210 HD
ENDBRANCH  13  25
ENDBRANCH   1  13
BRANCH   1  27
HETATM   27  O   UNK N   1      42.179  22.493  -1.068  0.00  0.00    -0.390 OA
HETATM   28  H   UNK N   1      42.455  21.573  -1.206  0.00  0.00     0.210 HD
ENDBRANCH   1  27
TORSDOF 17
ENDMDL
MODEL 9
REMARK VINA RESULT:      -5.0      2.594      6.220
REMARK  17 active torsions:
REMARK  status: ('A' for Active; 'I' for Inactive)
REMARK    1  A    between atoms: C_3  and  C_1 
REMARK    2  A    between atoms: O_17  and  C_1 
REMARK    3  A    between atoms: C_4  and  C_2 
REMARK    4  A    between atoms: O_18  and  C_2 
REMARK    5  A    between atoms: C_5  and  C_3 
REMARK    6  A    between atoms: C_3  and  O_7 
REMARK    7  A    between atoms: C_6  and  C_4 
REMARK    8  A    between atoms: C_4  and  O_8 
REMARK    9  A    between atoms: C_6  and  C_5 
REMARK   10  A    between atoms: C_5  and  O_9 
REMARK   11  A    between atoms: C_6  and  O_10 
REMARK   12  A    between atoms: P_19  and  O_11 
REMARK   13  A    between atoms: P_19  and  O_12 
REMARK   14  A    between atoms: P_20  and  O_14 
REMARK   15  A    between atoms: P_20  and  O_15 
REMARK   16  A    between atoms: P_19  and  O_17 
REMARK   17  A    between atoms: P_20  and  O_18 
ROOT
HETATM    1  C   UNK N   1      36.568  13.632  11.412  0.00  0.00     0.180 C 
ENDROOT
BRANCH   1   2
HETATM    2  C   UNK N   1      35.452  14.252  12.278  0.00  0.00     0.173 C 
BRANCH   2   3
HETATM    3  C   UNK N   1      35.679  13.827  13.728  0.00  0.00     0.214 C 
BRANCH   3   4
HETATM    4  O   UNK N   1      35.440  12.460  13.920  0.00  0.00    -0.294 OA
BRANCH   4   5
HETATM    5  P   UNK N   1      35.759  12.186  15.609  0.00  0.00     0.390 P 
HETATM    6  O   UNK N   1      36.945  13.108  15.219  0.00  0.00    -0.632 OA
BRANCH   5   7
HETATM    7  O   UNK N   1      35.639  13.456  16.785  0.00  0.00    -0.307 OA
HETATM    8  H   UNK N   1      34.896  14.079  16.778  0.00  0.00     0.222 HD
ENDBRANCH   5   7
BRANCH   5   9
HETATM    9  O   UNK N   1      34.279  13.090  15.461  0.00  0.00    -0.307 OA
HETATM   10  H   UNK N   1      33.373  13.356  15.244  0.00  0.00     0.222 HD
ENDBRANCH   5   9
ENDBRANCH   4   5
ENDBRANCH   3   4
ENDBRANCH   2   3
BRANCH   2  11
HETATM   11  O   UNK N   1      34.195  13.803  11.869  0.00  0.00    -0.391 OA
HETATM   12  H   UNK N   1      33.793  12.922  11.818  0.00  0.00     0.210 HD
ENDBRANCH   2  11
ENDBRANCH   1   2
BRANCH   1  13
HETATM   13  C   UNK N   1      37.106  14.576  10.310  0.00  0.00     0.180 C 
BRANCH  13  14
HETATM   14  C   UNK N   1      36.571  14.154   8.921  0.00  0.00     0.173 C 
BRANCH  14  15
HETATM   15  C   UNK N   1      35.260  14.848   8.562  0.00  0.00     0.214 C 
BRANCH  15  16
HETATM   16  O   UNK N   1      34.174  13.987   8.769  0.00  0.00    -0.294 OA
BRANCH  16  17
HETATM   17  P   UNK N   1      32.773  15.013   8.801  0.00  0.00     0.390 P 
HETATM   18  O   UNK N   1      33.736  15.740   9.778  0.00  0.00    -0.632 OA
BRANCH  17  19
HETATM   19  O   UNK N   1      31.812  15.155  10.238  0.00  0.00    -0.307 OA
HETATM   20  H   UNK N   1      31.685  15.907  10.838  0.00  0.00     0.222 HD
ENDBRANCH  17  19
BRANCH  17  21
HETATM   21  O   UNK N   1      32.361  13.453   9.448  0.00  0.00    -0.307 OA
HETATM   22  H   UNK N   1      32.242  12.604   8.992  0.00  0.00     0.222 HD
ENDBRANCH  17  21
ENDBRANCH  16  17
ENDBRANCH  15  16
ENDBRANCH  14  15
BRANCH  14  23
HETATM   23  O   UNK N   1      36.392  12.769   8.856  0.00  0.00    -0.391 OA
HETATM   24  H   UNK N   1      36.292  11.888   9.250  0.00  0.00     0.210 HD
ENDBRANCH  14  23
ENDBRANCH  13  14
BRANCH  13  25
HETATM   25  O   UNK N   1      36.727  15.892  10.583  0.00  0.00    -0.390 OA
HETATM   26  H   UNK N   1      37.137  16.760  10.446  0.00  0.00     0.210 HD
ENDBRANCH  13  25
ENDBRANCH   1  13
BRANCH   1  27
HETATM   27  O   UNK N   1      37.621  13.247  12.247  0.00  0.00    -0.390 OA
HETATM   28  H   UNK N   1      38.563  13.076  12.091  0.00  0.00     0.210 HD
ENDBRANCH   1  27
TORSDOF 17
ENDMDL
