REMARK  12 active torsions:
REMARK  status: ('A' for Active; 'I' for Inactive)
REMARK    1  A    between atoms: C_2  and  C_1 
REMARK    2  A    between atoms: C_5  and  C_1 
REMARK    3  A    between atoms: C_6  and  C_2 
REMARK    4  A    between atoms: C_4  and  C_3 
REMARK    5  A    between atoms: C_7  and  C_3 
REMARK    6  A    between atoms: C_8  and  C_4 
REMARK    7  A    between atoms: N_14  and  C_5 
REMARK    8  A    between atoms: C_9  and  C_6 
REMARK    9  A    between atoms: C_6  and  N_15 
REMARK   10  A    between atoms: C_7  and  O_17 
REMARK   11  A    between atoms: O_19  and  C_8 
REMARK   12  A    between atoms: O_21  and  C_9 
REMARK       I    between atoms: N_13  and  C_10 
REMARK       I    between atoms: N_14  and  C_10 
ROOT
HETATM    1  C   UNK N   1      -2.632  -1.006   0.125  0.00  0.00     0.181 C 
ENDROOT
BRANCH   1   2
HETATM    2  C   UNK N   1      -1.424  -1.330  -0.760  0.00  0.00     0.037 C 
BRANCH   2   3
HETATM    3  C   UNK N   1      -0.249  -1.916   0.009  0.00  0.00     0.023 C 
BRANCH   3   4
HETATM    4  C   UNK N   1       0.398  -0.849   0.884  0.00  0.00     0.138 C 
BRANCH   4   5
HETATM    5  N   UNK N   1       1.253   0.016   0.106  0.00  0.00    -0.227 N 
HETATM    6  C   UNK N   1       2.609  -0.318  -0.130  0.00  0.00     0.665 C 
HETATM    7  N   UNK N   1       3.371   0.514  -0.744  0.00  0.00    -0.235 N 
HETATM    8  N   UNK N   1       3.139  -1.545   0.325  0.00  0.00    -0.235 N 
HETATM    9  H   UNK N   1       4.215   0.328  -1.215  0.00  0.00     0.174 HD
ATOM     10  HN  UNK N   1       3.063   1.487  -0.744  1.00  0.00     0.174 HD
HETATM   11  H   UNK N   1       2.583  -2.293   0.642  0.00  0.00     0.174 HD
HETATM   12  H   UNK N   1       4.117  -1.658   0.325  0.00  0.00     0.174 HD
HETATM   13  H   UNK N   1       0.887   0.851  -0.267  0.00  0.00     0.177 HD
ENDBRANCH   4   5
ENDBRANCH   3   4
ENDBRANCH   2   3
ENDBRANCH   1   2
BRANCH   1  14
HETATM   14  C   UNK N   1      -3.021   0.414  -0.240  0.00  0.00     0.163 C 
HETATM   15  O   UNK N   1      -4.083   0.692  -0.764  0.00  0.00    -0.648 OA
BRANCH  14  16
HETATM   16  O   UNK N   1      -2.126   1.400  -0.022  0.00  0.00    -0.775 OA
HETATM   17  H   UNK N   1      -1.222   1.203   0.130  0.00  0.00     0.167 HD
ENDBRANCH  14  16
ENDBRANCH   1  14
BRANCH   1  18
HETATM   18  N   UNK N   1      -3.597  -2.101  -0.020  0.00  0.00    -0.360 N 
HETATM   19  C   UNK N   1      -4.896  -2.102   0.005  0.00  0.00     0.112 C 
ATOM     20  HN  UNK N   1      -3.177  -3.019  -0.165  1.00  0.00     0.162 HD
BRANCH  19  21
HETATM   21  C   UNK N   1      -5.652  -3.399  -0.100  0.00  0.00     0.094 C 
BRANCH  21  22
HETATM   22  C   UNK N   1      -4.760  -4.635  -0.006  0.00  0.00     0.118 C 
BRANCH  22  23
HETATM   23  C   UNK N   1      -5.548  -5.912  -0.006  0.00  0.00     0.139 C 
HETATM   24  O   UNK N   1      -4.962  -6.977   0.092  0.00  0.00    -0.650 OA
BRANCH  23  25
HETATM   25  O   UNK N   1      -6.892  -5.900  -0.112  0.00  0.00    -0.776 OA
HETATM   26  H   UNK N   1      -7.351  -5.086  -0.186  0.00  0.00     0.167 HD
ENDBRANCH  23  25
ENDBRANCH  22  23
ENDBRANCH  21  22
ENDBRANCH  19  21
BRANCH  19  27
HETATM   27  O   UNK N   1      -5.609  -0.974   0.163  0.00  0.00    -0.350 OA
HETATM   28  H   UNK N   1      -5.176  -0.150   0.273  0.00  0.00     0.219 HD
ENDBRANCH  19  27
ENDBRANCH   1  18
TORSDOF 12
