REMARK  18 active torsions:
REMARK  status: ('A' for Active; 'I' for Inactive)
REMARK    1  A    between atoms: C_6  and  C_3 
REMARK    2  A    between atoms: O_18  and  C_3 
REMARK    3  A    between atoms: C_6  and  C_4 
REMARK    4  A    between atoms: O_27  and  C_4 
REMARK    5  A    between atoms: C_7  and  C_5 
REMARK    6  A    between atoms: O_28  and  C_5 
REMARK    7  A    between atoms: C_6  and  O_19 
REMARK    8  A    between atoms: N_13  and  C_8 
REMARK    9  A    between atoms: C_9  and  O_20 
REMARK   10  A    between atoms: C_10  and  O_21 
REMARK   11  A    between atoms: C_11  and  N_17 
REMARK   12  A    between atoms: O_22  and  C_12 
REMARK   13  A    between atoms: P_31  and  O_23 
REMARK   14  A    between atoms: P_32  and  O_25 
REMARK   15  A    between atoms: P_31  and  O_27 
REMARK   16  A    between atoms: P_32  and  O_28 
REMARK   17  A    between atoms: P_31  and  O_30 
REMARK   18  A    between atoms: P_32  and  O_30 
ROOT
HETATM    1  C   UNK N   1      13.317  -4.855  -0.966  0.00  0.00     0.180 C 
HETATM    2  C   UNK N   1      13.237  -6.338  -0.545  0.00  0.00     0.182 C 
HETATM    3  C   UNK N   1      14.685  -6.743  -0.534  0.00  0.00     0.198 C 
HETATM    4  C   UNK N   1      15.253  -5.427  -0.007  0.00  0.00     0.262 C 
HETATM    5  O   UNK N   1      14.665  -4.448  -0.835  0.00  0.00    -0.353 OA
ENDROOT
BRANCH   1   6
HETATM    6  C   UNK N   1      12.493  -4.039   0.018  0.00  0.00     0.215 C 
BRANCH   6   7
HETATM    7  O   UNK N   1      12.027  -2.835  -0.501  0.00  0.00    -0.294 OA
BRANCH   7   8
HETATM    8  P   UNK N   1      10.826  -2.297   0.660  0.00  0.00     0.401 P 
HETATM    9  O   UNK N   1      11.175  -2.897   2.052  0.00  0.00    -0.631 OA
BRANCH   8  10
HETATM   10  O   UNK N   1      11.024  -0.585   0.895  0.00  0.00    -0.307 OA
HETATM   11  H   UNK N   1      11.906  -0.203   1.027  0.00  0.00     0.222 HD
ENDBRANCH   8  10
BRANCH   8  12
HETATM   12  O   UNK N   1       9.134  -2.720   0.372  0.00  0.00    -0.195 OA
BRANCH  12  13
HETATM   13  P   UNK N   1       9.004  -4.081  -0.745  0.00  0.00     0.401 P 
HETATM   14  O   UNK N   1      10.195  -5.072  -0.719  0.00  0.00    -0.631 OA
BRANCH  13  15
HETATM   15  O   UNK N   1       9.137  -3.341  -2.285  0.00  0.00    -0.307 OA
HETATM   16  H   UNK N   1       9.538  -3.197  -3.157  0.00  0.00     0.222 HD
ENDBRANCH  13  15
BRANCH  13  17
HETATM   17  O   UNK N   1       7.528  -5.011  -0.914  0.00  0.00    -0.294 OA
BRANCH  17  18
HETATM   18  C   UNK N   1       6.935  -5.149   0.335  0.00  0.00     0.214 C 
BRANCH  18  19
HETATM   19  C   UNK N   1       5.468  -4.763   0.227  0.00  0.00     0.166 C 
BRANCH  19  20
HETATM   20  C   UNK N   1       4.998  -4.359   1.608  0.00  0.00     0.198 C 
BRANCH  20  21
HETATM   21  O   UNK N   1       3.732  -3.781   1.535  0.00  0.00    -0.398 OA
HETATM   22  H   UNK N   1       3.639  -2.817   1.485  0.00  0.00     0.209 HD
ENDBRANCH  20  21
ENDBRANCH  19  20
BRANCH  19  23
HETATM   23  O   UNK N   1       4.701  -5.830  -0.252  0.00  0.00    -0.391 OA
HETATM   24  H   UNK N   1       3.794  -5.740  -0.584  0.00  0.00     0.210 HD
ENDBRANCH  19  23
ENDBRANCH  18  19
ENDBRANCH  17  18
ENDBRANCH  13  17
ENDBRANCH  12  13
ENDBRANCH   8  12
ENDBRANCH   7   8
ENDBRANCH   6   7
ENDBRANCH   1   6
BRANCH   2  25
HETATM   25  O   UNK N   1      12.448  -7.117  -1.397  0.00  0.00    -0.390 OA
HETATM   26  H   UNK N   1      11.706  -6.914  -1.988  0.00  0.00     0.210 HD
ENDBRANCH   2  25
BRANCH   3  27
HETATM   27  O   UNK N   1      15.125  -6.968  -1.845  0.00  0.00    -0.388 OA
HETATM   28  H   UNK N   1      15.142  -7.310  -2.752  0.00  0.00     0.210 HD
ENDBRANCH   3  27
BRANCH   4  29
HETATM   29  N   UNK N   1      16.718  -5.243   0.066  0.00  0.00    -0.293 N 
HETATM   30  C   UNK N   1      17.134  -3.987   0.397  0.00  0.00     0.101 A 
HETATM   31  C   UNK N   1      18.482  -3.690   0.549  0.00  0.00     0.065 A 
HETATM   32  C   UNK N   1      19.403  -4.708   0.368  0.00  0.00     0.102 A 
HETATM   33  N   UNK N   1      18.980  -5.953   0.048  0.00  0.00    -0.308 N 
HETATM   34  C   UNK N   1      17.656  -6.239  -0.106  0.00  0.00     0.227 A 
ATOM     35  HN  UNK N   1      19.667  -6.695  -0.082  1.00  0.00     0.171 HD
BRANCH  32  36
HETATM   36  N   UNK N   1      20.650  -4.473   0.518  0.00  0.00    -0.385 N 
HETATM   37  H   UNK N   1      21.287  -5.215   0.633  0.00  0.00     0.157 HD
ATOM     38  HN  UNK N   1      20.988  -3.511   0.518  1.00  0.00     0.157 HD
ENDBRANCH  32  36
BRANCH  34  39
HETATM   39  O   UNK N   1      17.302  -7.501  -0.385  0.00  0.00    -0.332 OA
HETATM   40  H   UNK N   1      16.414  -7.727  -0.580  0.00  0.00     0.221 HD
ENDBRANCH  34  39
ENDBRANCH   4  29
TORSDOF 18
