MODEL 1
REMARK VINA RESULT:      -7.3      0.000      0.000
REMARK WARNING: 32 MAX_TORS EXCEEDED!!!
REMARK  36 active torsions:
REMARK  status: ('A' for Active; 'I' for Inactive)
REMARK    1  A    between atoms: C_9  and  C_7 
REMARK    2  A    between atoms: C_19  and  C_7 
REMARK    3  A    between atoms: C_10  and  C_8 
REMARK    4  A    between atoms: C_23  and  C_8 
REMARK    5  A    between atoms: N_35  and  C_9 
REMARK    6  A    between atoms: N_39  and  C_10 
REMARK    7  A    between atoms: C_12  and  C_11 
REMARK    8  A    between atoms: N_37  and  C_11 
REMARK    9  A    between atoms: S_69  and  C_12 
REMARK   10  A    between atoms: C_22  and  C_14 
REMARK   11  A    between atoms: O_61  and  C_14 
REMARK   12  A    between atoms: C_24  and  C_15 
REMARK   13  A    between atoms: S_69  and  C_15 
REMARK   14  A    between atoms: C_33  and  C_16 
REMARK   15  A    between atoms: O_62  and  C_16 
REMARK   16  A    between atoms: N_37  and  C_23 
REMARK   17  A    between atoms: O_49  and  C_23 
REMARK   18  A    between atoms: N_35  and  C_24 
REMARK   19  A    between atoms: O_50  and  C_24 
REMARK   20  A    between atoms: C_26  and  O_51 
REMARK   21  A    between atoms: C_27  and  O_64 
REMARK   22  A    between atoms: C_31  and  C_28 
REMARK   23  A    between atoms: C_33  and  C_28 
REMARK   24  A    between atoms: C_28  and  O_52 
REMARK   25  A    between atoms: N_34  and  C_29 
REMARK   26  A    between atoms: N_39  and  C_31 
REMARK   27  A    between atoms: O_53  and  C_31 
REMARK   28  A    between atoms: C_32  and  N_48 
REMARK   29  A    between atoms: P_66  and  O_54 
REMARK   30  A    between atoms: P_66  and  O_55 
REMARK   31  A    between atoms: P_67  and  O_57 
REMARK   32  A    between atoms: P_67  and  O_61 
REMARK   33  A    between atoms: P_68  and  O_62 
REMARK   34  A    between atoms: P_66  and  O_64 
REMARK   35  A    between atoms: P_67  and  O_65 
REMARK   36  A    between atoms: P_68  and  O_65 
ROOT
HETATM    1  O   UNK N   1      30.136  14.435   2.370  0.00  0.00    -0.307 OA
HETATM    2  O   UNK N   1      30.006  12.936   4.525  0.00  0.00    -0.631 OA
HETATM    3  P   UNK N   1      30.261  14.408   4.092  0.00  0.00     0.401 P 
HETATM    4  H   UNK N   1      30.201  14.499   1.405  0.00  0.00     0.222 HD
ENDROOT
BRANCH   3   5
HETATM    5  O   UNK N   1      29.005  15.407   4.793  0.00  0.00    -0.296 OA
BRANCH   5   6
HETATM    6  C   UNK N   1      27.911  15.446   3.893  0.00  0.00     0.192 C 
BRANCH   6   7
HETATM    7  C   UNK N   1      26.517  15.230   4.550  0.00  0.00     0.008 C 
HETATM    8  C   UNK N   1      25.462  15.024   3.480  0.00  0.00     0.020 C 
HETATM    9  C   UNK N   1      26.508  13.991   5.429  0.00  0.00     0.020 C 
BRANCH   7  10
HETATM   10  C   UNK N   1      26.072  16.447   5.405  0.00  0.00     0.202 C 
BRANCH  10  11
HETATM   11  C   UNK N   1      24.710  17.043   5.128  0.00  0.00     0.141 C 
BRANCH  11  12
HETATM   12  N   UNK N   1      24.523  17.917   4.198  0.00  0.00    -0.372 N 
ATOM     13  HN  UNK N   1      25.205  18.011   3.446  1.00  0.00     0.161 HD
BRANCH  12  14
HETATM   14  C   UNK N   1      23.354  18.764   4.216  0.00  0.00     0.129 C 
BRANCH  14  15
HETATM   15  C   UNK N   1      23.509  19.958   3.296  0.00  0.00     0.103 C 
BRANCH  15  16
HETATM   16  C   UNK N   1      22.218  20.399   2.690  0.00  0.00     0.112 C 
BRANCH  16  17
HETATM   17  N   UNK N   1      21.409  19.529   2.193  0.00  0.00    -0.374 N 
ATOM     18  HN  UNK N   1      21.773  18.804   1.574  1.00  0.00     0.161 HD
BRANCH  17  19
HETATM   19  C   UNK N   1      19.999  19.563   2.493  0.00  0.00     0.131 C 
BRANCH  19  20
HETATM   20  C   UNK N   1      19.556  18.240   3.120  0.00  0.00     0.094 C 
BRANCH  20  21
HETATM   21  S   UNK N   1      20.451  16.793   2.442  0.00  0.00    -0.159 SA
BRANCH  21  22
HETATM   22  C   UNK N   1      19.761  15.632   3.655  0.00  0.00     0.157 C 
BRANCH  22  23
HETATM   23  C   UNK N   1      20.794  15.135   4.635  0.00  0.00     0.120 C 
BRANCH  23  24
HETATM   24  N   UNK N   1      20.492  14.956   5.875  0.00  0.00    -0.374 N 
ATOM     25  HN  UNK N   1      20.124  15.741   6.412  1.00  0.00     0.161 HD
BRANCH  24  26
HETATM   26  C   UNK N   1      20.657  13.678   6.527  0.00  0.00     0.126 C 
BRANCH  26  27
HETATM   27  C   UNK N   1      20.813  13.870   8.023  0.00  0.00     0.060 C 
BRANCH  27  28
HETATM   28  C   UNK N   1      22.209  13.544   8.436  0.00  0.00    -0.029 A 
HETATM   29  C   UNK N   1      23.356  13.750   7.679  0.00  0.00     0.096 A 
HETATM   30  N   UNK N   1      24.442  13.331   8.377  0.00  0.00    -0.365 N 
HETATM   31  C   UNK N   1      23.976  12.873   9.555  0.00  0.00     0.042 A 
HETATM   32  H   UNK N   1      25.381  13.358   8.083  0.00  0.00     0.165 HD
HETATM   33  C   UNK N   1      24.722  12.340  10.602  0.00  0.00     0.030 A 
HETATM   34  C   UNK N   1      22.618  12.990   9.623  0.00  0.00    -0.002 A 
HETATM   35  C   UNK N   1      24.028  11.918  11.751  0.00  0.00     0.002 A 
HETATM   36  C   UNK N   1      22.621  12.039  11.823  0.00  0.00     0.001 A 
HETATM   37  C   UNK N   1      21.899  12.583  10.745  0.00  0.00     0.014 A 
ENDBRANCH  27  28
ENDBRANCH  26  27
ENDBRANCH  24  26
ENDBRANCH  23  24
BRANCH  23  38
HETATM   38  O   UNK N   1      22.039  14.839   4.213  0.00  0.00    -0.349 OA
HETATM   39  H   UNK N   1      22.827  14.602   4.660  0.00  0.00     0.219 HD
ENDBRANCH  23  38
ENDBRANCH  22  23
ENDBRANCH  21  22
ENDBRANCH  20  21
ENDBRANCH  19  20
ENDBRANCH  17  19
ENDBRANCH  16  17
BRANCH  16  40
HETATM   40  O   UNK N   1      21.876  21.704   2.746  0.00  0.00    -0.350 OA
HETATM   41  H   UNK N   1      21.926  22.194   3.543  0.00  0.00     0.219 HD
ENDBRANCH  16  40
ENDBRANCH  15  16
ENDBRANCH  14  15
ENDBRANCH  12  14
ENDBRANCH  11  12
BRANCH  11  42
HETATM   42  O   UNK N   1      23.677  16.656   5.908  0.00  0.00    -0.348 OA
HETATM   43  H   UNK N   1      23.171  15.899   5.683  0.00  0.00     0.219 HD
ENDBRANCH  11  42
ENDBRANCH  10  11
BRANCH  10  44
HETATM   44  O   UNK N   1      26.152  16.126   6.764  0.00  0.00    -0.387 OA
HETATM   45  H   UNK N   1      26.626  16.498   7.523  0.00  0.00     0.210 HD
ENDBRANCH  10  44
ENDBRANCH   7  10
ENDBRANCH   6   7
ENDBRANCH   5   6
ENDBRANCH   3   5
BRANCH   3  46
HETATM   46  O   UNK N   1      31.907  14.806   4.540  0.00  0.00    -0.195 OA
BRANCH  46  47
HETATM   47  P   UNK N   1      32.353  16.270   3.680  0.00  0.00     0.401 P 
HETATM   48  O   UNK N   1      33.023  15.823   2.351  0.00  0.00    -0.631 OA
BRANCH  47  49
HETATM   49  O   UNK N   1      30.995  17.235   3.179  0.00  0.00    -0.307 OA
HETATM   50  H   UNK N   1      30.406  17.969   2.943  0.00  0.00     0.222 HD
ENDBRANCH  47  49
BRANCH  47  51
HETATM   51  O   UNK N   1      33.507  17.261   4.532  0.00  0.00    -0.294 OA
BRANCH  51  52
HETATM   52  C   UNK N   1      33.695  16.695   5.798  0.00  0.00     0.215 C 
BRANCH  52  53
HETATM   53  C   UNK N   1      32.756  17.315   6.847  0.00  0.00     0.180 C 
HETATM   54  C   UNK N   1      32.663  16.533   8.164  0.00  0.00     0.197 C 
HETATM   55  C   UNK N   1      31.428  17.180   8.709  0.00  0.00     0.199 C 
HETATM   56  C   UNK N   1      30.571  17.117   7.447  0.00  0.00     0.262 C 
HETATM   57  O   UNK N   1      31.428  17.454   6.362  0.00  0.00    -0.353 OA
BRANCH  54  58
HETATM   58  O   UNK N   1      33.764  16.717   9.029  0.00  0.00    -0.286 OA
BRANCH  58  59
HETATM   59  P   UNK N   1      34.187  15.188   9.771  0.00  0.00     0.391 P 
HETATM   60  O   UNK N   1      33.900  14.074   8.730  0.00  0.00    -0.632 OA
BRANCH  59  61
HETATM   61  O   UNK N   1      33.253  14.837  11.193  0.00  0.00    -0.307 OA
HETATM   62  H   UNK N   1      32.707  15.109  11.948  0.00  0.00     0.222 HD
ENDBRANCH  59  61
BRANCH  59  63
HETATM   63  O   UNK N   1      35.881  15.110  10.131  0.00  0.00    -0.307 OA
HETATM   64  H   UNK N   1      36.270  14.284  10.460  0.00  0.00     0.222 HD
ENDBRANCH  59  63
ENDBRANCH  58  59
ENDBRANCH  54  58
BRANCH  55  65
HETATM   65  O   UNK N   1      30.877  16.479   9.784  0.00  0.00    -0.388 OA
HETATM   66  H   UNK N   1      30.807  15.551  10.060  0.00  0.00     0.210 HD
ENDBRANCH  55  65
BRANCH  56  67
HETATM   67  N   UNK N   1      29.374  17.973   7.465  0.00  0.00    -0.297 N 
HETATM   68  C   UNK N   1      28.715  18.323   8.601  0.00  0.00     0.188 A 
HETATM   69  N   UNK N   1      27.655  19.137   8.338  0.00  0.00    -0.346 N 
HETATM   70  C   UNK N   1      27.678  19.293   7.005  0.00  0.00     0.122 A 
ATOM     71  HN  UNK N   1      26.993  19.537   9.004  1.00  0.00     0.167 HD
HETATM   72  C   UNK N   1      26.841  20.036   6.188  0.00  0.00     0.131 A 
HETATM   73  C   UNK N   1      28.705  18.597   6.475  0.00  0.00     0.142 A 
HETATM   74  N   UNK N   1      27.095  20.043   4.847  0.00  0.00    -0.337 N 
HETATM   75  C   UNK N   1      28.149  19.331   4.325  0.00  0.00     0.183 A 
ATOM     76  HN  UNK N   1      26.495  20.582   4.223  1.00  0.00     0.168 HD
HETATM   77  N   UNK N   1      28.966  18.599   5.146  0.00  0.00    -0.336 N 
ATOM     78  HN  UNK N   1      29.750  18.069   4.766  1.00  0.00     0.168 HD
BRANCH  72  79
HETATM   79  N   UNK N   1      25.762  20.773   6.720  0.00  0.00    -0.383 N 
HETATM   80  H   UNK N   1      25.586  20.766   7.688  0.00  0.00     0.157 HD
HETATM   81  H   UNK N   1      25.183  21.295   6.119  0.00  0.00     0.157 HD
ENDBRANCH  72  79
ENDBRANCH  56  67
ENDBRANCH  52  53
ENDBRANCH  51  52
ENDBRANCH  47  51
ENDBRANCH  46  47
ENDBRANCH   3  46
TORSDOF 36
ENDMDL
MODEL 2
REMARK VINA RESULT:      -7.3      4.708      6.624
REMARK WARNING: 32 MAX_TORS EXCEEDED!!!
REMARK  36 active torsions:
REMARK  status: ('A' for Active; 'I' for Inactive)
REMARK    1  A    between atoms: C_9  and  C_7 
REMARK    2  A    between atoms: C_19  and  C_7 
REMARK    3  A    between atoms: C_10  and  C_8 
REMARK    4  A    between atoms: C_23  and  C_8 
REMARK    5  A    between atoms: N_35  and  C_9 
REMARK    6  A    between atoms: N_39  and  C_10 
REMARK    7  A    between atoms: C_12  and  C_11 
REMARK    8  A    between atoms: N_37  and  C_11 
REMARK    9  A    between atoms: S_69  and  C_12 
REMARK   10  A    between atoms: C_22  and  C_14 
REMARK   11  A    between atoms: O_61  and  C_14 
REMARK   12  A    between atoms: C_24  and  C_15 
REMARK   13  A    between atoms: S_69  and  C_15 
REMARK   14  A    between atoms: C_33  and  C_16 
REMARK   15  A    between atoms: O_62  and  C_16 
REMARK   16  A    between atoms: N_37  and  C_23 
REMARK   17  A    between atoms: O_49  and  C_23 
REMARK   18  A    between atoms: N_35  and  C_24 
REMARK   19  A    between atoms: O_50  and  C_24 
REMARK   20  A    between atoms: C_26  and  O_51 
REMARK   21  A    between atoms: C_27  and  O_64 
REMARK   22  A    between atoms: C_31  and  C_28 
REMARK   23  A    between atoms: C_33  and  C_28 
REMARK   24  A    between atoms: C_28  and  O_52 
REMARK   25  A    between atoms: N_34  and  C_29 
REMARK   26  A    between atoms: N_39  and  C_31 
REMARK   27  A    between atoms: O_53  and  C_31 
REMARK   28  A    between atoms: C_32  and  N_48 
REMARK   29  A    between atoms: P_66  and  O_54 
REMARK   30  A    between atoms: P_66  and  O_55 
REMARK   31  A    between atoms: P_67  and  O_57 
REMARK   32  A    between atoms: P_67  and  O_61 
REMARK   33  A    between atoms: P_68  and  O_62 
REMARK   34  A    between atoms: P_66  and  O_64 
REMARK   35  A    between atoms: P_67  and  O_65 
REMARK   36  A    between atoms: P_68  and  O_65 
ROOT
HETATM    1  O   UNK N   1      32.688  15.716   7.408  0.00  0.00    -0.307 OA
HETATM    2  O   UNK N   1      30.629  16.657   8.743  0.00  0.00    -0.631 OA
HETATM    3  P   UNK N   1      31.631  17.063   7.624  0.00  0.00     0.401 P 
HETATM    4  H   UNK N   1      33.388  15.050   7.321  0.00  0.00     0.222 HD
ENDROOT
BRANCH   3   5
HETATM    5  O   UNK N   1      30.721  17.344   6.154  0.00  0.00    -0.296 OA
BRANCH   5   6
HETATM    6  C   UNK N   1      29.567  16.521   6.179  0.00  0.00     0.192 C 
BRANCH   6   7
HETATM    7  C   UNK N   1      28.226  17.270   5.937  0.00  0.00     0.008 C 
HETATM    8  C   UNK N   1      27.062  16.431   6.429  0.00  0.00     0.020 C 
HETATM    9  C   UNK N   1      28.181  18.583   6.700  0.00  0.00     0.020 C 
BRANCH   7  10
HETATM   10  C   UNK N   1      27.977  17.563   4.433  0.00  0.00     0.202 C 
BRANCH  10  11
HETATM   11  C   UNK N   1      27.244  18.838   4.075  0.00  0.00     0.141 C 
BRANCH  11  12
HETATM   12  N   UNK N   1      25.956  18.905   4.064  0.00  0.00    -0.372 N 
ATOM     13  HN  UNK N   1      25.405  18.048   4.029  1.00  0.00     0.161 HD
BRANCH  12  14
HETATM   14  C   UNK N   1      25.291  20.185   4.100  0.00  0.00     0.129 C 
BRANCH  14  15
HETATM   15  C   UNK N   1      24.518  20.455   2.825  0.00  0.00     0.103 C 
BRANCH  15  16
HETATM   16  C   UNK N   1      23.039  20.389   3.013  0.00  0.00     0.112 C 
BRANCH  16  17
HETATM   17  N   UNK N   1      22.499  19.325   3.496  0.00  0.00    -0.374 N 
ATOM     18  HN  UNK N   1      23.051  18.469   3.562  1.00  0.00     0.161 HD
BRANCH  17  19
HETATM   19  C   UNK N   1      21.127  19.319   3.942  0.00  0.00     0.131 C 
BRANCH  19  20
HETATM   20  C   UNK N   1      20.450  18.000   3.570  0.00  0.00     0.094 C 
BRANCH  20  21
HETATM   21  S   UNK N   1      21.197  16.552   4.408  0.00  0.00    -0.159 SA
BRANCH  21  22
HETATM   22  C   UNK N   1      20.738  17.113   6.072  0.00  0.00     0.157 C 
BRANCH  22  23
HETATM   23  C   UNK N   1      19.926  16.090   6.826  0.00  0.00     0.120 C 
BRANCH  23  24
HETATM   24  N   UNK N   1      19.873  16.112   8.114  0.00  0.00    -0.374 N 
ATOM     25  HN  UNK N   1      19.076  16.558   8.567  1.00  0.00     0.161 HD
BRANCH  24  26
HETATM   26  C   UNK N   1      20.907  15.524   8.933  0.00  0.00     0.126 C 
BRANCH  26  27
HETATM   27  C   UNK N   1      20.433  14.202   9.505  0.00  0.00     0.060 C 
BRANCH  27  28
HETATM   28  C   UNK N   1      21.549  13.211   9.488  0.00  0.00    -0.029 A 
HETATM   29  C   UNK N   1      22.415  12.936  10.539  0.00  0.00     0.096 A 
HETATM   30  N   UNK N   1      23.302  11.981  10.158  0.00  0.00    -0.365 N 
HETATM   31  C   UNK N   1      22.988  11.664   8.887  0.00  0.00     0.042 A 
HETATM   32  H   UNK N   1      24.028  11.596  10.701  0.00  0.00     0.165 HD
HETATM   33  C   UNK N   1      23.622  10.729   8.074  0.00  0.00     0.030 A 
HETATM   34  C   UNK N   1      21.922  12.396   8.449  0.00  0.00    -0.002 A 
HETATM   35  C   UNK N   1      23.127  10.555   6.769  0.00  0.00     0.002 A 
HETATM   36  C   UNK N   1      22.024  11.312   6.314  0.00  0.00     0.001 A 
HETATM   37  C   UNK N   1      21.406  12.249   7.163  0.00  0.00     0.014 A 
ENDBRANCH  27  28
ENDBRANCH  26  27
ENDBRANCH  24  26
ENDBRANCH  23  24
BRANCH  23  38
HETATM   38  O   UNK N   1      19.219  15.160   6.155  0.00  0.00    -0.349 OA
HETATM   39  H   UNK N   1      19.223  14.874   5.263  0.00  0.00     0.219 HD
ENDBRANCH  23  38
ENDBRANCH  22  23
ENDBRANCH  21  22
ENDBRANCH  20  21
ENDBRANCH  19  20
ENDBRANCH  17  19
ENDBRANCH  16  17
BRANCH  16  40
HETATM   40  O   UNK N   1      22.292  21.483   2.752  0.00  0.00    -0.350 OA
HETATM   41  H   UNK N   1      22.172  22.162   3.386  0.00  0.00     0.219 HD
ENDBRANCH  16  40
ENDBRANCH  15  16
ENDBRANCH  14  15
ENDBRANCH  12  14
ENDBRANCH  11  12
BRANCH  11  42
HETATM   42  O   UNK N   1      27.980  19.919   3.732  0.00  0.00    -0.348 OA
HETATM   43  H   UNK N   1      28.541  20.328   4.361  0.00  0.00     0.219 HD
ENDBRANCH  11  42
ENDBRANCH  10  11
BRANCH  10  44
HETATM   44  O   UNK N   1      29.189  17.535   3.737  0.00  0.00    -0.387 OA
HETATM   45  H   UNK N   1      29.810  16.835   3.481  0.00  0.00     0.210 HD
ENDBRANCH  10  44
ENDBRANCH   7  10
ENDBRANCH   6   7
ENDBRANCH   5   6
ENDBRANCH   3   5
BRANCH   3  46
HETATM   46  O   UNK N   1      32.565  18.417   8.225  0.00  0.00    -0.195 OA
BRANCH  46  47
HETATM   47  P   UNK N   1      34.262  17.978   8.129  0.00  0.00     0.401 P 
HETATM   48  O   UNK N   1      34.565  17.683   6.633  0.00  0.00    -0.631 OA
BRANCH  47  49
HETATM   49  O   UNK N   1      35.350  19.270   8.546  0.00  0.00    -0.307 OA
HETATM   50  H   UNK N   1      35.947  20.033   8.522  0.00  0.00     0.222 HD
ENDBRANCH  47  49
BRANCH  47  51
HETATM   51  O   UNK N   1      34.668  16.542   9.030  0.00  0.00    -0.294 OA
BRANCH  51  52
HETATM   52  C   UNK N   1      35.407  16.942  10.150  0.00  0.00     0.215 C 
BRANCH  52  53
HETATM   53  C   UNK N   1      36.077  15.748  10.850  0.00  0.00     0.180 C 
HETATM   54  C   UNK N   1      36.169  14.476   9.996  0.00  0.00     0.197 C 
HETATM   55  C   UNK N   1      36.473  13.505  11.094  0.00  0.00     0.199 C 
HETATM   56  C   UNK N   1      35.411  13.963  12.092  0.00  0.00     0.262 C 
HETATM   57  O   UNK N   1      35.406  15.385  12.049  0.00  0.00    -0.353 OA
BRANCH  54  58
HETATM   58  O   UNK N   1      37.199  14.497   9.031  0.00  0.00    -0.286 OA
BRANCH  58  59
HETATM   59  P   UNK N   1      36.609  13.814   7.530  0.00  0.00     0.391 P 
HETATM   60  O   UNK N   1      37.807  13.761   6.545  0.00  0.00    -0.632 OA
BRANCH  59  61
HETATM   61  O   UNK N   1      35.358  14.766   6.791  0.00  0.00    -0.307 OA
HETATM   62  H   UNK N   1      34.462  15.137   6.774  0.00  0.00     0.222 HD
ENDBRANCH  59  61
BRANCH  59  63
HETATM   63  O   UNK N   1      36.071  12.181   7.751  0.00  0.00    -0.307 OA
HETATM   64  H   UNK N   1      35.605  11.723   7.033  0.00  0.00     0.222 HD
ENDBRANCH  59  63
ENDBRANCH  58  59
ENDBRANCH  54  58
BRANCH  55  65
HETATM   65  O   UNK N   1      36.319  12.174  10.699  0.00  0.00    -0.388 OA
HETATM   66  H   UNK N   1      35.740  11.431  10.934  0.00  0.00     0.210 HD
ENDBRANCH  55  65
BRANCH  56  67
HETATM   67  N   UNK N   1      35.600  13.474  13.468  0.00  0.00    -0.297 N 
HETATM   68  C   UNK N   1      36.410  14.077  14.378  0.00  0.00     0.188 A 
HETATM   69  N   UNK N   1      36.386  13.432  15.577  0.00  0.00    -0.346 N 
HETATM   70  C   UNK N   1      35.530  12.414  15.393  0.00  0.00     0.122 A 
ATOM     71  HN  UNK N   1      36.902  13.669  16.425  1.00  0.00     0.167 HD
HETATM   72  C   UNK N   1      35.109  11.440  16.284  0.00  0.00     0.131 A 
HETATM   73  C   UNK N   1      35.056  12.432  14.130  0.00  0.00     0.142 A 
HETATM   74  N   UNK N   1      34.206  10.517  15.844  0.00  0.00    -0.337 N 
HETATM   75  C   UNK N   1      33.730  10.553  14.555  0.00  0.00     0.183 A 
ATOM     76  HN  UNK N   1      33.878   9.790  16.480  1.00  0.00     0.168 HD
HETATM   77  N   UNK N   1      34.158  11.522  13.684  0.00  0.00    -0.336 N 
ATOM     78  HN  UNK N   1      33.809  11.555  12.726  1.00  0.00     0.168 HD
BRANCH  72  79
HETATM   79  N   UNK N   1      35.590  11.402  17.609  0.00  0.00    -0.383 N 
HETATM   80  H   UNK N   1      36.519  11.658  17.808  0.00  0.00     0.157 HD
HETATM   81  H   UNK N   1      34.993  11.119  18.338  0.00  0.00     0.157 HD
ENDBRANCH  72  79
ENDBRANCH  56  67
ENDBRANCH  52  53
ENDBRANCH  51  52
ENDBRANCH  47  51
ENDBRANCH  46  47
ENDBRANCH   3  46
TORSDOF 36
ENDMDL
MODEL 3
REMARK VINA RESULT:      -7.1      3.674      6.044
REMARK WARNING: 32 MAX_TORS EXCEEDED!!!
REMARK  36 active torsions:
REMARK  status: ('A' for Active; 'I' for Inactive)
REMARK    1  A    between atoms: C_9  and  C_7 
REMARK    2  A    between atoms: C_19  and  C_7 
REMARK    3  A    between atoms: C_10  and  C_8 
REMARK    4  A    between atoms: C_23  and  C_8 
REMARK    5  A    between atoms: N_35  and  C_9 
REMARK    6  A    between atoms: N_39  and  C_10 
REMARK    7  A    between atoms: C_12  and  C_11 
REMARK    8  A    between atoms: N_37  and  C_11 
REMARK    9  A    between atoms: S_69  and  C_12 
REMARK   10  A    between atoms: C_22  and  C_14 
REMARK   11  A    between atoms: O_61  and  C_14 
REMARK   12  A    between atoms: C_24  and  C_15 
REMARK   13  A    between atoms: S_69  and  C_15 
REMARK   14  A    between atoms: C_33  and  C_16 
REMARK   15  A    between atoms: O_62  and  C_16 
REMARK   16  A    between atoms: N_37  and  C_23 
REMARK   17  A    between atoms: O_49  and  C_23 
REMARK   18  A    between atoms: N_35  and  C_24 
REMARK   19  A    between atoms: O_50  and  C_24 
REMARK   20  A    between atoms: C_26  and  O_51 
REMARK   21  A    between atoms: C_27  and  O_64 
REMARK   22  A    between atoms: C_31  and  C_28 
REMARK   23  A    between atoms: C_33  and  C_28 
REMARK   24  A    between atoms: C_28  and  O_52 
REMARK   25  A    between atoms: N_34  and  C_29 
REMARK   26  A    between atoms: N_39  and  C_31 
REMARK   27  A    between atoms: O_53  and  C_31 
REMARK   28  A    between atoms: C_32  and  N_48 
REMARK   29  A    between atoms: P_66  and  O_54 
REMARK   30  A    between atoms: P_66  and  O_55 
REMARK   31  A    between atoms: P_67  and  O_57 
REMARK   32  A    between atoms: P_67  and  O_61 
REMARK   33  A    between atoms: P_68  and  O_62 
REMARK   34  A    between atoms: P_66  and  O_64 
REMARK   35  A    between atoms: P_67  and  O_65 
REMARK   36  A    between atoms: P_68  and  O_65 
ROOT
HETATM    1  O   UNK N   1      27.296  17.720   6.809  0.00  0.00    -0.307 OA
HETATM    2  O   UNK N   1      26.687  20.202   7.421  0.00  0.00    -0.631 OA
HETATM    3  P   UNK N   1      27.817  19.365   6.754  0.00  0.00     0.401 P 
HETATM    4  H   UNK N   1      27.123  16.771   6.916  0.00  0.00     0.222 HD
ENDROOT
BRANCH   3   5
HETATM    5  O   UNK N   1      27.967  19.883   5.089  0.00  0.00    -0.296 OA
BRANCH   5   6
HETATM    6  C   UNK N   1      26.774  20.552   4.719  0.00  0.00     0.192 C 
BRANCH   6   7
HETATM    7  C   UNK N   1      25.799  19.711   3.846  0.00  0.00     0.008 C 
HETATM    8  C   UNK N   1      25.448  20.467   2.578  0.00  0.00     0.020 C 
HETATM    9  C   UNK N   1      26.432  18.397   3.419  0.00  0.00     0.020 C 
BRANCH   7  10
HETATM   10  C   UNK N   1      24.466  19.402   4.579  0.00  0.00     0.202 C 
BRANCH  10  11
HETATM   11  C   UNK N   1      23.286  18.959   3.742  0.00  0.00     0.141 C 
BRANCH  11  12
HETATM   12  N   UNK N   1      22.444  19.803   3.250  0.00  0.00    -0.372 N 
ATOM     13  HN  UNK N   1      22.750  20.470   2.543  1.00  0.00     0.161 HD
BRANCH  12  14
HETATM   14  C   UNK N   1      21.070  19.807   3.693  0.00  0.00     0.129 C 
BRANCH  14  15
HETATM   15  C   UNK N   1      20.118  19.410   2.584  0.00  0.00     0.103 C 
BRANCH  15  16
HETATM   16  C   UNK N   1      19.830  17.946   2.557  0.00  0.00     0.112 C 
BRANCH  16  17
HETATM   17  N   UNK N   1      20.533  17.165   1.815  0.00  0.00    -0.374 N 
ATOM     18  HN  UNK N   1      21.543  17.119   1.952  1.00  0.00     0.161 HD
BRANCH  17  19
HETATM   19  C   UNK N   1      19.921  16.353   0.792  0.00  0.00     0.131 C 
BRANCH  19  20
HETATM   20  C   UNK N   1      20.206  14.872   1.044  0.00  0.00     0.094 C 
BRANCH  20  21
HETATM   21  S   UNK N   1      21.953  14.546   1.487  0.00  0.00    -0.159 SA
BRANCH  21  22
HETATM   22  C   UNK N   1      21.541  13.726   3.052  0.00  0.00     0.157 C 
BRANCH  22  23
HETATM   23  C   UNK N   1      21.502  14.684   4.217  0.00  0.00     0.120 C 
BRANCH  23  24
HETATM   24  N   UNK N   1      22.576  14.976   4.865  0.00  0.00    -0.374 N 
ATOM     25  HN  UNK N   1      23.470  14.957   4.374  1.00  0.00     0.161 HD
BRANCH  24  26
HETATM   26  C   UNK N   1      22.554  15.328   6.266  0.00  0.00     0.126 C 
BRANCH  26  27
HETATM   27  C   UNK N   1      23.398  14.353   7.064  0.00  0.00     0.060 C 
BRANCH  27  28
HETATM   28  C   UNK N   1      22.616  13.832   8.223  0.00  0.00    -0.029 A 
HETATM   29  C   UNK N   1      21.238  13.913   8.383  0.00  0.00     0.096 A 
HETATM   30  N   UNK N   1      20.884  13.334   9.560  0.00  0.00    -0.365 N 
HETATM   31  C   UNK N   1      22.027  12.897  10.121  0.00  0.00     0.042 A 
HETATM   32  H   UNK N   1      19.975  13.250   9.928  0.00  0.00     0.165 HD
HETATM   33  C   UNK N   1      22.164  12.237  11.339  0.00  0.00     0.030 A 
HETATM   34  C   UNK N   1      23.103  13.184   9.331  0.00  0.00    -0.002 A 
HETATM   35  C   UNK N   1      23.462  11.866  11.739  0.00  0.00     0.002 A 
HETATM   36  C   UNK N   1      24.576  12.163  10.921  0.00  0.00     0.001 A 
HETATM   37  C   UNK N   1      24.400  12.832   9.696  0.00  0.00     0.014 A 
ENDBRANCH  27  28
ENDBRANCH  26  27
ENDBRANCH  24  26
ENDBRANCH  23  24
BRANCH  23  38
HETATM   38  O   UNK N   1      20.341  15.272   4.569  0.00  0.00    -0.349 OA
HETATM   39  H   UNK N   1      19.872  15.328   5.377  0.00  0.00     0.219 HD
ENDBRANCH  23  38
ENDBRANCH  22  23
ENDBRANCH  21  22
ENDBRANCH  20  21
ENDBRANCH  19  20
ENDBRANCH  17  19
ENDBRANCH  16  17
BRANCH  16  40
HETATM   40  O   UNK N   1      18.883  17.446   3.380  0.00  0.00    -0.350 OA
HETATM   41  H   UNK N   1      18.653  17.869   4.184  0.00  0.00     0.219 HD
ENDBRANCH  16  40
ENDBRANCH  15  16
ENDBRANCH  14  15
ENDBRANCH  12  14
ENDBRANCH  11  12
BRANCH  11  42
HETATM   42  O   UNK N   1      23.112  17.635   3.540  0.00  0.00    -0.348 OA
HETATM   43  H   UNK N   1      23.806  17.032   3.725  0.00  0.00     0.219 HD
ENDBRANCH  11  42
ENDBRANCH  10  11
BRANCH  10  44
HETATM   44  O   UNK N   1      24.686  18.451   5.581  0.00  0.00    -0.387 OA
HETATM   45  H   UNK N   1      24.384  17.542   5.733  0.00  0.00     0.210 HD
ENDBRANCH  10  44
ENDBRANCH   7  10
ENDBRANCH   6   7
ENDBRANCH   5   6
ENDBRANCH   3   5
BRANCH   3  46
HETATM   46  O   UNK N   1      29.248  19.533   7.750  0.00  0.00    -0.195 OA
BRANCH  46  47
HETATM   47  P   UNK N   1      29.171  18.307   9.003  0.00  0.00     0.401 P 
HETATM   48  O   UNK N   1      29.694  18.966  10.309  0.00  0.00    -0.631 OA
BRANCH  47  49
HETATM   49  O   UNK N   1      27.553  17.796   9.392  0.00  0.00    -0.307 OA
HETATM   50  H   UNK N   1      26.778  17.368   9.787  0.00  0.00     0.222 HD
ENDBRANCH  47  49
BRANCH  47  51
HETATM   51  O   UNK N   1      30.175  16.916   8.689  0.00  0.00    -0.294 OA
BRANCH  51  52
HETATM   52  C   UNK N   1      31.485  17.375   8.509  0.00  0.00     0.215 C 
BRANCH  52  53
HETATM   53  C   UNK N   1      32.457  16.223   8.204  0.00  0.00     0.180 C 
HETATM   54  C   UNK N   1      31.891  15.137   7.279  0.00  0.00     0.197 C 
HETATM   55  C   UNK N   1      32.911  14.075   7.549  0.00  0.00     0.199 C 
HETATM   56  C   UNK N   1      32.935  14.177   9.073  0.00  0.00     0.262 C 
HETATM   57  O   UNK N   1      32.895  15.565   9.384  0.00  0.00    -0.353 OA
BRANCH  54  58
HETATM   58  O   UNK N   1      31.868  15.491   5.912  0.00  0.00    -0.286 OA
BRANCH  58  59
HETATM   59  P   UNK N   1      30.337  15.014   5.209  0.00  0.00     0.391 P 
HETATM   60  O   UNK N   1      30.353  15.460   3.723  0.00  0.00    -0.632 OA
BRANCH  59  61
HETATM   61  O   UNK N   1      28.970  15.767   5.973  0.00  0.00    -0.307 OA
HETATM   62  H   UNK N   1      28.576  16.340   6.649  0.00  0.00     0.222 HD
ENDBRANCH  59  61
BRANCH  59  63
HETATM   63  O   UNK N   1      30.152  13.290   5.211  0.00  0.00    -0.307 OA
HETATM   64  H   UNK N   1      30.155  12.801   4.373  0.00  0.00     0.222 HD
ENDBRANCH  59  63
ENDBRANCH  58  59
ENDBRANCH  54  58
BRANCH  55  65
HETATM   65  O   UNK N   1      32.519  12.817   7.088  0.00  0.00    -0.388 OA
HETATM   66  H   UNK N   1      32.471  11.916   7.449  0.00  0.00     0.210 HD
ENDBRANCH  55  65
BRANCH  56  67
HETATM   67  N   UNK N   1      34.081  13.519   9.721  0.00  0.00    -0.297 N 
HETATM   68  C   UNK N   1      34.558  12.300   9.354  0.00  0.00     0.188 A 
HETATM   69  N   UNK N   1      35.636  11.936  10.102  0.00  0.00    -0.346 N 
HETATM   70  C   UNK N   1      35.825  12.967  10.941  0.00  0.00     0.122 A 
ATOM     71  HN  UNK N   1      36.177  11.073  10.040  1.00  0.00     0.167 HD
HETATM   72  C   UNK N   1      36.793  13.147  11.915  0.00  0.00     0.131 A 
HETATM   73  C   UNK N   1      34.896  13.919  10.719  0.00  0.00     0.142 A 
HETATM   74  N   UNK N   1      36.776  14.311  12.627  0.00  0.00    -0.337 N 
HETATM   75  C   UNK N   1      35.824  15.273  12.385  0.00  0.00     0.183 A 
ATOM     76  HN  UNK N   1      37.478  14.470  13.350  1.00  0.00     0.168 HD
HETATM   77  N   UNK N   1      34.871  15.079  11.419  0.00  0.00    -0.336 N 
ATOM     78  HN  UNK N   1      34.162  15.788  11.233  1.00  0.00     0.168 HD
BRANCH  72  79
HETATM   79  N   UNK N   1      37.776  12.166  12.163  0.00  0.00    -0.383 N 
HETATM   80  H   UNK N   1      38.173  11.661  11.418  0.00  0.00     0.157 HD
HETATM   81  H   UNK N   1      38.064  11.985  13.087  0.00  0.00     0.157 HD
ENDBRANCH  72  79
ENDBRANCH  56  67
ENDBRANCH  52  53
ENDBRANCH  51  52
ENDBRANCH  47  51
ENDBRANCH  46  47
ENDBRANCH   3  46
TORSDOF 36
ENDMDL
MODEL 4
REMARK VINA RESULT:      -7.1      6.366     12.320
REMARK WARNING: 32 MAX_TORS EXCEEDED!!!
REMARK  36 active torsions:
REMARK  status: ('A' for Active; 'I' for Inactive)
REMARK    1  A    between atoms: C_9  and  C_7 
REMARK    2  A    between atoms: C_19  and  C_7 
REMARK    3  A    between atoms: C_10  and  C_8 
REMARK    4  A    between atoms: C_23  and  C_8 
REMARK    5  A    between atoms: N_35  and  C_9 
REMARK    6  A    between atoms: N_39  and  C_10 
REMARK    7  A    between atoms: C_12  and  C_11 
REMARK    8  A    between atoms: N_37  and  C_11 
REMARK    9  A    between atoms: S_69  and  C_12 
REMARK   10  A    between atoms: C_22  and  C_14 
REMARK   11  A    between atoms: O_61  and  C_14 
REMARK   12  A    between atoms: C_24  and  C_15 
REMARK   13  A    between atoms: S_69  and  C_15 
REMARK   14  A    between atoms: C_33  and  C_16 
REMARK   15  A    between atoms: O_62  and  C_16 
REMARK   16  A    between atoms: N_37  and  C_23 
REMARK   17  A    between atoms: O_49  and  C_23 
REMARK   18  A    between atoms: N_35  and  C_24 
REMARK   19  A    between atoms: O_50  and  C_24 
REMARK   20  A    between atoms: C_26  and  O_51 
REMARK   21  A    between atoms: C_27  and  O_64 
REMARK   22  A    between atoms: C_31  and  C_28 
REMARK   23  A    between atoms: C_33  and  C_28 
REMARK   24  A    between atoms: C_28  and  O_52 
REMARK   25  A    between atoms: N_34  and  C_29 
REMARK   26  A    between atoms: N_39  and  C_31 
REMARK   27  A    between atoms: O_53  and  C_31 
REMARK   28  A    between atoms: C_32  and  N_48 
REMARK   29  A    between atoms: P_66  and  O_54 
REMARK   30  A    between atoms: P_66  and  O_55 
REMARK   31  A    between atoms: P_67  and  O_57 
REMARK   32  A    between atoms: P_67  and  O_61 
REMARK   33  A    between atoms: P_68  and  O_62 
REMARK   34  A    between atoms: P_66  and  O_64 
REMARK   35  A    between atoms: P_67  and  O_65 
REMARK   36  A    between atoms: P_68  and  O_65 
ROOT
HETATM    1  O   UNK N   1      27.566  18.997   7.354  0.00  0.00    -0.307 OA
HETATM    2  O   UNK N   1      27.425  16.663   6.154  0.00  0.00    -0.631 OA
HETATM    3  P   UNK N   1      28.316  17.937   6.217  0.00  0.00     0.401 P 
HETATM    4  H   UNK N   1      27.136  19.686   7.884  0.00  0.00     0.222 HD
ENDROOT
BRANCH   3   5
HETATM    5  O   UNK N   1      29.899  17.466   6.801  0.00  0.00    -0.296 OA
BRANCH   5   6
HETATM    6  C   UNK N   1      30.693  17.093   5.688  0.00  0.00     0.192 C 
BRANCH   6   7
HETATM    7  C   UNK N   1      32.126  16.603   6.044  0.00  0.00     0.008 C 
HETATM    8  C   UNK N   1      32.055  15.454   7.033  0.00  0.00     0.020 C 
HETATM    9  C   UNK N   1      32.853  16.086   4.814  0.00  0.00     0.020 C 
BRANCH   7  10
HETATM   10  C   UNK N   1      32.987  17.718   6.696  0.00  0.00     0.202 C 
BRANCH  10  11
HETATM   11  C   UNK N   1      33.318  17.584   8.165  0.00  0.00     0.141 C 
BRANCH  11  12
HETATM   12  N   UNK N   1      34.534  17.493   8.586  0.00  0.00    -0.372 N 
ATOM     13  HN  UNK N   1      35.286  17.941   8.062  1.00  0.00     0.161 HD
BRANCH  12  14
HETATM   14  C   UNK N   1      34.837  16.762   9.792  0.00  0.00     0.129 C 
BRANCH  14  15
HETATM   15  C   UNK N   1      35.003  15.280   9.526  0.00  0.00     0.103 C 
BRANCH  15  16
HETATM   16  C   UNK N   1      33.936  14.450  10.158  0.00  0.00     0.112 C 
BRANCH  16  17
HETATM   17  N   UNK N   1      33.649  13.292   9.674  0.00  0.00    -0.374 N 
ATOM     18  HN  UNK N   1      32.679  13.068   9.455  1.00  0.00     0.161 HD
BRANCH  17  19
HETATM   19  C   UNK N   1      34.675  12.305   9.439  0.00  0.00     0.131 C 
BRANCH  19  20
HETATM   20  C   UNK N   1      34.815  11.383  10.651  0.00  0.00     0.094 C 
BRANCH  20  21
HETATM   21  S   UNK N   1      36.555  10.939  11.014  0.00  0.00    -0.159 SA
BRANCH  21  22
HETATM   22  C   UNK N   1      36.547  11.709  12.657  0.00  0.00     0.157 C 
BRANCH  22  23
HETATM   23  C   UNK N   1      36.958  13.160  12.621  0.00  0.00     0.120 C 
BRANCH  23  24
HETATM   24  N   UNK N   1      36.765  13.924  13.640  0.00  0.00    -0.374 N 
ATOM     25  HN  UNK N   1      36.642  14.925  13.491  1.00  0.00     0.161 HD
BRANCH  24  26
HETATM   26  C   UNK N   1      36.716  13.406  14.988  0.00  0.00     0.126 C 
BRANCH  26  27
HETATM   27  C   UNK N   1      35.293  13.440  15.511  0.00  0.00     0.060 C 
BRANCH  27  28
HETATM   28  C   UNK N   1      35.285  13.193  16.982  0.00  0.00    -0.029 A 
HETATM   29  C   UNK N   1      35.309  14.165  17.975  0.00  0.00     0.096 A 
HETATM   30  N   UNK N   1      35.295  13.567  19.195  0.00  0.00    -0.365 N 
HETATM   31  C   UNK N   1      35.260  12.241  18.962  0.00  0.00     0.042 A 
HETATM   32  H   UNK N   1      35.307  14.013  20.073  0.00  0.00     0.165 HD
HETATM   33  C   UNK N   1      35.235  11.223  19.910  0.00  0.00     0.030 A 
HETATM   34  C   UNK N   1      35.252  11.979  17.622  0.00  0.00    -0.002 A 
HETATM   35  C   UNK N   1      35.199   9.896  19.444  0.00  0.00     0.002 A 
HETATM   36  C   UNK N   1      35.191   9.624  18.057  0.00  0.00     0.001 A 
HETATM   37  C   UNK N   1      35.217  10.678  17.126  0.00  0.00     0.014 A 
ENDBRANCH  27  28
ENDBRANCH  26  27
ENDBRANCH  24  26
ENDBRANCH  23  24
BRANCH  23  38
HETATM   38  O   UNK N   1      37.565  13.663  11.528  0.00  0.00    -0.349 OA
HETATM   39  H   UNK N   1      38.209  13.322  10.940  0.00  0.00     0.219 HD
ENDBRANCH  23  38
ENDBRANCH  22  23
ENDBRANCH  21  22
ENDBRANCH  20  21
ENDBRANCH  19  20
ENDBRANCH  17  19
ENDBRANCH  16  17
BRANCH  16  40
HETATM   40  O   UNK N   1      33.339  14.891  11.286  0.00  0.00    -0.350 OA
HETATM   41  H   UNK N   1      33.143  15.798  11.419  0.00  0.00     0.219 HD
ENDBRANCH  16  40
ENDBRANCH  15  16
ENDBRANCH  14  15
ENDBRANCH  12  14
ENDBRANCH  11  12
BRANCH  11  42
HETATM   42  O   UNK N   1      32.294  17.531   9.046  0.00  0.00    -0.348 OA
HETATM   43  H   UNK N   1      31.936  18.320   9.404  0.00  0.00     0.219 HD
ENDBRANCH  11  42
ENDBRANCH  10  11
BRANCH  10  44
HETATM   44  O   UNK N   1      34.179  17.874   5.982  0.00  0.00    -0.387 OA
HETATM   45  H   UNK N   1      34.400  17.980   5.044  0.00  0.00     0.210 HD
ENDBRANCH  10  44
ENDBRANCH   7  10
ENDBRANCH   6   7
ENDBRANCH   5   6
ENDBRANCH   3   5
BRANCH   3  46
HETATM   46  O   UNK N   1      28.267  18.687   4.635  0.00  0.00    -0.195 OA
BRANCH  46  47
HETATM   47  P   UNK N   1      26.942  19.839   4.634  0.00  0.00     0.401 P 
HETATM   48  O   UNK N   1      27.374  21.021   5.546  0.00  0.00    -0.631 OA
BRANCH  47  49
HETATM   49  O   UNK N   1      26.645  20.571   3.084  0.00  0.00    -0.307 OA
HETATM   50  H   UNK N   1      26.523  21.198   2.354  0.00  0.00     0.222 HD
ENDBRANCH  47  49
BRANCH  47  51
HETATM   51  O   UNK N   1      25.456  19.202   5.286  0.00  0.00    -0.294 OA
BRANCH  51  52
HETATM   52  C   UNK N   1      24.512  19.195   4.253  0.00  0.00     0.215 C 
BRANCH  52  53
HETATM   53  C   UNK N   1      23.555  17.995   4.361  0.00  0.00     0.180 C 
HETATM   54  C   UNK N   1      22.098  18.304   3.991  0.00  0.00     0.197 C 
HETATM   55  C   UNK N   1      21.465  17.085   4.586  0.00  0.00     0.199 C 
HETATM   56  C   UNK N   1      22.178  17.104   5.936  0.00  0.00     0.262 C 
HETATM   57  O   UNK N   1      23.534  17.443   5.670  0.00  0.00    -0.353 OA
BRANCH  54  58
HETATM   58  O   UNK N   1      21.855  18.383   2.602  0.00  0.00    -0.286 OA
BRANCH  58  59
HETATM   59  P   UNK N   1      20.701  19.660   2.282  0.00  0.00     0.391 P 
HETATM   60  O   UNK N   1      20.986  20.191   0.852  0.00  0.00    -0.632 OA
BRANCH  59  61
HETATM   61  O   UNK N   1      20.839  20.999   3.380  0.00  0.00    -0.307 OA
HETATM   62  H   UNK N   1      21.351  21.566   3.977  0.00  0.00     0.222 HD
ENDBRANCH  59  61
BRANCH  59  63
HETATM   63  O   UNK N   1      19.076  19.054   2.275  0.00  0.00    -0.307 OA
HETATM   64  H   UNK N   1      18.855  18.268   1.751  0.00  0.00     0.222 HD
ENDBRANCH  59  63
ENDBRANCH  58  59
ENDBRANCH  54  58
BRANCH  55  65
HETATM   65  O   UNK N   1      20.077  17.193   4.695  0.00  0.00    -0.388 OA
HETATM   66  H   UNK N   1      19.448  17.737   5.197  0.00  0.00     0.210 HD
ENDBRANCH  55  65
BRANCH  56  67
HETATM   67  N   UNK N   1      22.084  15.853   6.706  0.00  0.00    -0.297 N 
HETATM   68  C   UNK N   1      20.919  15.359   7.203  0.00  0.00     0.188 A 
HETATM   69  N   UNK N   1      21.110  14.179   7.855  0.00  0.00    -0.346 N 
HETATM   70  C   UNK N   1      22.427  13.945   7.744  0.00  0.00     0.122 A 
ATOM     71  HN  UNK N   1      20.410  13.604   8.325  1.00  0.00     0.167 HD
HETATM   72  C   UNK N   1      23.178  12.876   8.206  0.00  0.00     0.131 A 
HETATM   73  C   UNK N   1      23.018  14.945   7.057  0.00  0.00     0.142 A 
HETATM   74  N   UNK N   1      24.516  12.870   7.939  0.00  0.00    -0.337 N 
HETATM   75  C   UNK N   1      25.100  13.895   7.234  0.00  0.00     0.183 A 
ATOM     76  HN  UNK N   1      25.092  12.094   8.267  1.00  0.00     0.168 HD
HETATM   77  N   UNK N   1      24.345  14.947   6.785  0.00  0.00    -0.336 N 
ATOM     78  HN  UNK N   1      24.771  15.711   6.260  1.00  0.00     0.168 HD
BRANCH  72  79
HETATM   79  N   UNK N   1      22.582  11.819   8.925  0.00  0.00    -0.383 N 
HETATM   80  H   UNK N   1      21.872  11.277   8.513  0.00  0.00     0.157 HD
HETATM   81  H   UNK N   1      22.878  11.624   9.843  0.00  0.00     0.157 HD
ENDBRANCH  72  79
ENDBRANCH  56  67
ENDBRANCH  52  53
ENDBRANCH  51  52
ENDBRANCH  47  51
ENDBRANCH  46  47
ENDBRANCH   3  46
TORSDOF 36
ENDMDL
MODEL 5
REMARK VINA RESULT:      -7.1      4.043      9.049
REMARK WARNING: 32 MAX_TORS EXCEEDED!!!
REMARK  36 active torsions:
REMARK  status: ('A' for Active; 'I' for Inactive)
REMARK    1  A    between atoms: C_9  and  C_7 
REMARK    2  A    between atoms: C_19  and  C_7 
REMARK    3  A    between atoms: C_10  and  C_8 
REMARK    4  A    between atoms: C_23  and  C_8 
REMARK    5  A    between atoms: N_35  and  C_9 
REMARK    6  A    between atoms: N_39  and  C_10 
REMARK    7  A    between atoms: C_12  and  C_11 
REMARK    8  A    between atoms: N_37  and  C_11 
REMARK    9  A    between atoms: S_69  and  C_12 
REMARK   10  A    between atoms: C_22  and  C_14 
REMARK   11  A    between atoms: O_61  and  C_14 
REMARK   12  A    between atoms: C_24  and  C_15 
REMARK   13  A    between atoms: S_69  and  C_15 
REMARK   14  A    between atoms: C_33  and  C_16 
REMARK   15  A    between atoms: O_62  and  C_16 
REMARK   16  A    between atoms: N_37  and  C_23 
REMARK   17  A    between atoms: O_49  and  C_23 
REMARK   18  A    between atoms: N_35  and  C_24 
REMARK   19  A    between atoms: O_50  and  C_24 
REMARK   20  A    between atoms: C_26  and  O_51 
REMARK   21  A    between atoms: C_27  and  O_64 
REMARK   22  A    between atoms: C_31  and  C_28 
REMARK   23  A    between atoms: C_33  and  C_28 
REMARK   24  A    between atoms: C_28  and  O_52 
REMARK   25  A    between atoms: N_34  and  C_29 
REMARK   26  A    between atoms: N_39  and  C_31 
REMARK   27  A    between atoms: O_53  and  C_31 
REMARK   28  A    between atoms: C_32  and  N_48 
REMARK   29  A    between atoms: P_66  and  O_54 
REMARK   30  A    between atoms: P_66  and  O_55 
REMARK   31  A    between atoms: P_67  and  O_57 
REMARK   32  A    between atoms: P_67  and  O_61 
REMARK   33  A    between atoms: P_68  and  O_62 
REMARK   34  A    between atoms: P_66  and  O_64 
REMARK   35  A    between atoms: P_67  and  O_65 
REMARK   36  A    between atoms: P_68  and  O_65 
ROOT
HETATM    1  O   UNK N   1      23.015  12.050   1.139  0.00  0.00    -0.307 OA
HETATM    2  O   UNK N   1      21.795  10.004   0.029  0.00  0.00    -0.631 OA
HETATM    3  P   UNK N   1      21.734  10.904   1.297  0.00  0.00     0.401 P 
HETATM    4  H   UNK N   1      23.783  12.641   1.174  0.00  0.00     0.222 HD
ENDROOT
BRANCH   3   5
HETATM    5  O   UNK N   1      20.192  11.734   1.300  0.00  0.00    -0.296 OA
BRANCH   5   6
HETATM    6  C   UNK N   1      20.287  12.857   0.441  0.00  0.00     0.192 C 
BRANCH   6   7
HETATM    7  C   UNK N   1      19.655  14.163   1.000  0.00  0.00     0.008 C 
HETATM    8  C   UNK N   1      18.449  14.559   0.168  0.00  0.00     0.020 C 
HETATM    9  C   UNK N   1      19.166  13.973   2.427  0.00  0.00     0.020 C 
BRANCH   7  10
HETATM   10  C   UNK N   1      20.645  15.358   0.972  0.00  0.00     0.202 C 
BRANCH  10  11
HETATM   11  C   UNK N   1      20.619  16.324   2.136  0.00  0.00     0.141 C 
BRANCH  11  12
HETATM   12  N   UNK N   1      19.685  17.203   2.273  0.00  0.00    -0.372 N 
ATOM     13  HN  UNK N   1      18.744  16.999   1.937  1.00  0.00     0.161 HD
BRANCH  12  14
HETATM   14  C   UNK N   1      19.964  18.473   2.900  0.00  0.00     0.129 C 
BRANCH  14  15
HETATM   15  C   UNK N   1      20.632  19.439   1.943  0.00  0.00     0.103 C 
BRANCH  15  16
HETATM   16  C   UNK N   1      21.638  20.318   2.609  0.00  0.00     0.112 C 
BRANCH  16  17
HETATM   17  N   UNK N   1      22.738  19.817   3.052  0.00  0.00    -0.374 N 
ATOM     18  HN  UNK N   1      22.780  18.823   3.278  1.00  0.00     0.161 HD
BRANCH  17  19
HETATM   19  C   UNK N   1      23.912  20.636   3.235  0.00  0.00     0.131 C 
BRANCH  19  20
HETATM   20  C   UNK N   1      25.144  19.937   2.660  0.00  0.00     0.094 C 
BRANCH  20  21
HETATM   21  S   UNK N   1      26.707  20.486   3.442  0.00  0.00    -0.159 SA
BRANCH  21  22
HETATM   22  C   UNK N   1      26.182  20.030   5.119  0.00  0.00     0.157 C 
BRANCH  22  23
HETATM   23  C   UNK N   1      26.116  18.537   5.320  0.00  0.00     0.120 C 
BRANCH  23  24
HETATM   24  N   UNK N   1      27.188  17.822   5.294  0.00  0.00    -0.374 N 
ATOM     25  HN  UNK N   1      27.700  17.732   4.417  1.00  0.00     0.161 HD
BRANCH  24  26
HETATM   26  C   UNK N   1      27.686  17.144   6.469  0.00  0.00     0.126 C 
BRANCH  26  27
HETATM   27  C   UNK N   1      29.056  16.555   6.192  0.00  0.00     0.060 C 
BRANCH  27  28
HETATM   28  C   UNK N   1      30.040  17.062   7.192  0.00  0.00    -0.029 A 
HETATM   29  C   UNK N   1      29.757  17.437   8.500  0.00  0.00     0.096 A 
HETATM   30  N   UNK N   1      30.899  17.848   9.110  0.00  0.00    -0.365 N 
HETATM   31  C   UNK N   1      31.878  17.727   8.194  0.00  0.00     0.042 A 
HETATM   32  H   UNK N   1      30.992  18.169  10.037  0.00  0.00     0.165 HD
HETATM   33  C   UNK N   1      33.226  18.031   8.361  0.00  0.00     0.030 A 
HETATM   34  C   UNK N   1      31.388  17.249   7.013  0.00  0.00    -0.002 A 
HETATM   35  C   UNK N   1      34.083  17.828   7.264  0.00  0.00     0.002 A 
HETATM   36  C   UNK N   1      33.576  17.334   6.041  0.00  0.00     0.001 A 
HETATM   37  C   UNK N   1      32.208  17.037   5.906  0.00  0.00     0.014 A 
ENDBRANCH  27  28
ENDBRANCH  26  27
ENDBRANCH  24  26
ENDBRANCH  23  24
BRANCH  23  38
HETATM   38  O   UNK N   1      24.933  17.939   5.565  0.00  0.00    -0.349 OA
HETATM   39  H   UNK N   1      24.044  18.212   5.455  0.00  0.00     0.219 HD
ENDBRANCH  23  38
ENDBRANCH  22  23
ENDBRANCH  21  22
ENDBRANCH  20  21
ENDBRANCH  19  20
ENDBRANCH  17  19
ENDBRANCH  16  17
BRANCH  16  40
HETATM   40  O   UNK N   1      21.416  21.649   2.664  0.00  0.00    -0.350 OA
HETATM   41  H   UNK N   1      21.320  22.166   1.888  0.00  0.00     0.219 HD
ENDBRANCH  16  40
ENDBRANCH  15  16
ENDBRANCH  14  15
ENDBRANCH  12  14
ENDBRANCH  11  12
BRANCH  11  42
HETATM   42  O   UNK N   1      21.629  16.266   3.032  0.00  0.00    -0.348 OA
HETATM   43  H   UNK N   1      22.487  16.003   2.763  0.00  0.00     0.219 HD
ENDBRANCH  11  42
ENDBRANCH  10  11
BRANCH  10  44
HETATM   44  O   UNK N   1      21.952  14.887   0.811  0.00  0.00    -0.387 OA
HETATM   45  H   UNK N   1      22.774  14.976   1.318  0.00  0.00     0.210 HD
ENDBRANCH  10  44
ENDBRANCH   7  10
ENDBRANCH   6   7
ENDBRANCH   5   6
ENDBRANCH   3   5
BRANCH   3  46
HETATM   46  O   UNK N   1      22.065   9.881   2.680  0.00  0.00    -0.195 OA
BRANCH  46  47
HETATM   47  P   UNK N   1      21.888  10.865   4.123  0.00  0.00     0.401 P 
HETATM   48  O   UNK N   1      20.393  10.787   4.539  0.00  0.00    -0.631 OA
BRANCH  47  49
HETATM   49  O   UNK N   1      22.756  10.255   5.503  0.00  0.00    -0.307 OA
HETATM   50  H   UNK N   1      23.437  10.044   6.160  0.00  0.00     0.222 HD
ENDBRANCH  47  49
BRANCH  47  51
HETATM   51  O   UNK N   1      22.269  12.548   3.877  0.00  0.00    -0.294 OA
BRANCH  51  52
HETATM   52  C   UNK N   1      21.567  13.284   4.839  0.00  0.00     0.215 C 
BRANCH  52  53
HETATM   53  C   UNK N   1      22.488  13.773   5.970  0.00  0.00     0.180 C 
HETATM   54  C   UNK N   1      23.927  14.081   5.533  0.00  0.00     0.197 C 
HETATM   55  C   UNK N   1      24.558  14.116   6.890  0.00  0.00     0.199 C 
HETATM   56  C   UNK N   1      23.936  12.840   7.454  0.00  0.00     0.262 C 
HETATM   57  O   UNK N   1      22.578  12.834   7.032  0.00  0.00    -0.353 OA
BRANCH  54  58
HETATM   58  O   UNK N   1      24.080  15.315   4.864  0.00  0.00    -0.286 OA
BRANCH  58  59
HETATM   59  P   UNK N   1      25.101  15.096   3.458  0.00  0.00     0.391 P 
HETATM   60  O   UNK N   1      25.467  16.508   2.929  0.00  0.00    -0.632 OA
BRANCH  59  61
HETATM   61  O   UNK N   1      24.317  14.234   2.170  0.00  0.00    -0.307 OA
HETATM   62  H   UNK N   1      23.969  14.176   1.266  0.00  0.00     0.222 HD
ENDBRANCH  59  61
BRANCH  59  63
HETATM   63  O   UNK N   1      26.593  14.319   3.879  0.00  0.00    -0.307 OA
HETATM   64  H   UNK N   1      27.430  14.643   3.510  0.00  0.00     0.222 HD
ENDBRANCH  59  63
ENDBRANCH  58  59
ENDBRANCH  54  58
BRANCH  55  65
HETATM   65  O   UNK N   1      25.953  14.074   6.842  0.00  0.00    -0.388 OA
HETATM   66  H   UNK N   1      26.662  14.618   6.463  0.00  0.00     0.210 HD
ENDBRANCH  55  65
BRANCH  56  67
HETATM   67  N   UNK N   1      24.039  12.693   8.915  0.00  0.00    -0.297 N 
HETATM   68  C   UNK N   1      25.201  12.834   9.607  0.00  0.00     0.188 A 
HETATM   69  N   UNK N   1      25.013  12.666  10.945  0.00  0.00    -0.346 N 
HETATM   70  C   UNK N   1      23.698  12.426  11.071  0.00  0.00     0.122 A 
ATOM     71  HN  UNK N   1      25.714  12.713  11.686  1.00  0.00     0.167 HD
HETATM   72  C   UNK N   1      22.946  12.197  12.211  0.00  0.00     0.131 A 
HETATM   73  C   UNK N   1      23.108  12.438   9.857  0.00  0.00     0.142 A 
HETATM   74  N   UNK N   1      21.604  11.995  12.064  0.00  0.00    -0.337 N 
HETATM   75  C   UNK N   1      21.020  12.016  10.820  0.00  0.00     0.183 A 
ATOM     76  HN  UNK N   1      21.027  11.826  12.888  1.00  0.00     0.168 HD
HETATM   77  N   UNK N   1      21.778  12.241   9.701  0.00  0.00    -0.336 N 
ATOM     78  HN  UNK N   1      21.351  12.258   8.775  1.00  0.00     0.168 HD
BRANCH  72  79
HETATM   79  N   UNK N   1      23.541  12.181  13.490  0.00  0.00    -0.383 N 
HETATM   80  H   UNK N   1      24.520  12.204  13.583  0.00  0.00     0.157 HD
HETATM   81  H   UNK N   1      22.973  12.146  14.294  0.00  0.00     0.157 HD
ENDBRANCH  72  79
ENDBRANCH  56  67
ENDBRANCH  52  53
ENDBRANCH  51  52
ENDBRANCH  47  51
ENDBRANCH  46  47
ENDBRANCH   3  46
TORSDOF 36
ENDMDL
MODEL 6
REMARK VINA RESULT:      -6.9      4.034     10.098
REMARK WARNING: 32 MAX_TORS EXCEEDED!!!
REMARK  36 active torsions:
REMARK  status: ('A' for Active; 'I' for Inactive)
REMARK    1  A    between atoms: C_9  and  C_7 
REMARK    2  A    between atoms: C_19  and  C_7 
REMARK    3  A    between atoms: C_10  and  C_8 
REMARK    4  A    between atoms: C_23  and  C_8 
REMARK    5  A    between atoms: N_35  and  C_9 
REMARK    6  A    between atoms: N_39  and  C_10 
REMARK    7  A    between atoms: C_12  and  C_11 
REMARK    8  A    between atoms: N_37  and  C_11 
REMARK    9  A    between atoms: S_69  and  C_12 
REMARK   10  A    between atoms: C_22  and  C_14 
REMARK   11  A    between atoms: O_61  and  C_14 
REMARK   12  A    between atoms: C_24  and  C_15 
REMARK   13  A    between atoms: S_69  and  C_15 
REMARK   14  A    between atoms: C_33  and  C_16 
REMARK   15  A    between atoms: O_62  and  C_16 
REMARK   16  A    between atoms: N_37  and  C_23 
REMARK   17  A    between atoms: O_49  and  C_23 
REMARK   18  A    between atoms: N_35  and  C_24 
REMARK   19  A    between atoms: O_50  and  C_24 
REMARK   20  A    between atoms: C_26  and  O_51 
REMARK   21  A    between atoms: C_27  and  O_64 
REMARK   22  A    between atoms: C_31  and  C_28 
REMARK   23  A    between atoms: C_33  and  C_28 
REMARK   24  A    between atoms: C_28  and  O_52 
REMARK   25  A    between atoms: N_34  and  C_29 
REMARK   26  A    between atoms: N_39  and  C_31 
REMARK   27  A    between atoms: O_53  and  C_31 
REMARK   28  A    between atoms: C_32  and  N_48 
REMARK   29  A    between atoms: P_66  and  O_54 
REMARK   30  A    between atoms: P_66  and  O_55 
REMARK   31  A    between atoms: P_67  and  O_57 
REMARK   32  A    between atoms: P_67  and  O_61 
REMARK   33  A    between atoms: P_68  and  O_62 
REMARK   34  A    between atoms: P_66  and  O_64 
REMARK   35  A    between atoms: P_67  and  O_65 
REMARK   36  A    between atoms: P_68  and  O_65 
ROOT
HETATM    1  O   UNK N   1      22.241  12.920   4.155  0.00  0.00    -0.307 OA
HETATM    2  O   UNK N   1      21.097  10.557   4.261  0.00  0.00    -0.631 OA
HETATM    3  P   UNK N   1      21.145  11.837   3.378  0.00  0.00     0.401 P 
HETATM    4  H   UNK N   1      22.746  13.620   4.598  0.00  0.00     0.222 HD
ENDROOT
BRANCH   3   5
HETATM    5  O   UNK N   1      21.769  11.389   1.804  0.00  0.00    -0.296 OA
BRANCH   5   6
HETATM    6  C   UNK N   1      23.157  11.134   1.930  0.00  0.00     0.192 C 
BRANCH   6   7
HETATM    7  C   UNK N   1      24.068  12.027   1.040  0.00  0.00     0.008 C 
HETATM    8  C   UNK N   1      25.409  11.350   0.819  0.00  0.00     0.020 C 
HETATM    9  C   UNK N   1      23.452  12.250  -0.331  0.00  0.00     0.020 C 
BRANCH   7  10
HETATM   10  C   UNK N   1      24.353  13.410   1.685  0.00  0.00     0.202 C 
BRANCH  10  11
HETATM   11  C   UNK N   1      25.512  13.511   2.653  0.00  0.00     0.141 C 
BRANCH  11  12
HETATM   12  N   UNK N   1      26.670  13.945   2.287  0.00  0.00    -0.372 N 
ATOM     13  HN  UNK N   1      27.230  13.403   1.630  1.00  0.00     0.161 HD
BRANCH  12  14
HETATM   14  C   UNK N   1      27.178  15.194   2.802  0.00  0.00     0.129 C 
BRANCH  14  15
HETATM   15  C   UNK N   1      28.572  15.491   2.288  0.00  0.00     0.103 C 
BRANCH  15  16
HETATM   16  C   UNK N   1      29.540  15.813   3.378  0.00  0.00     0.112 C 
BRANCH  16  17
HETATM   17  N   UNK N   1      30.301  16.846   3.279  0.00  0.00    -0.374 N 
ATOM     18  HN  UNK N   1      30.457  17.266   2.362  1.00  0.00     0.161 HD
BRANCH  17  19
HETATM   19  C   UNK N   1      30.938  17.420   4.439  0.00  0.00     0.131 C 
BRANCH  19  20
HETATM   20  C   UNK N   1      32.446  17.167   4.398  0.00  0.00     0.094 C 
BRANCH  20  21
HETATM   21  S   UNK N   1      33.227  17.237   6.053  0.00  0.00    -0.159 SA
BRANCH  21  22
HETATM   22  C   UNK N   1      31.648  17.179   6.946  0.00  0.00     0.157 C 
BRANCH  22  23
HETATM   23  C   UNK N   1      31.808  17.427   8.425  0.00  0.00     0.120 C 
BRANCH  23  24
HETATM   24  N   UNK N   1      30.777  17.529   9.191  0.00  0.00    -0.374 N 
ATOM     25  HN  UNK N   1      30.532  16.745   9.796  1.00  0.00     0.161 HD
BRANCH  24  26
HETATM   26  C   UNK N   1      29.956  18.717   9.218  0.00  0.00     0.126 C 
BRANCH  26  27
HETATM   27  C   UNK N   1      28.488  18.340   9.175  0.00  0.00     0.060 C 
BRANCH  27  28
HETATM   28  C   UNK N   1      28.086  18.017   7.775  0.00  0.00    -0.029 A 
HETATM   29  C   UNK N   1      27.938  16.744   7.239  0.00  0.00     0.096 A 
HETATM   30  N   UNK N   1      27.564  16.841   5.937  0.00  0.00    -0.365 N 
HETATM   31  C   UNK N   1      27.479  18.157   5.668  0.00  0.00     0.042 A 
HETATM   32  H   UNK N   1      27.390  16.098   5.314  0.00  0.00     0.165 HD
HETATM   33  C   UNK N   1      27.129  18.746   4.457  0.00  0.00     0.030 A 
HETATM   34  C   UNK N   1      27.790  18.903   6.769  0.00  0.00    -0.002 A 
HETATM   35  C   UNK N   1      27.102  20.151   4.395  0.00  0.00     0.002 A 
HETATM   36  C   UNK N   1      27.424  20.924   5.534  0.00  0.00     0.001 A 
HETATM   37  C   UNK N   1      27.774  20.296   6.744  0.00  0.00     0.014 A 
ENDBRANCH  27  28
ENDBRANCH  26  27
ENDBRANCH  24  26
ENDBRANCH  23  24
BRANCH  23  38
HETATM   38  O   UNK N   1      33.040  17.512   8.967  0.00  0.00    -0.349 OA
HETATM   39  H   UNK N   1      33.805  18.002   8.741  0.00  0.00     0.219 HD
ENDBRANCH  23  38
ENDBRANCH  22  23
ENDBRANCH  21  22
ENDBRANCH  20  21
ENDBRANCH  19  20
ENDBRANCH  17  19
ENDBRANCH  16  17
BRANCH  16  40
HETATM   40  O   UNK N   1      29.546  15.058   4.498  0.00  0.00    -0.350 OA
HETATM   41  H   UNK N   1      29.354  15.422   5.340  0.00  0.00     0.219 HD
ENDBRANCH  16  40
ENDBRANCH  15  16
ENDBRANCH  14  15
ENDBRANCH  12  14
ENDBRANCH  11  12
BRANCH  11  42
HETATM   42  O   UNK N   1      25.314  13.104   3.926  0.00  0.00    -0.348 OA
HETATM   43  H   UNK N   1      24.814  12.332   4.104  0.00  0.00     0.219 HD
ENDBRANCH  11  42
ENDBRANCH  10  11
BRANCH  10  44
HETATM   44  O   UNK N   1      24.519  14.374   0.686  0.00  0.00    -0.387 OA
HETATM   45  H   UNK N   1      23.985  15.114   0.360  0.00  0.00     0.210 HD
ENDBRANCH  10  44
ENDBRANCH   7  10
ENDBRANCH   6   7
ENDBRANCH   5   6
ENDBRANCH   3   5
BRANCH   3  46
HETATM   46  O   UNK N   1      19.544  12.548   3.402  0.00  0.00    -0.195 OA
BRANCH  46  47
HETATM   47  P   UNK N   1      19.626  14.072   2.535  0.00  0.00     0.401 P 
HETATM   48  O   UNK N   1      20.998  14.101   1.806  0.00  0.00    -0.631 OA
BRANCH  47  49
HETATM   49  O   UNK N   1      18.452  14.222   1.259  0.00  0.00    -0.307 OA
HETATM   50  H   UNK N   1      17.931  14.103   0.450  0.00  0.00     0.222 HD
ENDBRANCH  47  49
BRANCH  47  51
HETATM   51  O   UNK N   1      19.562  15.473   3.571  0.00  0.00    -0.294 OA
BRANCH  51  52
HETATM   52  C   UNK N   1      19.287  15.026   4.868  0.00  0.00     0.215 C 
BRANCH  52  53
HETATM   53  C   UNK N   1      20.393  15.427   5.859  0.00  0.00     0.180 C 
HETATM   54  C   UNK N   1      21.333  16.531   5.354  0.00  0.00     0.197 C 
HETATM   55  C   UNK N   1      22.432  16.347   6.354  0.00  0.00     0.199 C 
HETATM   56  C   UNK N   1      22.546  14.826   6.278  0.00  0.00     0.262 C 
HETATM   57  O   UNK N   1      21.215  14.326   6.218  0.00  0.00    -0.353 OA
BRANCH  54  58
HETATM   58  O   UNK N   1      20.790  17.832   5.421  0.00  0.00    -0.286 OA
BRANCH  58  59
HETATM   59  P   UNK N   1      21.200  18.713   3.964  0.00  0.00     0.391 P 
HETATM   60  O   UNK N   1      20.621  20.145   4.113  0.00  0.00    -0.632 OA
BRANCH  59  61
HETATM   61  O   UNK N   1      20.518  18.013   2.528  0.00  0.00    -0.307 OA
HETATM   62  H   UNK N   1      20.482  17.900   1.565  0.00  0.00     0.222 HD
ENDBRANCH  59  61
BRANCH  59  63
HETATM   63  O   UNK N   1      22.917  18.883   3.793  0.00  0.00    -0.307 OA
HETATM   64  H   UNK N   1      23.300  19.078   2.923  0.00  0.00     0.222 HD
ENDBRANCH  59  63
ENDBRANCH  58  59
ENDBRANCH  54  58
BRANCH  55  65
HETATM   65  O   UNK N   1      23.609  17.006   5.994  0.00  0.00    -0.388 OA
HETATM   66  H   UNK N   1      24.474  17.178   6.400  0.00  0.00     0.210 HD
ENDBRANCH  55  65
BRANCH  56  67
HETATM   67  N   UNK N   1      23.298  14.204   7.380  0.00  0.00    -0.297 N 
HETATM   68  C   UNK N   1      24.654  14.108   7.407  0.00  0.00     0.188 A 
HETATM   69  N   UNK N   1      25.093  13.508   8.548  0.00  0.00    -0.346 N 
HETATM   70  C   UNK N   1      23.973  13.240   9.237  0.00  0.00     0.122 A 
ATOM     71  HN  UNK N   1      26.056  13.306   8.818  1.00  0.00     0.167 HD
HETATM   72  C   UNK N   1      23.820  12.648  10.481  0.00  0.00     0.131 A 
HETATM   73  C   UNK N   1      22.892  13.653   8.542  0.00  0.00     0.142 A 
HETATM   74  N   UNK N   1      22.554  12.507  10.972  0.00  0.00    -0.337 N 
HETATM   75  C   UNK N   1      21.465  12.938  10.251  0.00  0.00     0.183 A 
ATOM     76  HN  UNK N   1      22.413  12.075  11.885  1.00  0.00     0.168 HD
HETATM   77  N   UNK N   1      21.633  13.519   9.021  0.00  0.00    -0.336 N 
ATOM     78  HN  UNK N   1      20.830  13.842   8.482  1.00  0.00     0.168 HD
BRANCH  72  79
HETATM   79  N   UNK N   1      24.934  12.210  11.226  0.00  0.00    -0.383 N 
HETATM   80  H   UNK N   1      25.833  12.557  11.025  0.00  0.00     0.157 HD
HETATM   81  H   UNK N   1      24.812  11.554  11.949  0.00  0.00     0.157 HD
ENDBRANCH  72  79
ENDBRANCH  56  67
ENDBRANCH  52  53
ENDBRANCH  51  52
ENDBRANCH  47  51
ENDBRANCH  46  47
ENDBRANCH   3  46
TORSDOF 36
ENDMDL
MODEL 7
REMARK VINA RESULT:      -6.9      6.433     12.289
REMARK WARNING: 32 MAX_TORS EXCEEDED!!!
REMARK  36 active torsions:
REMARK  status: ('A' for Active; 'I' for Inactive)
REMARK    1  A    between atoms: C_9  and  C_7 
REMARK    2  A    between atoms: C_19  and  C_7 
REMARK    3  A    between atoms: C_10  and  C_8 
REMARK    4  A    between atoms: C_23  and  C_8 
REMARK    5  A    between atoms: N_35  and  C_9 
REMARK    6  A    between atoms: N_39  and  C_10 
REMARK    7  A    between atoms: C_12  and  C_11 
REMARK    8  A    between atoms: N_37  and  C_11 
REMARK    9  A    between atoms: S_69  and  C_12 
REMARK   10  A    between atoms: C_22  and  C_14 
REMARK   11  A    between atoms: O_61  and  C_14 
REMARK   12  A    between atoms: C_24  and  C_15 
REMARK   13  A    between atoms: S_69  and  C_15 
REMARK   14  A    between atoms: C_33  and  C_16 
REMARK   15  A    between atoms: O_62  and  C_16 
REMARK   16  A    between atoms: N_37  and  C_23 
REMARK   17  A    between atoms: O_49  and  C_23 
REMARK   18  A    between atoms: N_35  and  C_24 
REMARK   19  A    between atoms: O_50  and  C_24 
REMARK   20  A    between atoms: C_26  and  O_51 
REMARK   21  A    between atoms: C_27  and  O_64 
REMARK   22  A    between atoms: C_31  and  C_28 
REMARK   23  A    between atoms: C_33  and  C_28 
REMARK   24  A    between atoms: C_28  and  O_52 
REMARK   25  A    between atoms: N_34  and  C_29 
REMARK   26  A    between atoms: N_39  and  C_31 
REMARK   27  A    between atoms: O_53  and  C_31 
REMARK   28  A    between atoms: C_32  and  N_48 
REMARK   29  A    between atoms: P_66  and  O_54 
REMARK   30  A    between atoms: P_66  and  O_55 
REMARK   31  A    between atoms: P_67  and  O_57 
REMARK   32  A    between atoms: P_67  and  O_61 
REMARK   33  A    between atoms: P_68  and  O_62 
REMARK   34  A    between atoms: P_66  and  O_64 
REMARK   35  A    between atoms: P_67  and  O_65 
REMARK   36  A    between atoms: P_68  and  O_65 
ROOT
HETATM    1  O   UNK N   1      28.197  20.182   4.088  0.00  0.00    -0.307 OA
HETATM    2  O   UNK N   1      27.794  20.018   6.680  0.00  0.00    -0.631 OA
HETATM    3  P   UNK N   1      27.141  19.611   5.328  0.00  0.00     0.401 P 
HETATM    4  H   UNK N   1      28.677  20.579   3.345  0.00  0.00     0.222 HD
ENDROOT
BRANCH   3   5
HETATM    5  O   UNK N   1      27.052  17.863   5.272  0.00  0.00    -0.296 OA
BRANCH   5   6
HETATM    6  C   UNK N   1      28.030  17.395   4.359  0.00  0.00     0.192 C 
BRANCH   6   7
HETATM    7  C   UNK N   1      28.867  16.184   4.864  0.00  0.00     0.008 C 
HETATM    8  C   UNK N   1      27.993  15.246   5.674  0.00  0.00     0.020 C 
HETATM    9  C   UNK N   1      29.428  15.379   3.703  0.00  0.00     0.020 C 
BRANCH   7  10
HETATM   10  C   UNK N   1      30.043  16.620   5.778  0.00  0.00     0.202 C 
BRANCH  10  11
HETATM   11  C   UNK N   1      31.306  17.121   5.112  0.00  0.00     0.141 C 
BRANCH  11  12
HETATM   12  N   UNK N   1      32.471  16.667   5.429  0.00  0.00    -0.372 N 
ATOM     13  HN  UNK N   1      32.698  15.689   5.254  1.00  0.00     0.161 HD
BRANCH  12  14
HETATM   14  C   UNK N   1      33.455  17.537   6.029  0.00  0.00     0.129 C 
BRANCH  14  15
HETATM   15  C   UNK N   1      33.176  17.772   7.500  0.00  0.00     0.103 C 
BRANCH  15  16
HETATM   16  C   UNK N   1      34.418  17.955   8.307  0.00  0.00     0.112 C 
BRANCH  16  17
HETATM   17  N   UNK N   1      34.942  16.952   8.919  0.00  0.00    -0.374 N 
ATOM     18  HN  UNK N   1      35.934  16.974   9.157  1.00  0.00     0.161 HD
BRANCH  17  19
HETATM   19  C   UNK N   1      34.154  15.797   9.273  0.00  0.00     0.131 C 
BRANCH  19  20
HETATM   20  C   UNK N   1      34.516  15.315  10.678  0.00  0.00     0.094 C 
BRANCH  20  21
HETATM   21  S   UNK N   1      35.646  13.874  10.671  0.00  0.00    -0.159 SA
BRANCH  21  22
HETATM   22  C   UNK N   1      35.278  13.409  12.386  0.00  0.00     0.157 C 
BRANCH  22  23
HETATM   23  C   UNK N   1      36.302  13.932  13.362  0.00  0.00     0.120 C 
BRANCH  23  24
HETATM   24  N   UNK N   1      37.018  13.122  14.062  0.00  0.00    -0.374 N 
ATOM     25  HN  UNK N   1      38.023  13.080  13.895  1.00  0.00     0.161 HD
BRANCH  24  26
HETATM   26  C   UNK N   1      36.441  12.270  15.077  0.00  0.00     0.126 C 
BRANCH  26  27
HETATM   27  C   UNK N   1      35.197  12.917  15.657  0.00  0.00     0.060 C 
BRANCH  27  28
HETATM   28  C   UNK N   1      35.221  12.822  17.146  0.00  0.00    -0.029 A 
HETATM   29  C   UNK N   1      35.302  13.887  18.033  0.00  0.00     0.096 A 
HETATM   30  N   UNK N   1      35.301  13.418  19.307  0.00  0.00    -0.365 N 
HETATM   31  C   UNK N   1      35.219  12.077  19.212  0.00  0.00     0.042 A 
HETATM   32  H   UNK N   1      35.350  13.950  20.134  0.00  0.00     0.165 HD
HETATM   33  C   UNK N   1      35.187  11.162  20.260  0.00  0.00     0.030 A 
HETATM   34  C   UNK N   1      35.167  11.680  17.907  0.00  0.00    -0.002 A 
HETATM   35  C   UNK N   1      35.098   9.796  19.934  0.00  0.00     0.002 A 
HETATM   36  C   UNK N   1      35.045   9.385  18.582  0.00  0.00     0.001 A 
HETATM   37  C   UNK N   1      35.079  10.337  17.547  0.00  0.00     0.014 A 
ENDBRANCH  27  28
ENDBRANCH  26  27
ENDBRANCH  24  26
ENDBRANCH  23  24
BRANCH  23  38
HETATM   38  O   UNK N   1      36.502  15.259  13.485  0.00  0.00    -0.349 OA
HETATM   39  H   UNK N   1      35.948  15.968  13.747  0.00  0.00     0.219 HD
ENDBRANCH  23  38
ENDBRANCH  22  23
ENDBRANCH  21  22
ENDBRANCH  20  21
ENDBRANCH  19  20
ENDBRANCH  17  19
ENDBRANCH  16  17
BRANCH  16  40
HETATM   40  O   UNK N   1      35.026  19.161   8.317  0.00  0.00    -0.350 OA
HETATM   41  H   UNK N   1      35.631  19.415   7.647  0.00  0.00     0.219 HD
ENDBRANCH  16  40
ENDBRANCH  15  16
ENDBRANCH  14  15
ENDBRANCH  12  14
ENDBRANCH  11  12
BRANCH  11  42
HETATM   42  O   UNK N   1      31.190  18.093   4.181  0.00  0.00    -0.348 OA
HETATM   43  H   UNK N   1      30.984  17.876   3.292  0.00  0.00     0.219 HD
ENDBRANCH  11  42
ENDBRANCH  10  11
BRANCH  10  44
HETATM   44  O   UNK N   1      29.604  17.587   6.687  0.00  0.00    -0.387 OA
HETATM   45  H   UNK N   1      29.375  17.580   7.630  0.00  0.00     0.210 HD
ENDBRANCH  10  44
ENDBRANCH   7  10
ENDBRANCH   6   7
ENDBRANCH   5   6
ENDBRANCH   3   5
BRANCH   3  46
HETATM   46  O   UNK N   1      25.618  20.467   5.206  0.00  0.00    -0.195 OA
BRANCH  46  47
HETATM   47  P   UNK N   1      24.804  19.900   3.758  0.00  0.00     0.401 P 
HETATM   48  O   UNK N   1      23.736  20.970   3.395  0.00  0.00    -0.631 OA
BRANCH  47  49
HETATM   49  O   UNK N   1      25.832  19.819   2.356  0.00  0.00    -0.307 OA
HETATM   50  H   UNK N   1      26.405  19.519   1.634  0.00  0.00     0.222 HD
ENDBRANCH  47  49
BRANCH  47  51
HETATM   51  O   UNK N   1      23.966  18.386   3.970  0.00  0.00    -0.294 OA
BRANCH  51  52
HETATM   52  C   UNK N   1      22.706  18.674   4.509  0.00  0.00     0.215 C 
BRANCH  52  53
HETATM   53  C   UNK N   1      21.956  17.397   4.924  0.00  0.00     0.180 C 
HETATM   54  C   UNK N   1      20.551  17.257   4.323  0.00  0.00     0.197 C 
HETATM   55  C   UNK N   1      20.037  16.185   5.232  0.00  0.00     0.199 C 
HETATM   56  C   UNK N   1      20.501  16.782   6.559  0.00  0.00     0.262 C 
HETATM   57  O   UNK N   1      21.807  17.297   6.333  0.00  0.00    -0.353 OA
BRANCH  54  58
HETATM   58  O   UNK N   1      20.534  16.838   2.975  0.00  0.00    -0.286 OA
BRANCH  58  59
HETATM   59  P   UNK N   1      19.910  18.127   1.968  0.00  0.00     0.391 P 
HETATM   60  O   UNK N   1      20.819  19.365   2.187  0.00  0.00    -0.632 OA
BRANCH  59  61
HETATM   61  O   UNK N   1      18.284  18.586   2.375  0.00  0.00    -0.307 OA
HETATM   62  H   UNK N   1      17.596  18.817   3.018  0.00  0.00     0.222 HD
ENDBRANCH  59  61
BRANCH  59  63
HETATM   63  O   UNK N   1      20.016  17.721   0.286  0.00  0.00    -0.307 OA
HETATM   64  H   UNK N   1      19.210  17.528  -0.218  0.00  0.00     0.222 HD
ENDBRANCH  59  63
ENDBRANCH  58  59
ENDBRANCH  54  58
BRANCH  55  65
HETATM   65  O   UNK N   1      18.652  16.026   5.155  0.00  0.00    -0.388 OA
HETATM   66  H   UNK N   1      17.873  16.606   5.155  0.00  0.00     0.210 HD
ENDBRANCH  55  65
BRANCH  56  67
HETATM   67  N   UNK N   1      20.487  15.849   7.698  0.00  0.00    -0.297 N 
HETATM   68  C   UNK N   1      19.585  15.912   8.713  0.00  0.00     0.188 A 
HETATM   69  N   UNK N   1      19.784  14.920   9.625  0.00  0.00    -0.346 N 
HETATM   70  C   UNK N   1      20.830  14.230   9.145  0.00  0.00     0.122 A 
ATOM     71  HN  UNK N   1      19.257  14.743  10.481  1.00  0.00     0.167 HD
HETATM   72  C   UNK N   1      21.455  13.104   9.655  0.00  0.00     0.131 A 
HETATM   73  C   UNK N   1      21.258  14.782   7.991  0.00  0.00     0.142 A 
HETATM   74  N   UNK N   1      22.501  12.578   8.953  0.00  0.00    -0.337 N 
HETATM   75  C   UNK N   1      22.920  13.151   7.776  0.00  0.00     0.183 A 
ATOM     76  HN  UNK N   1      22.978  11.748   9.306  1.00  0.00     0.168 HD
HETATM   77  N   UNK N   1      22.293  14.266   7.285  0.00  0.00    -0.336 N 
ATOM     78  HN  UNK N   1      22.598  14.697   6.413  1.00  0.00     0.168 HD
BRANCH  72  79
HETATM   79  N   UNK N   1      21.025  12.508  10.859  0.00  0.00    -0.383 N 
HETATM   80  H   UNK N   1      21.551  12.618  11.683  0.00  0.00     0.157 HD
HETATM   81  H   UNK N   1      20.194  11.980  10.875  0.00  0.00     0.157 HD
ENDBRANCH  72  79
ENDBRANCH  56  67
ENDBRANCH  52  53
ENDBRANCH  51  52
ENDBRANCH  47  51
ENDBRANCH  46  47
ENDBRANCH   3  46
TORSDOF 36
ENDMDL
MODEL 8
REMARK VINA RESULT:      -6.9      5.686     11.681
REMARK WARNING: 32 MAX_TORS EXCEEDED!!!
REMARK  36 active torsions:
REMARK  status: ('A' for Active; 'I' for Inactive)
REMARK    1  A    between atoms: C_9  and  C_7 
REMARK    2  A    between atoms: C_19  and  C_7 
REMARK    3  A    between atoms: C_10  and  C_8 
REMARK    4  A    between atoms: C_23  and  C_8 
REMARK    5  A    between atoms: N_35  and  C_9 
REMARK    6  A    between atoms: N_39  and  C_10 
REMARK    7  A    between atoms: C_12  and  C_11 
REMARK    8  A    between atoms: N_37  and  C_11 
REMARK    9  A    between atoms: S_69  and  C_12 
REMARK   10  A    between atoms: C_22  and  C_14 
REMARK   11  A    between atoms: O_61  and  C_14 
REMARK   12  A    between atoms: C_24  and  C_15 
REMARK   13  A    between atoms: S_69  and  C_15 
REMARK   14  A    between atoms: C_33  and  C_16 
REMARK   15  A    between atoms: O_62  and  C_16 
REMARK   16  A    between atoms: N_37  and  C_23 
REMARK   17  A    between atoms: O_49  and  C_23 
REMARK   18  A    between atoms: N_35  and  C_24 
REMARK   19  A    between atoms: O_50  and  C_24 
REMARK   20  A    between atoms: C_26  and  O_51 
REMARK   21  A    between atoms: C_27  and  O_64 
REMARK   22  A    between atoms: C_31  and  C_28 
REMARK   23  A    between atoms: C_33  and  C_28 
REMARK   24  A    between atoms: C_28  and  O_52 
REMARK   25  A    between atoms: N_34  and  C_29 
REMARK   26  A    between atoms: N_39  and  C_31 
REMARK   27  A    between atoms: O_53  and  C_31 
REMARK   28  A    between atoms: C_32  and  N_48 
REMARK   29  A    between atoms: P_66  and  O_54 
REMARK   30  A    between atoms: P_66  and  O_55 
REMARK   31  A    between atoms: P_67  and  O_57 
REMARK   32  A    between atoms: P_67  and  O_61 
REMARK   33  A    between atoms: P_68  and  O_62 
REMARK   34  A    between atoms: P_66  and  O_64 
REMARK   35  A    between atoms: P_67  and  O_65 
REMARK   36  A    between atoms: P_68  and  O_65 
ROOT
HETATM    1  O   UNK N   1      24.986  14.325   5.598  0.00  0.00    -0.307 OA
HETATM    2  O   UNK N   1      27.578  13.924   5.435  0.00  0.00    -0.631 OA
HETATM    3  P   UNK N   1      26.506  15.017   5.160  0.00  0.00     0.401 P 
HETATM    4  H   UNK N   1      24.094  13.961   5.707  0.00  0.00     0.222 HD
ENDROOT
BRANCH   3   5
HETATM    5  O   UNK N   1      26.852  16.389   6.192  0.00  0.00    -0.296 OA
BRANCH   5   6
HETATM    6  C   UNK N   1      26.866  17.558   5.392  0.00  0.00     0.192 C 
BRANCH   6   7
HETATM    7  C   UNK N   1      28.117  18.463   5.581  0.00  0.00     0.008 C 
HETATM    8  C   UNK N   1      27.813  19.877   5.123  0.00  0.00     0.020 C 
HETATM    9  C   UNK N   1      28.521  18.547   7.044  0.00  0.00     0.020 C 
BRANCH   7  10
HETATM   10  C   UNK N   1      29.336  17.965   4.759  0.00  0.00     0.202 C 
BRANCH  10  11
HETATM   11  C   UNK N   1      30.337  17.069   5.453  0.00  0.00     0.141 C 
BRANCH  11  12
HETATM   12  N   UNK N   1      31.585  17.381   5.544  0.00  0.00    -0.372 N 
ATOM     13  HN  UNK N   1      32.088  17.703   4.718  1.00  0.00     0.161 HD
BRANCH  12  14
HETATM   14  C   UNK N   1      32.274  17.275   6.808  0.00  0.00     0.129 C 
BRANCH  14  15
HETATM   15  C   UNK N   1      33.743  17.623   6.679  0.00  0.00     0.103 C 
BRANCH  15  16
HETATM   16  C   UNK N   1      34.417  17.810   7.998  0.00  0.00     0.112 C 
BRANCH  16  17
HETATM   17  N   UNK N   1      34.621  16.797   8.766  0.00  0.00    -0.374 N 
ATOM     18  HN  UNK N   1      34.283  16.824   9.729  1.00  0.00     0.161 HD
BRANCH  17  19
HETATM   19  C   UNK N   1      35.319  15.627   8.292  0.00  0.00     0.131 C 
BRANCH  19  20
HETATM   20  C   UNK N   1      34.418  14.395   8.384  0.00  0.00     0.094 C 
BRANCH  20  21
HETATM   21  S   UNK N   1      35.348  12.853   8.718  0.00  0.00    -0.159 SA
BRANCH  21  22
HETATM   22  C   UNK N   1      34.434  12.475  10.239  0.00  0.00     0.157 C 
BRANCH  22  23
HETATM   23  C   UNK N   1      34.877  13.319  11.408  0.00  0.00     0.120 C 
BRANCH  23  24
HETATM   24  N   UNK N   1      35.977  13.059  12.027  0.00  0.00    -0.374 N 
ATOM     25  HN  UNK N   1      36.725  13.752  12.016  1.00  0.00     0.161 HD
BRANCH  24  26
HETATM   26  C   UNK N   1      36.182  11.818  12.737  0.00  0.00     0.126 C 
BRANCH  26  27
HETATM   27  C   UNK N   1      37.207  12.008  13.838  0.00  0.00     0.060 C 
BRANCH  27  28
HETATM   28  C   UNK N   1      36.518  12.277  15.134  0.00  0.00    -0.029 A 
HETATM   29  C   UNK N   1      35.970  13.489  15.534  0.00  0.00     0.096 A 
HETATM   30  N   UNK N   1      35.429  13.356  16.773  0.00  0.00    -0.365 N 
HETATM   31  C   UNK N   1      35.637  12.076  17.136  0.00  0.00     0.042 A 
HETATM   32  H   UNK N   1      34.976  14.054  17.299  0.00  0.00     0.165 HD
HETATM   33  C   UNK N   1      35.257  11.471  18.331  0.00  0.00     0.030 A 
HETATM   34  C   UNK N   1      36.297  11.390  16.159  0.00  0.00    -0.002 A 
HETATM   35  C   UNK N   1      35.576  10.112  18.506  0.00  0.00     0.002 A 
HETATM   36  C   UNK N   1      36.260   9.400  17.494  0.00  0.00     0.001 A 
HETATM   37  C   UNK N   1      36.629  10.044  16.299  0.00  0.00     0.014 A 
ENDBRANCH  27  28
ENDBRANCH  26  27
ENDBRANCH  24  26
ENDBRANCH  23  24
BRANCH  23  38
HETATM   38  O   UNK N   1      34.139  14.378  11.795  0.00  0.00    -0.349 OA
HETATM   39  H   UNK N   1      34.078  14.856  12.598  0.00  0.00     0.219 HD
ENDBRANCH  23  38
ENDBRANCH  22  23
ENDBRANCH  21  22
ENDBRANCH  20  21
ENDBRANCH  19  20
ENDBRANCH  17  19
ENDBRANCH  16  17
BRANCH  16  40
HETATM   40  O   UNK N   1      34.881  19.033   8.334  0.00  0.00    -0.350 OA
HETATM   41  H   UNK N   1      35.724  19.334   8.058  0.00  0.00     0.219 HD
ENDBRANCH  16  40
ENDBRANCH  15  16
ENDBRANCH  14  15
ENDBRANCH  12  14
ENDBRANCH  11  12
BRANCH  11  42
HETATM   42  O   UNK N   1      29.895  15.898   5.963  0.00  0.00    -0.348 OA
HETATM   43  H   UNK N   1      29.360  15.328   5.446  0.00  0.00     0.219 HD
ENDBRANCH  11  42
ENDBRANCH  10  11
BRANCH  10  44
HETATM   44  O   UNK N   1      28.894  17.325   3.597  0.00  0.00    -0.387 OA
HETATM   45  H   UNK N   1      28.208  17.511   2.937  0.00  0.00     0.210 HD
ENDBRANCH  10  44
ENDBRANCH   7  10
ENDBRANCH   6   7
ENDBRANCH   5   6
ENDBRANCH   3   5
BRANCH   3  46
HETATM   46  O   UNK N   1      26.505  15.326   3.437  0.00  0.00    -0.195 OA
BRANCH  46  47
HETATM   47  P   UNK N   1      24.909  14.929   2.826  0.00  0.00     0.401 P 
HETATM   48  O   UNK N   1      24.980  15.039   1.277  0.00  0.00    -0.631 OA
BRANCH  47  49
HETATM   49  O   UNK N   1      24.429  13.283   3.123  0.00  0.00    -0.307 OA
HETATM   50  H   UNK N   1      24.416  12.322   3.253  0.00  0.00     0.222 HD
ENDBRANCH  47  49
BRANCH  47  51
HETATM   51  O   UNK N   1      23.659  16.020   3.363  0.00  0.00    -0.294 OA
BRANCH  51  52
HETATM   52  C   UNK N   1      22.438  15.344   3.263  0.00  0.00     0.215 C 
BRANCH  52  53
HETATM   53  C   UNK N   1      21.593  15.497   4.539  0.00  0.00     0.180 C 
HETATM   54  C   UNK N   1      21.365  16.948   4.985  0.00  0.00     0.197 C 
HETATM   55  C   UNK N   1      20.899  16.670   6.380  0.00  0.00     0.199 C 
HETATM   56  C   UNK N   1      21.975  15.661   6.775  0.00  0.00     0.262 C 
HETATM   57  O   UNK N   1      22.168  14.817   5.646  0.00  0.00    -0.353 OA
BRANCH  54  58
HETATM   58  O   UNK N   1      20.382  17.637   4.243  0.00  0.00    -0.286 OA
BRANCH  58  59
HETATM   59  P   UNK N   1      21.111  19.010   3.437  0.00  0.00     0.391 P 
HETATM   60  O   UNK N   1      20.605  20.288   4.155  0.00  0.00    -0.632 OA
BRANCH  59  61
HETATM   61  O   UNK N   1      20.670  19.133   1.761  0.00  0.00    -0.307 OA
HETATM   62  H   UNK N   1      20.105  19.469   1.048  0.00  0.00     0.222 HD
ENDBRANCH  59  61
BRANCH  59  63
HETATM   63  O   UNK N   1      22.837  18.994   3.604  0.00  0.00    -0.307 OA
HETATM   64  H   UNK N   1      23.382  18.510   2.963  0.00  0.00     0.222 HD
ENDBRANCH  59  63
ENDBRANCH  58  59
ENDBRANCH  54  58
BRANCH  55  65
HETATM   65  O   UNK N   1      20.891  17.810   7.187  0.00  0.00    -0.388 OA
HETATM   66  H   UNK N   1      20.562  18.049   8.069  0.00  0.00     0.210 HD
ENDBRANCH  55  65
BRANCH  56  67
HETATM   67  N   UNK N   1      21.676  14.874   7.982  0.00  0.00    -0.297 N 
HETATM   68  C   UNK N   1      20.564  15.055   8.744  0.00  0.00     0.188 A 
HETATM   69  N   UNK N   1      20.523  14.183   9.789  0.00  0.00    -0.346 N 
HETATM   70  C   UNK N   1      21.636  13.446   9.653  0.00  0.00     0.122 A 
ATOM     71  HN  UNK N   1      19.807  14.108  10.513  1.00  0.00     0.167 HD
HETATM   72  C   UNK N   1      22.100  12.394  10.427  0.00  0.00     0.131 A 
HETATM   73  C   UNK N   1      22.333  13.855   8.573  0.00  0.00     0.142 A 
HETATM   74  N   UNK N   1      23.269  11.793  10.057  0.00  0.00    -0.337 N 
HETATM   75  C   UNK N   1      23.963  12.221   8.951  0.00  0.00     0.183 A 
ATOM     76  HN  UNK N   1      23.632  11.016  10.609  1.00  0.00     0.168 HD
HETATM   77  N   UNK N   1      23.492  13.264   8.196  0.00  0.00    -0.336 N 
ATOM     78  HN  UNK N   1      24.002  13.587   7.374  1.00  0.00     0.168 HD
BRANCH  72  79
HETATM   79  N   UNK N   1      21.388  11.948  11.560  0.00  0.00    -0.383 N 
HETATM   80  H   UNK N   1      21.855  11.473  12.284  0.00  0.00     0.157 HD
HETATM   81  H   UNK N   1      20.420  12.111  11.625  0.00  0.00     0.157 HD
ENDBRANCH  72  79
ENDBRANCH  56  67
ENDBRANCH  52  53
ENDBRANCH  51  52
ENDBRANCH  47  51
ENDBRANCH  46  47
ENDBRANCH   3  46
TORSDOF 36
ENDMDL
MODEL 9
REMARK VINA RESULT:      -6.8      4.986      9.275
REMARK WARNING: 32 MAX_TORS EXCEEDED!!!
REMARK  36 active torsions:
REMARK  status: ('A' for Active; 'I' for Inactive)
REMARK    1  A    between atoms: C_9  and  C_7 
REMARK    2  A    between atoms: C_19  and  C_7 
REMARK    3  A    between atoms: C_10  and  C_8 
REMARK    4  A    between atoms: C_23  and  C_8 
REMARK    5  A    between atoms: N_35  and  C_9 
REMARK    6  A    between atoms: N_39  and  C_10 
REMARK    7  A    between atoms: C_12  and  C_11 
REMARK    8  A    between atoms: N_37  and  C_11 
REMARK    9  A    between atoms: S_69  and  C_12 
REMARK   10  A    between atoms: C_22  and  C_14 
REMARK   11  A    between atoms: O_61  and  C_14 
REMARK   12  A    between atoms: C_24  and  C_15 
REMARK   13  A    between atoms: S_69  and  C_15 
REMARK   14  A    between atoms: C_33  and  C_16 
REMARK   15  A    between atoms: O_62  and  C_16 
REMARK   16  A    between atoms: N_37  and  C_23 
REMARK   17  A    between atoms: O_49  and  C_23 
REMARK   18  A    between atoms: N_35  and  C_24 
REMARK   19  A    between atoms: O_50  and  C_24 
REMARK   20  A    between atoms: C_26  and  O_51 
REMARK   21  A    between atoms: C_27  and  O_64 
REMARK   22  A    between atoms: C_31  and  C_28 
REMARK   23  A    between atoms: C_33  and  C_28 
REMARK   24  A    between atoms: C_28  and  O_52 
REMARK   25  A    between atoms: N_34  and  C_29 
REMARK   26  A    between atoms: N_39  and  C_31 
REMARK   27  A    between atoms: O_53  and  C_31 
REMARK   28  A    between atoms: C_32  and  N_48 
REMARK   29  A    between atoms: P_66  and  O_54 
REMARK   30  A    between atoms: P_66  and  O_55 
REMARK   31  A    between atoms: P_67  and  O_57 
REMARK   32  A    between atoms: P_67  and  O_61 
REMARK   33  A    between atoms: P_68  and  O_62 
REMARK   34  A    between atoms: P_66  and  O_64 
REMARK   35  A    between atoms: P_67  and  O_65 
REMARK   36  A    between atoms: P_68  and  O_65 
ROOT
HETATM    1  O   UNK N   1      37.211  11.858   7.203  0.00  0.00    -0.307 OA
HETATM    2  O   UNK N   1      34.932  11.007   8.196  0.00  0.00    -0.631 OA
HETATM    3  P   UNK N   1      35.496  11.845   7.012  0.00  0.00     0.401 P 
HETATM    4  H   UNK N   1      38.163  12.008   7.316  0.00  0.00     0.222 HD
ENDROOT
BRANCH   3   5
HETATM    5  O   UNK N   1      35.071  11.033   5.520  0.00  0.00    -0.296 OA
BRANCH   5   6
HETATM    6  C   UNK N   1      36.090  11.286   4.568  0.00  0.00     0.192 C 
BRANCH   6   7
HETATM    7  C   UNK N   1      35.703  12.297   3.451  0.00  0.00     0.008 C 
HETATM    8  C   UNK N   1      36.724  13.417   3.382  0.00  0.00     0.020 C 
HETATM    9  C   UNK N   1      35.683  11.629   2.085  0.00  0.00     0.020 C 
BRANCH   7  10
HETATM   10  C   UNK N   1      34.318  12.952   3.701  0.00  0.00     0.202 C 
BRANCH  10  11
HETATM   11  C   UNK N   1      34.035  14.278   3.030  0.00  0.00     0.141 C 
BRANCH  11  12
HETATM   12  N   UNK N   1      33.865  15.363   3.707  0.00  0.00    -0.372 N 
ATOM     13  HN  UNK N   1      34.357  15.491   4.591  1.00  0.00     0.161 HD
BRANCH  12  14
HETATM   14  C   UNK N   1      32.984  16.397   3.221  0.00  0.00     0.129 C 
BRANCH  14  15
HETATM   15  C   UNK N   1      32.790  17.499   4.242  0.00  0.00     0.103 C 
BRANCH  15  16
HETATM   16  C   UNK N   1      31.416  17.520   4.826  0.00  0.00     0.112 C 
BRANCH  16  17
HETATM   17  N   UNK N   1      31.215  17.070   6.015  0.00  0.00    -0.374 N 
ATOM     18  HN  UNK N   1      32.012  16.913   6.632  1.00  0.00     0.161 HD
BRANCH  17  19
HETATM   19  C   UNK N   1      29.883  16.784   6.490  0.00  0.00     0.131 C 
BRANCH  19  20
HETATM   20  C   UNK N   1      29.726  17.238   7.942  0.00  0.00     0.094 C 
BRANCH  20  21
HETATM   21  S   UNK N   1      28.654  18.713   8.117  0.00  0.00    -0.159 SA
BRANCH  21  22
HETATM   22  C   UNK N   1      27.877  18.504   6.490  0.00  0.00     0.157 C 
BRANCH  22  23
HETATM   23  C   UNK N   1      27.759  19.804   5.732  0.00  0.00     0.120 C 
BRANCH  23  24
HETATM   24  N   UNK N   1      27.857  19.827   4.448  0.00  0.00    -0.374 N 
ATOM     25  HN  UNK N   1      28.784  19.831   4.023  1.00  0.00     0.161 HD
BRANCH  24  26
HETATM   26  C   UNK N   1      26.695  19.849   3.591  0.00  0.00     0.126 C 
BRANCH  26  27
HETATM   27  C   UNK N   1      25.604  18.967   4.167  0.00  0.00     0.060 C 
BRANCH  27  28
HETATM   28  C   UNK N   1      24.269  19.422   3.677  0.00  0.00    -0.029 A 
HETATM   29  C   UNK N   1      24.009  20.598   2.985  0.00  0.00     0.096 A 
HETATM   30  N   UNK N   1      22.682  20.676   2.706  0.00  0.00    -0.365 N 
HETATM   31  C   UNK N   1      22.126  19.561   3.217  0.00  0.00     0.042 A 
HETATM   32  H   UNK N   1      22.220  21.401   2.226  0.00  0.00     0.165 HD
HETATM   33  C   UNK N   1      20.783  19.199   3.176  0.00  0.00     0.030 A 
HETATM   34  C   UNK N   1      23.067  18.773   3.816  0.00  0.00    -0.002 A 
HETATM   35  C   UNK N   1      20.415  17.981   3.778  0.00  0.00     0.002 A 
HETATM   36  C   UNK N   1      21.389  17.165   4.398  0.00  0.00     0.001 A 
HETATM   37  C   UNK N   1      22.739  17.562   4.420  0.00  0.00     0.014 A 
ENDBRANCH  27  28
ENDBRANCH  26  27
ENDBRANCH  24  26
ENDBRANCH  23  24
BRANCH  23  38
HETATM   38  O   UNK N   1      27.514  20.952   6.394  0.00  0.00    -0.349 OA
HETATM   39  H   UNK N   1      27.967  21.405   7.077  0.00  0.00     0.219 HD
ENDBRANCH  23  38
ENDBRANCH  22  23
ENDBRANCH  21  22
ENDBRANCH  20  21
ENDBRANCH  19  20
ENDBRANCH  17  19
ENDBRANCH  16  17
BRANCH  16  40
HETATM   40  O   UNK N   1      30.412  18.091   4.126  0.00  0.00    -0.350 OA
HETATM   41  H   UNK N   1      29.948  18.839   4.448  0.00  0.00     0.219 HD
ENDBRANCH  16  40
ENDBRANCH  15  16
ENDBRANCH  14  15
ENDBRANCH  12  14
ENDBRANCH  11  12
BRANCH  11  42
HETATM   42  O   UNK N   1      33.932  14.300   1.683  0.00  0.00    -0.348 OA
HETATM   43  H   UNK N   1      34.616  13.945   1.150  0.00  0.00     0.219 HD
ENDBRANCH  11  42
ENDBRANCH  10  11
BRANCH  10  44
HETATM   44  O   UNK N   1      33.301  12.054   3.364  0.00  0.00    -0.387 OA
HETATM   45  H   UNK N   1      32.349  12.136   3.197  0.00  0.00     0.210 HD
ENDBRANCH  10  44
ENDBRANCH   7  10
ENDBRANCH   6   7
ENDBRANCH   5   6
ENDBRANCH   3   5
BRANCH   3  46
HETATM   46  O   UNK N   1      34.899  13.481   7.200  0.00  0.00    -0.195 OA
BRANCH  46  47
HETATM   47  P   UNK N   1      33.145  13.409   7.215  0.00  0.00     0.401 P 
HETATM   48  O   UNK N   1      32.639  14.641   6.415  0.00  0.00    -0.631 OA
BRANCH  47  49
HETATM   49  O   UNK N   1      32.488  12.039   6.366  0.00  0.00    -0.307 OA
HETATM   50  H   UNK N   1      32.113  11.447   5.696  0.00  0.00     0.222 HD
ENDBRANCH  47  49
BRANCH  47  51
HETATM   51  O   UNK N   1      32.451  13.509   8.811  0.00  0.00    -0.294 OA
BRANCH  51  52
HETATM   52  C   UNK N   1      32.643  14.817   9.272  0.00  0.00     0.215 C 
BRANCH  52  53
HETATM   53  C   UNK N   1      33.800  14.903  10.283  0.00  0.00     0.180 C 
HETATM   54  C   UNK N   1      34.973  15.786   9.837  0.00  0.00     0.197 C 
HETATM   55  C   UNK N   1      35.989  15.305  10.826  0.00  0.00     0.199 C 
HETATM   56  C   UNK N   1      35.753  13.804  10.671  0.00  0.00     0.262 C 
HETATM   57  O   UNK N   1      34.344  13.626  10.584  0.00  0.00    -0.353 OA
BRANCH  54  58
HETATM   58  O   UNK N   1      34.742  17.172   9.971  0.00  0.00    -0.286 OA
BRANCH  58  59
HETATM   59  P   UNK N   1      34.404  17.865   8.399  0.00  0.00     0.391 P 
HETATM   60  O   UNK N   1      35.342  19.089   8.223  0.00  0.00    -0.632 OA
BRANCH  59  61
HETATM   61  O   UNK N   1      32.768  18.424   8.235  0.00  0.00    -0.307 OA
HETATM   62  H   UNK N   1      31.873  18.356   7.866  0.00  0.00     0.222 HD
ENDBRANCH  59  61
BRANCH  59  63
HETATM   63  O   UNK N   1      34.790  16.754   7.125  0.00  0.00    -0.307 OA
HETATM   64  H   UNK N   1      35.698  16.700   6.787  0.00  0.00     0.222 HD
ENDBRANCH  59  63
ENDBRANCH  58  59
ENDBRANCH  54  58
BRANCH  55  65
HETATM   65  O   UNK N   1      37.290  15.694  10.500  0.00  0.00    -0.388 OA
HETATM   66  H   UNK N   1      38.026  15.332   9.980  0.00  0.00     0.210 HD
ENDBRANCH  55  65
BRANCH  56  67
HETATM   67  N   UNK N   1      36.330  12.971  11.738  0.00  0.00    -0.297 N 
HETATM   68  C   UNK N   1      37.657  12.701  11.850  0.00  0.00     0.188 A 
HETATM   69  N   UNK N   1      37.923  11.925  12.937  0.00  0.00    -0.346 N 
HETATM   70  C   UNK N   1      36.724  11.726  13.507  0.00  0.00     0.122 A 
ATOM     71  HN  UNK N   1      38.830  11.574  13.248  1.00  0.00     0.167 HD
HETATM   72  C   UNK N   1      36.397  11.022  14.654  0.00  0.00     0.131 A 
HETATM   73  C   UNK N   1      35.764  12.349  12.793  0.00  0.00     0.142 A 
HETATM   74  N   UNK N   1      35.086  10.988  15.033  0.00  0.00    -0.337 N 
HETATM   75  C   UNK N   1      34.121  11.632  14.296  0.00  0.00     0.183 A 
ATOM     76  HN  UNK N   1      34.818  10.478  15.874  1.00  0.00     0.168 HD
HETATM   77  N   UNK N   1      34.461  12.323  13.161  0.00  0.00    -0.336 N 
ATOM     78  HN  UNK N   1      33.751  12.804  12.609  1.00  0.00     0.168 HD
BRANCH  72  79
HETATM   79  N   UNK N   1      37.384  10.364  15.418  0.00  0.00    -0.383 N 
HETATM   80  H   UNK N   1      37.884  10.854  16.109  0.00  0.00     0.157 HD
HETATM   81  H   UNK N   1      37.573   9.412  15.257  0.00  0.00     0.157 HD
ENDBRANCH  72  79
ENDBRANCH  56  67
ENDBRANCH  52  53
ENDBRANCH  51  52
ENDBRANCH  47  51
ENDBRANCH  46  47
ENDBRANCH   3  46
TORSDOF 36
ENDMDL
