MODEL 1
REMARK VINA RESULT:      -7.1      0.000      0.000
REMARK  9 active torsions:
REMARK  status: ('A' for Active; 'I' for Inactive)
REMARK    1  A    between atoms: C_5  and  N_4 
REMARK    2  A    between atoms: C_7  and  C_8 
REMARK    3  A    between atoms: C_8  and  O_9 
REMARK    4  A    between atoms: P_10  and  O_9 
REMARK    5  A    between atoms: P_10  and  O_11 
REMARK    6  A    between atoms: P_10  and  O_13 
REMARK    7  A    between atoms: O_13  and  P_14 
REMARK    8  A    between atoms: P_14  and  O_15 
REMARK    9  A    between atoms: P_14  and  O_16 
ROOT
HETATM    1  C   UNK N   1      21.014  17.609   5.039  0.00  0.00     0.257 C 
HETATM    2  O   UNK N   1      20.205  16.703   5.784  0.00  0.00    -0.352 OA
HETATM    3  C   UNK N   1      21.063  16.081   6.729  0.00  0.00     0.171 C 
HETATM    4  C   UNK N   1      22.444  16.430   6.354  0.00  0.00     0.007 C 
HETATM    5  C   UNK N   1      22.419  17.307   5.397  0.00  0.00     0.025 C 
ENDROOT
BRANCH   3   6
HETATM    6  C   UNK N   1      20.863  14.573   6.747  0.00  0.00     0.216 C 
BRANCH   6   7
HETATM    7  O   UNK N   1      19.939  14.250   7.753  0.00  0.00    -0.294 OA
BRANCH   7   8
HETATM    8  P   UNK N   1      20.870  14.073   9.222  0.00  0.00     0.401 P 
HETATM    9  O   UNK N   1      19.430  14.225   9.785  0.00  0.00    -0.631 OA
BRANCH   8  10
HETATM   10  O   UNK N   1      20.962  12.604   8.300  0.00  0.00    -0.307 OA
HETATM   11  H   UNK N   1      21.699  11.973   8.271  0.00  0.00     0.222 HD
ENDBRANCH   8  10
BRANCH   8  12
HETATM   12  O   UNK N   1      20.693  12.696  10.279  0.00  0.00    -0.195 OA
BRANCH  12  13
HETATM   13  P   UNK N   1      22.297  12.032  10.452  0.00  0.00     0.399 P 
HETATM   14  O   UNK N   1      22.603  13.539  10.232  0.00  0.00    -0.631 OA
BRANCH  13  15
HETATM   15  O   UNK N   1      23.284  12.445  11.819  0.00  0.00    -0.307 OA
HETATM   16  H   UNK N   1      23.153  13.237  12.364  0.00  0.00     0.222 HD
ENDBRANCH  13  15
BRANCH  13  17
HETATM   17  O   UNK N   1      21.415  11.830  11.933  0.00  0.00    -0.307 OA
HETATM   18  H   UNK N   1      20.494  11.541  12.032  0.00  0.00     0.222 HD
ENDBRANCH  13  17
ENDBRANCH  12  13
ENDBRANCH   8  12
ENDBRANCH   7   8
ENDBRANCH   6   7
ENDBRANCH   3   6
BRANCH   1  19
HETATM   19  N   UNK N   1      20.805  17.489   3.585  0.00  0.00    -0.278 N 
HETATM   20  C   UNK N   1      20.929  16.280   2.967  0.00  0.00     0.111 A 
HETATM   21  C   UNK N   1      20.710  16.153   1.595  0.00  0.00     0.022 A 
HETATM   22  C   UNK N   1      20.850  14.820   0.943  0.00  0.00     0.056 C 
HETATM   23  C   UNK N   1      20.358  17.289   0.861  0.00  0.00     0.256 A 
HETATM   24  N   UNK N   1      20.235  18.493   1.495  0.00  0.00    -0.275 N 
HETATM   25  O   UNK N   1      20.157  17.217  -0.339  0.00  0.00    -0.267 OA
HETATM   26  C   UNK N   1      20.452  18.604   2.844  0.00  0.00     0.331 A 
HETATM   27  H   UNK N   1      19.988  19.292   0.977  0.00  0.00     0.173 HD
HETATM   28  O   UNK N   1      20.322  19.691   3.380  0.00  0.00    -0.246 OA
ENDBRANCH   1  19
TORSDOF 9
ENDMDL
MODEL 2
REMARK VINA RESULT:      -6.7     15.119     17.911
REMARK  9 active torsions:
REMARK  status: ('A' for Active; 'I' for Inactive)
REMARK    1  A    between atoms: C_5  and  N_4 
REMARK    2  A    between atoms: C_7  and  C_8 
REMARK    3  A    between atoms: C_8  and  O_9 
REMARK    4  A    between atoms: P_10  and  O_9 
REMARK    5  A    between atoms: P_10  and  O_11 
REMARK    6  A    between atoms: P_10  and  O_13 
REMARK    7  A    between atoms: O_13  and  P_14 
REMARK    8  A    between atoms: P_14  and  O_15 
REMARK    9  A    between atoms: P_14  and  O_16 
ROOT
HETATM    1  C   UNK N   1      35.848  12.277  13.764  0.00  0.00     0.257 C 
HETATM    2  O   UNK N   1      34.694  12.602  12.996  0.00  0.00    -0.352 OA
HETATM    3  C   UNK N   1      35.137  12.776  11.658  0.00  0.00     0.171 C 
HETATM    4  C   UNK N   1      36.608  12.820  11.693  0.00  0.00     0.007 C 
HETATM    5  C   UNK N   1      37.017  12.526  12.890  0.00  0.00     0.025 C 
ENDROOT
BRANCH   3   6
HETATM    6  C   UNK N   1      34.564  14.047  11.049  0.00  0.00     0.216 C 
BRANCH   6   7
HETATM    7  O   UNK N   1      35.605  14.773  10.450  0.00  0.00    -0.294 OA
BRANCH   7   8
HETATM    8  P   UNK N   1      34.850  15.783   9.238  0.00  0.00     0.401 P 
HETATM    9  O   UNK N   1      33.675  15.558  10.230  0.00  0.00    -0.631 OA
BRANCH   8  10
HETATM   10  O   UNK N   1      36.101  16.682  10.042  0.00  0.00    -0.307 OA
HETATM   11  H   UNK N   1      35.994  17.321  10.765  0.00  0.00     0.222 HD
ENDBRANCH   8  10
BRANCH   8  12
HETATM   12  O   UNK N   1      34.290  17.398   9.588  0.00  0.00    -0.195 OA
BRANCH  12  13
HETATM   13  P   UNK N   1      33.713  18.030   8.068  0.00  0.00     0.399 P 
HETATM   14  O   UNK N   1      34.892  18.991   8.380  0.00  0.00    -0.631 OA
BRANCH  13  15
HETATM   15  O   UNK N   1      34.695  17.937   6.640  0.00  0.00    -0.307 OA
HETATM   16  H   UNK N   1      35.234  18.671   6.302  0.00  0.00     0.222 HD
ENDBRANCH  13  15
BRANCH  13  17
HETATM   17  O   UNK N   1      34.322  16.421   7.841  0.00  0.00    -0.307 OA
HETATM   18  H   UNK N   1      35.216  16.100   8.035  0.00  0.00     0.222 HD
ENDBRANCH  13  17
ENDBRANCH  12  13
ENDBRANCH   8  12
ENDBRANCH   7   8
ENDBRANCH   6   7
ENDBRANCH   3   6
BRANCH   1  19
HETATM   19  N   UNK N   1      35.942  13.067  15.005  0.00  0.00    -0.278 N 
HETATM   20  C   UNK N   1      36.684  14.211  15.040  0.00  0.00     0.111 A 
HETATM   21  C   UNK N   1      36.760  14.977  16.204  0.00  0.00     0.022 A 
HETATM   22  C   UNK N   1      37.576  16.224  16.216  0.00  0.00     0.056 C 
HETATM   23  C   UNK N   1      36.058  14.555  17.336  0.00  0.00     0.256 A 
HETATM   24  N   UNK N   1      35.317  13.408  17.283  0.00  0.00    -0.275 N 
HETATM   25  O   UNK N   1      36.098  15.200  18.370  0.00  0.00    -0.267 OA
HETATM   26  C   UNK N   1      35.250  12.664  16.135  0.00  0.00     0.331 A 
HETATM   27  H   UNK N   1      34.824  13.112  18.082  0.00  0.00     0.173 HD
HETATM   28  O   UNK N   1      34.570  11.654  16.118  0.00  0.00    -0.246 OA
ENDBRANCH   1  19
TORSDOF 9
ENDMDL
MODEL 3
REMARK VINA RESULT:      -6.7      2.151      2.711
REMARK  9 active torsions:
REMARK  status: ('A' for Active; 'I' for Inactive)
REMARK    1  A    between atoms: C_5  and  N_4 
REMARK    2  A    between atoms: C_7  and  C_8 
REMARK    3  A    between atoms: C_8  and  O_9 
REMARK    4  A    between atoms: P_10  and  O_9 
REMARK    5  A    between atoms: P_10  and  O_11 
REMARK    6  A    between atoms: P_10  and  O_13 
REMARK    7  A    between atoms: O_13  and  P_14 
REMARK    8  A    between atoms: P_14  and  O_15 
REMARK    9  A    between atoms: P_14  and  O_16 
ROOT
HETATM    1  C   UNK N   1      23.182  16.580   5.218  0.00  0.00     0.257 C 
HETATM    2  O   UNK N   1      22.498  16.547   6.468  0.00  0.00    -0.352 OA
HETATM    3  C   UNK N   1      21.888  15.269   6.559  0.00  0.00     0.171 C 
HETATM    4  C   UNK N   1      21.991  14.645   5.229  0.00  0.00     0.007 C 
HETATM    5  C   UNK N   1      22.735  15.386   4.465  0.00  0.00     0.025 C 
ENDROOT
BRANCH   3   6
HETATM    6  C   UNK N   1      20.437  15.381   7.003  0.00  0.00     0.216 C 
BRANCH   6   7
HETATM    7  O   UNK N   1      20.046  14.167   7.590  0.00  0.00    -0.294 OA
BRANCH   7   8
HETATM    8  P   UNK N   1      20.976  14.024   9.063  0.00  0.00     0.401 P 
HETATM    9  O   UNK N   1      19.547  14.273   9.621  0.00  0.00    -0.631 OA
BRANCH   8  10
HETATM   10  O   UNK N   1      20.995  12.506   8.220  0.00  0.00    -0.307 OA
HETATM   11  H   UNK N   1      21.309  12.338   7.317  0.00  0.00     0.222 HD
ENDBRANCH   8  10
BRANCH   8  12
HETATM   12  O   UNK N   1      20.740  12.715  10.192  0.00  0.00    -0.195 OA
BRANCH  12  13
HETATM   13  P   UNK N   1      22.322  12.021  10.436  0.00  0.00     0.399 P 
HETATM   14  O   UNK N   1      22.670  13.514  10.191  0.00  0.00    -0.631 OA
BRANCH  13  15
HETATM   15  O   UNK N   1      23.271  12.444  11.826  0.00  0.00    -0.307 OA
HETATM   16  H   UNK N   1      23.434  13.356  12.115  0.00  0.00     0.222 HD
ENDBRANCH  13  15
BRANCH  13  17
HETATM   17  O   UNK N   1      21.385  11.874  11.890  0.00  0.00    -0.307 OA
HETATM   18  H   UNK N   1      20.432  11.706  11.959  0.00  0.00     0.222 HD
ENDBRANCH  13  17
ENDBRANCH  12  13
ENDBRANCH   8  12
ENDBRANCH   7   8
ENDBRANCH   6   7
ENDBRANCH   3   6
BRANCH   1  19
HETATM   19  N   UNK N   1      22.910  17.814   4.458  0.00  0.00    -0.278 N 
HETATM   20  C   UNK N   1      21.645  18.097   4.032  0.00  0.00     0.111 A 
HETATM   21  C   UNK N   1      21.375  19.273   3.332  0.00  0.00     0.022 A 
HETATM   22  C   UNK N   1      19.984  19.561   2.879  0.00  0.00     0.056 C 
HETATM   23  C   UNK N   1      22.423  20.160   3.074  0.00  0.00     0.256 A 
HETATM   24  N   UNK N   1      23.683  19.863   3.509  0.00  0.00    -0.275 N 
HETATM   25  O   UNK N   1      22.225  21.199   2.467  0.00  0.00    -0.267 OA
HETATM   26  C   UNK N   1      23.937  18.705   4.197  0.00  0.00     0.331 A 
HETATM   27  H   UNK N   1      24.421  20.488   3.326  0.00  0.00     0.173 HD
HETATM   28  O   UNK N   1      25.070  18.476   4.582  0.00  0.00    -0.246 OA
ENDBRANCH   1  19
TORSDOF 9
ENDMDL
MODEL 4
REMARK VINA RESULT:      -6.7     14.848     16.801
REMARK  9 active torsions:
REMARK  status: ('A' for Active; 'I' for Inactive)
REMARK    1  A    between atoms: C_5  and  N_4 
REMARK    2  A    between atoms: C_7  and  C_8 
REMARK    3  A    between atoms: C_8  and  O_9 
REMARK    4  A    between atoms: P_10  and  O_9 
REMARK    5  A    between atoms: P_10  and  O_11 
REMARK    6  A    between atoms: P_10  and  O_13 
REMARK    7  A    between atoms: O_13  and  P_14 
REMARK    8  A    between atoms: P_14  and  O_15 
REMARK    9  A    between atoms: P_14  and  O_16 
ROOT
HETATM    1  C   UNK N   1      28.741  24.225  -3.531  0.00  0.00     0.257 C 
HETATM    2  O   UNK N   1      28.529  24.998  -4.708  0.00  0.00    -0.352 OA
HETATM    3  C   UNK N   1      27.149  25.332  -4.728  0.00  0.00     0.171 C 
HETATM    4  C   UNK N   1      26.493  24.517  -3.691  0.00  0.00     0.007 C 
HETATM    5  C   UNK N   1      27.398  23.893  -3.001  0.00  0.00     0.025 C 
ENDROOT
BRANCH   3   6
HETATM    6  C   UNK N   1      26.539  25.074  -6.097  0.00  0.00     0.216 C 
BRANCH   6   7
HETATM    7  O   UNK N   1      25.563  24.071  -5.978  0.00  0.00    -0.294 OA
BRANCH   7   8
HETATM    8  P   UNK N   1      26.000  22.836  -7.137  0.00  0.00     0.401 P 
HETATM    9  O   UNK N   1      24.833  22.148  -6.375  0.00  0.00    -0.631 OA
BRANCH   8  10
HETATM   10  O   UNK N   1      25.382  24.225  -7.978  0.00  0.00    -0.307 OA
HETATM   11  H   UNK N   1      25.075  25.059  -7.590  0.00  0.00     0.222 HD
ENDBRANCH   8  10
BRANCH   8  12
HETATM   12  O   UNK N   1      24.920  22.328  -8.409  0.00  0.00    -0.195 OA
BRANCH  12  13
HETATM   13  P   UNK N   1      25.897  21.378  -9.497  0.00  0.00     0.399 P 
HETATM   14  O   UNK N   1      25.539  22.601 -10.385  0.00  0.00    -0.631 OA
BRANCH  13  15
HETATM   15  O   UNK N   1      27.445  21.953 -10.030  0.00  0.00    -0.307 OA
HETATM   16  H   UNK N   1      27.671  22.124 -10.959  0.00  0.00     0.222 HD
ENDBRANCH  13  15
BRANCH  13  17
HETATM   17  O   UNK N   1      26.858  21.901  -8.150  0.00  0.00    -0.307 OA
HETATM   18  H   UNK N   1      26.636  22.589  -7.504  0.00  0.00     0.222 HD
ENDBRANCH  13  17
ENDBRANCH  12  13
ENDBRANCH   8  12
ENDBRANCH   7   8
ENDBRANCH   6   7
ENDBRANCH   3   6
BRANCH   1  19
HETATM   19  N   UNK N   1      29.521  23.001  -3.791  0.00  0.00    -0.278 N 
HETATM   20  C   UNK N   1      29.448  22.381  -5.003  0.00  0.00     0.111 A 
HETATM   21  C   UNK N   1      30.201  21.236  -5.266  0.00  0.00     0.022 A 
HETATM   22  C   UNK N   1      30.105  20.577  -6.599  0.00  0.00     0.056 C 
HETATM   23  C   UNK N   1      31.035  20.733  -4.263  0.00  0.00     0.256 A 
HETATM   24  N   UNK N   1      31.098  21.368  -3.055  0.00  0.00    -0.275 N 
HETATM   25  O   UNK N   1      31.709  19.736  -4.456  0.00  0.00    -0.267 OA
HETATM   26  C   UNK N   1      30.355  22.493  -2.810  0.00  0.00     0.331 A 
HETATM   27  H   UNK N   1      31.686  21.012  -2.350  0.00  0.00     0.173 HD
HETATM   28  O   UNK N   1      30.445  23.041  -1.725  0.00  0.00    -0.246 OA
ENDBRANCH   1  19
TORSDOF 9
ENDMDL
MODEL 5
REMARK VINA RESULT:      -6.6     15.090     17.709
REMARK  9 active torsions:
REMARK  status: ('A' for Active; 'I' for Inactive)
REMARK    1  A    between atoms: C_5  and  N_4 
REMARK    2  A    between atoms: C_7  and  C_8 
REMARK    3  A    between atoms: C_8  and  O_9 
REMARK    4  A    between atoms: P_10  and  O_9 
REMARK    5  A    between atoms: P_10  and  O_11 
REMARK    6  A    between atoms: P_10  and  O_13 
REMARK    7  A    between atoms: O_13  and  P_14 
REMARK    8  A    between atoms: P_14  and  O_15 
REMARK    9  A    between atoms: P_14  and  O_16 
ROOT
HETATM    1  C   UNK N   1      35.933  12.093  13.497  0.00  0.00     0.257 C 
HETATM    2  O   UNK N   1      35.330  12.859  12.458  0.00  0.00    -0.352 OA
HETATM    3  C   UNK N   1      36.236  12.836  11.365  0.00  0.00     0.171 C 
HETATM    4  C   UNK N   1      37.503  12.277  11.866  0.00  0.00     0.007 C 
HETATM    5  C   UNK N   1      37.331  11.844  13.077  0.00  0.00     0.025 C 
ENDROOT
BRANCH   3   6
HETATM    6  C   UNK N   1      36.440  14.230  10.790  0.00  0.00     0.216 C 
BRANCH   6   7
HETATM    7  O   UNK N   1      35.629  15.135  11.493  0.00  0.00    -0.294 OA
BRANCH   7   8
HETATM    8  P   UNK N   1      34.765  16.049  10.278  0.00  0.00     0.401 P 
HETATM    9  O   UNK N   1      35.728  15.202   9.401  0.00  0.00    -0.631 OA
BRANCH   8  10
HETATM   10  O   UNK N   1      33.661  14.983  11.094  0.00  0.00    -0.307 OA
HETATM   11  H   UNK N   1      33.882  14.199  11.621  0.00  0.00     0.222 HD
ENDBRANCH   8  10
BRANCH   8  12
HETATM   12  O   UNK N   1      33.706  15.289   9.118  0.00  0.00    -0.195 OA
BRANCH  12  13
HETATM   13  P   UNK N   1      32.929  16.600   8.269  0.00  0.00     0.399 P 
HETATM   14  O   UNK N   1      31.707  15.814   8.817  0.00  0.00    -0.631 OA
BRANCH  13  15
HETATM   15  O   UNK N   1      32.030  17.807   9.134  0.00  0.00    -0.307 OA
HETATM   16  H   UNK N   1      32.268  18.132  10.017  0.00  0.00     0.222 HD
ENDBRANCH  13  15
BRANCH  13  17
HETATM   17  O   UNK N   1      33.857  17.228   9.594  0.00  0.00    -0.307 OA
HETATM   18  H   UNK N   1      34.715  16.906   9.913  0.00  0.00     0.222 HD
ENDBRANCH  13  17
ENDBRANCH  12  13
ENDBRANCH   8  12
ENDBRANCH   7   8
ENDBRANCH   6   7
ENDBRANCH   3   6
BRANCH   1  19
HETATM   19  N   UNK N   1      35.890  12.778  14.802  0.00  0.00    -0.278 N 
HETATM   20  C   UNK N   1      36.635  13.900  15.017  0.00  0.00     0.111 A 
HETATM   21  C   UNK N   1      36.583  14.567  16.241  0.00  0.00     0.022 A 
HETATM   22  C   UNK N   1      37.407  15.792  16.451  0.00  0.00     0.056 C 
HETATM   23  C   UNK N   1      35.749  14.069  17.246  0.00  0.00     0.256 A 
HETATM   24  N   UNK N   1      35.007  12.946  17.013  0.00  0.00    -0.275 N 
HETATM   25  O   UNK N   1      35.676  14.627  18.327  0.00  0.00    -0.267 OA
HETATM   26  C   UNK N   1      35.066  12.299  15.807  0.00  0.00     0.331 A 
HETATM   27  H   UNK N   1      34.421  12.596  17.723  0.00  0.00     0.173 HD
HETATM   28  O   UNK N   1      34.381  11.307  15.628  0.00  0.00    -0.246 OA
ENDBRANCH   1  19
TORSDOF 9
ENDMDL
MODEL 6
REMARK VINA RESULT:      -6.6      9.499     10.916
REMARK  9 active torsions:
REMARK  status: ('A' for Active; 'I' for Inactive)
REMARK    1  A    between atoms: C_5  and  N_4 
REMARK    2  A    between atoms: C_7  and  C_8 
REMARK    3  A    between atoms: C_8  and  O_9 
REMARK    4  A    between atoms: P_10  and  O_9 
REMARK    5  A    between atoms: P_10  and  O_11 
REMARK    6  A    between atoms: P_10  and  O_13 
REMARK    7  A    between atoms: O_13  and  P_14 
REMARK    8  A    between atoms: P_14  and  O_15 
REMARK    9  A    between atoms: P_14  and  O_16 
ROOT
HETATM    1  C   UNK N   1      28.836  17.545   7.695  0.00  0.00     0.257 C 
HETATM    2  O   UNK N   1      30.127  16.985   7.474  0.00  0.00    -0.352 OA
HETATM    3  C   UNK N   1      30.897  17.279   8.630  0.00  0.00     0.171 C 
HETATM    4  C   UNK N   1      30.130  18.256   9.422  0.00  0.00     0.007 C 
HETATM    5  C   UNK N   1      28.952  18.403   8.897  0.00  0.00     0.025 C 
ENDROOT
BRANCH   3   6
HETATM    6  C   UNK N   1      32.266  17.828   8.256  0.00  0.00     0.216 C 
BRANCH   6   7
HETATM    7  O   UNK N   1      32.969  16.847   7.539  0.00  0.00    -0.294 OA
BRANCH   7   8
HETATM    8  P   UNK N   1      32.746  17.234   5.849  0.00  0.00     0.401 P 
HETATM    9  O   UNK N   1      34.269  17.487   6.027  0.00  0.00    -0.631 OA
BRANCH   8  10
HETATM   10  O   UNK N   1      32.421  15.547   6.102  0.00  0.00    -0.307 OA
HETATM   11  H   UNK N   1      31.560  15.132   6.270  0.00  0.00     0.222 HD
ENDBRANCH   8  10
BRANCH   8  12
HETATM   12  O   UNK N   1      33.471  16.292   4.573  0.00  0.00    -0.195 OA
BRANCH  12  13
HETATM   13  P   UNK N   1      32.694  16.822   3.103  0.00  0.00     0.399 P 
HETATM   14  O   UNK N   1      32.292  15.323   3.148  0.00  0.00    -0.631 OA
BRANCH  13  15
HETATM   15  O   UNK N   1      30.964  16.868   2.983  0.00  0.00    -0.307 OA
HETATM   16  H   UNK N   1      30.408  17.547   3.398  0.00  0.00     0.222 HD
ENDBRANCH  13  15
BRANCH  13  17
HETATM   17  O   UNK N   1      32.003  17.649   4.464  0.00  0.00    -0.307 OA
HETATM   18  H   UNK N   1      31.805  18.596   4.535  0.00  0.00     0.222 HD
ENDBRANCH  13  17
ENDBRANCH  12  13
ENDBRANCH   8  12
ENDBRANCH   7   8
ENDBRANCH   6   7
ENDBRANCH   3   6
BRANCH   1  19
HETATM   19  N   UNK N   1      28.352  18.322   6.539  0.00  0.00    -0.278 N 
HETATM   20  C   UNK N   1      27.776  19.545   6.723  0.00  0.00     0.111 A 
HETATM   21  C   UNK N   1      27.335  20.297   5.634  0.00  0.00     0.022 A 
HETATM   22  C   UNK N   1      26.710  21.631   5.860  0.00  0.00     0.056 C 
HETATM   23  C   UNK N   1      27.496  19.777   4.346  0.00  0.00     0.256 A 
HETATM   24  N   UNK N   1      28.078  18.552   4.180  0.00  0.00    -0.275 N 
HETATM   25  O   UNK N   1      27.126  20.406   3.370  0.00  0.00    -0.267 OA
HETATM   26  C   UNK N   1      28.507  17.823   5.257  0.00  0.00     0.331 A 
HETATM   27  H   UNK N   1      28.190  18.187   3.272  0.00  0.00     0.173 HD
HETATM   28  O   UNK N   1      29.033  16.740   5.072  0.00  0.00    -0.246 OA
ENDBRANCH   1  19
TORSDOF 9
ENDMDL
MODEL 7
REMARK VINA RESULT:      -6.5      9.640     11.360
REMARK  9 active torsions:
REMARK  status: ('A' for Active; 'I' for Inactive)
REMARK    1  A    between atoms: C_5  and  N_4 
REMARK    2  A    between atoms: C_7  and  C_8 
REMARK    3  A    between atoms: C_8  and  O_9 
REMARK    4  A    between atoms: P_10  and  O_9 
REMARK    5  A    between atoms: P_10  and  O_11 
REMARK    6  A    between atoms: P_10  and  O_13 
REMARK    7  A    between atoms: O_13  and  P_14 
REMARK    8  A    between atoms: P_14  and  O_15 
REMARK    9  A    between atoms: P_14  and  O_16 
ROOT
HETATM    1  C   UNK N   1      29.566  16.669   4.646  0.00  0.00     0.257 C 
HETATM    2  O   UNK N   1      30.614  17.568   4.299  0.00  0.00    -0.352 OA
HETATM    3  C   UNK N   1      31.653  16.779   3.738  0.00  0.00     0.171 C 
HETATM    4  C   UNK N   1      31.318  15.370   4.009  0.00  0.00     0.007 C 
HETATM    5  C   UNK N   1      30.126  15.303   4.518  0.00  0.00     0.025 C 
ENDROOT
BRANCH   3   6
HETATM    6  C   UNK N   1      33.005  17.146   4.330  0.00  0.00     0.216 C 
BRANCH   6   7
HETATM    7  O   UNK N   1      32.886  17.217   5.727  0.00  0.00    -0.294 OA
BRANCH   7   8
HETATM    8  P   UNK N   1      34.265  16.357   6.371  0.00  0.00     0.401 P 
HETATM    9  O   UNK N   1      34.539  17.803   6.872  0.00  0.00    -0.631 OA
BRANCH   8  10
HETATM   10  O   UNK N   1      32.814  15.767   7.122  0.00  0.00    -0.307 OA
HETATM   11  H   UNK N   1      31.995  16.260   7.289  0.00  0.00     0.222 HD
ENDBRANCH   8  10
BRANCH   8  12
HETATM   12  O   UNK N   1      34.522  16.158   8.085  0.00  0.00    -0.195 OA
BRANCH  12  13
HETATM   13  P   UNK N   1      33.046  15.458   8.699  0.00  0.00     0.399 P 
HETATM   14  O   UNK N   1      34.088  14.370   9.073  0.00  0.00    -0.631 OA
BRANCH  13  15
HETATM   15  O   UNK N   1      32.808  15.245  10.405  0.00  0.00    -0.307 OA
HETATM   16  H   UNK N   1      31.998  15.497  10.875  0.00  0.00     0.222 HD
ENDBRANCH  13  15
BRANCH  13  17
HETATM   17  O   UNK N   1      33.402  16.923   9.559  0.00  0.00    -0.307 OA
HETATM   18  H   UNK N   1      33.754  17.748   9.190  0.00  0.00     0.222 HD
ENDBRANCH  13  17
ENDBRANCH  12  13
ENDBRANCH   8  12
ENDBRANCH   7   8
ENDBRANCH   6   7
ENDBRANCH   3   6
BRANCH   1  19
HETATM   19  N   UNK N   1      29.051  16.900   6.008  0.00  0.00    -0.278 N 
HETATM   20  C   UNK N   1      29.827  17.520   6.943  0.00  0.00     0.111 A 
HETATM   21  C   UNK N   1      29.340  17.763   8.227  0.00  0.00     0.022 A 
HETATM   22  C   UNK N   1      30.208  18.443   9.231  0.00  0.00     0.056 C 
HETATM   23  C   UNK N   1      28.039  17.363   8.542  0.00  0.00     0.256 A 
HETATM   24  N   UNK N   1      27.274  16.745   7.593  0.00  0.00    -0.275 N 
HETATM   25  O   UNK N   1      27.578  17.560   9.653  0.00  0.00    -0.267 OA
HETATM   26  C   UNK N   1      27.763  16.512   6.335  0.00  0.00     0.331 A 
HETATM   27  H   UNK N   1      26.357  16.463   7.817  0.00  0.00     0.173 HD
HETATM   28  O   UNK N   1      27.049  15.971   5.509  0.00  0.00    -0.246 OA
ENDBRANCH   1  19
TORSDOF 9
ENDMDL
MODEL 8
REMARK VINA RESULT:      -6.5     11.423     13.007
REMARK  9 active torsions:
REMARK  status: ('A' for Active; 'I' for Inactive)
REMARK    1  A    between atoms: C_5  and  N_4 
REMARK    2  A    between atoms: C_7  and  C_8 
REMARK    3  A    between atoms: C_8  and  O_9 
REMARK    4  A    between atoms: P_10  and  O_9 
REMARK    5  A    between atoms: P_10  and  O_11 
REMARK    6  A    between atoms: P_10  and  O_13 
REMARK    7  A    between atoms: O_13  and  P_14 
REMARK    8  A    between atoms: P_14  and  O_15 
REMARK    9  A    between atoms: P_14  and  O_16 
ROOT
HETATM    1  C   UNK N   1      32.299  17.475   8.101  0.00  0.00     0.257 C 
HETATM    2  O   UNK N   1      32.719  16.249   8.692  0.00  0.00    -0.352 OA
HETATM    3  C   UNK N   1      34.053  16.451   9.133  0.00  0.00     0.171 C 
HETATM    4  C   UNK N   1      34.512  17.724   8.552  0.00  0.00     0.007 C 
HETATM    5  C   UNK N   1      33.513  18.314   7.971  0.00  0.00     0.025 C 
ENDROOT
BRANCH   3   6
HETATM    6  C   UNK N   1      34.952  15.298   8.713  0.00  0.00     0.216 C 
BRANCH   6   7
HETATM    7  O   UNK N   1      36.062  15.250   9.573  0.00  0.00    -0.294 OA
BRANCH   7   8
HETATM    8  P   UNK N   1      35.482  14.548  11.065  0.00  0.00     0.401 P 
HETATM    9  O   UNK N   1      36.215  13.340  10.418  0.00  0.00    -0.631 OA
BRANCH   8  10
HETATM   10  O   UNK N   1      36.646  15.787  11.423  0.00  0.00    -0.307 OA
HETATM   11  H   UNK N   1      36.849  16.171  12.291  0.00  0.00     0.222 HD
ENDBRANCH   8  10
BRANCH   8  12
HETATM   12  O   UNK N   1      36.565  14.002  12.320  0.00  0.00    -0.195 OA
BRANCH  12  13
HETATM   13  P   UNK N   1      35.712  12.723  13.145  0.00  0.00     0.399 P 
HETATM   14  O   UNK N   1      36.520  13.361  14.307  0.00  0.00    -0.631 OA
BRANCH  13  15
HETATM   15  O   UNK N   1      34.494  13.087  14.326  0.00  0.00    -0.307 OA
HETATM   16  H   UNK N   1      33.558  12.852  14.231  0.00  0.00     0.222 HD
ENDBRANCH  13  15
BRANCH  13  17
HETATM   17  O   UNK N   1      34.577  13.878  12.524  0.00  0.00    -0.307 OA
HETATM   18  H   UNK N   1      34.743  14.813  12.321  0.00  0.00     0.222 HD
ENDBRANCH  13  17
ENDBRANCH  12  13
ENDBRANCH   8  12
ENDBRANCH   7   8
ENDBRANCH   6   7
ENDBRANCH   3   6
BRANCH   1  19
HETATM   19  N   UNK N   1      31.653  17.279   6.790  0.00  0.00    -0.278 N 
HETATM   20  C   UNK N   1      32.403  17.226   5.652  0.00  0.00     0.111 A 
HETATM   21  C   UNK N   1      31.802  17.017   4.411  0.00  0.00     0.022 A 
HETATM   22  C   UNK N   1      32.643  16.962   3.182  0.00  0.00     0.056 C 
HETATM   23  C   UNK N   1      30.414  16.861   4.351  0.00  0.00     0.256 A 
HETATM   24  N   UNK N   1      29.678  16.915   5.501  0.00  0.00    -0.275 N 
HETATM   25  O   UNK N   1      29.854  16.675   3.285  0.00  0.00    -0.267 OA
HETATM   26  C   UNK N   1      30.280  17.119   6.715  0.00  0.00     0.331 A 
HETATM   27  H   UNK N   1      28.700  16.806   5.457  0.00  0.00     0.173 HD
HETATM   28  O   UNK N   1      29.594  17.149   7.722  0.00  0.00    -0.246 OA
ENDBRANCH   1  19
TORSDOF 9
ENDMDL
MODEL 9
REMARK VINA RESULT:      -6.4     15.743     18.396
REMARK  9 active torsions:
REMARK  status: ('A' for Active; 'I' for Inactive)
REMARK    1  A    between atoms: C_5  and  N_4 
REMARK    2  A    between atoms: C_7  and  C_8 
REMARK    3  A    between atoms: C_8  and  O_9 
REMARK    4  A    between atoms: P_10  and  O_9 
REMARK    5  A    between atoms: P_10  and  O_11 
REMARK    6  A    between atoms: P_10  and  O_13 
REMARK    7  A    between atoms: O_13  and  P_14 
REMARK    8  A    between atoms: P_14  and  O_15 
REMARK    9  A    between atoms: P_14  and  O_16 
ROOT
HETATM    1  C   UNK N   1      36.062  10.791  13.481  0.00  0.00     0.257 C 
HETATM    2  O   UNK N   1      35.034  11.399  12.706  0.00  0.00    -0.352 OA
HETATM    3  C   UNK N   1      35.680  12.275  11.795  0.00  0.00     0.171 C 
HETATM    4  C   UNK N   1      37.085  12.383  12.223  0.00  0.00     0.007 C 
HETATM    5  C   UNK N   1      37.309  11.532  13.178  0.00  0.00     0.025 C 
ENDROOT
BRANCH   3   6
HETATM    6  C   UNK N   1      35.007  13.639  11.769  0.00  0.00     0.216 C 
BRANCH   6   7
HETATM    7  O   UNK N   1      35.988  14.627  11.588  0.00  0.00    -0.294 OA
BRANCH   7   8
HETATM    8  P   UNK N   1      35.566  15.458  10.108  0.00  0.00     0.401 P 
HETATM    9  O   UNK N   1      34.332  15.767  11.001  0.00  0.00    -0.631 OA
BRANCH   8  10
HETATM   10  O   UNK N   1      36.970  16.204  10.809  0.00  0.00    -0.307 OA
HETATM   11  H   UNK N   1      37.007  16.751  11.609  0.00  0.00     0.222 HD
ENDBRANCH   8  10
BRANCH   8  12
HETATM   12  O   UNK N   1      35.421  17.194  10.024  0.00  0.00    -0.195 OA
BRANCH  12  13
HETATM   13  P   UNK N   1      34.265  17.503   8.754  0.00  0.00     0.399 P 
HETATM   14  O   UNK N   1      35.181  18.753   8.654  0.00  0.00    -0.631 OA
BRANCH  13  15
HETATM   15  O   UNK N   1      34.757  17.508   7.089  0.00  0.00    -0.307 OA
HETATM   16  H   UNK N   1      35.525  17.023   6.749  0.00  0.00     0.222 HD
ENDBRANCH  13  15
BRANCH  13  17
HETATM   17  O   UNK N   1      35.183  16.079   8.378  0.00  0.00    -0.307 OA
HETATM   18  H   UNK N   1      35.630  15.488   9.004  0.00  0.00     0.222 HD
ENDBRANCH  13  17
ENDBRANCH  12  13
ENDBRANCH   8  12
ENDBRANCH   7   8
ENDBRANCH   6   7
ENDBRANCH   3   6
BRANCH   1  19
HETATM   19  N   UNK N   1      35.773  10.818  14.926  0.00  0.00    -0.278 N 
HETATM   20  C   UNK N   1      35.622  12.008  15.577  0.00  0.00     0.111 A 
HETATM   21  C   UNK N   1      35.326  12.043  16.940  0.00  0.00     0.022 A 
HETATM   22  C   UNK N   1      35.165  13.355  17.628  0.00  0.00     0.056 C 
HETATM   23  C   UNK N   1      35.181  10.836  17.630  0.00  0.00     0.256 A 
HETATM   24  N   UNK N   1      35.332   9.653  16.962  0.00  0.00    -0.275 N 
HETATM   25  O   UNK N   1      34.920  10.827  18.820  0.00  0.00    -0.267 OA
HETATM   26  C   UNK N   1      35.623   9.632  15.623  0.00  0.00     0.331 A 
HETATM   27  H   UNK N   1      35.231   8.804  17.450  0.00  0.00     0.173 HD
HETATM   28  O   UNK N   1      35.739   8.560  15.056  0.00  0.00    -0.246 OA
ENDBRANCH   1  19
TORSDOF 9
ENDMDL
