MODEL 1
REMARK VINA RESULT:      -4.9      0.000      0.000
REMARK  10 active torsions:
REMARK  status: ('A' for Active; 'I' for Inactive)
REMARK    1  A    between atoms: C_2  and  C_3 
REMARK    2  A    between atoms: C_3  and  C_4 
REMARK    3  A    between atoms: C_4  and  C_5 
REMARK    4  A    between atoms: C_5  and  O_6 
REMARK    5  A    between atoms: P_7  and  O_6 
REMARK    6  A    between atoms: P_7  and  O_8 
REMARK    7  A    between atoms: P_7  and  O_10 
REMARK    8  A    between atoms: O_10  and  P_11 
REMARK    9  A    between atoms: P_11  and  O_12 
REMARK   10  A    between atoms: P_11  and  O_13 
ROOT
HETATM    1  P   UNK N   1      36.223  13.692  13.205  0.00  0.00     0.401 P 
HETATM    2  O   UNK N   1      34.679  13.754  13.048  0.00  0.00    -0.631 OA
ENDROOT
BRANCH   1   3
HETATM    3  O   UNK N   1      35.640  13.572  14.841  0.00  0.00    -0.297 OA
BRANCH   3   4
HETATM    4  C   UNK N   1      36.241  12.424  15.364  0.00  0.00     0.180 C 
BRANCH   4   5
HETATM    5  C   UNK N   1      35.263  11.699  16.269  0.00  0.00     0.027 C 
BRANCH   5   6
HETATM    6  C   UNK N   1      34.757  10.447  15.574  0.00  0.00     0.002 C 
BRANCH   6   7
HETATM    7  C   UNK N   1      33.597  10.768  14.648  0.00  0.00    -0.004 C 
HETATM    8  C   UNK N   1      33.916  10.355  13.223  0.00  0.00     0.005 C 
ENDBRANCH   6   7
ENDBRANCH   5   6
ENDBRANCH   4   5
ENDBRANCH   3   4
ENDBRANCH   1   3
BRANCH   1   9
HETATM    9  O   UNK N   1      36.817  15.026  14.143  0.00  0.00    -0.307 OA
HETATM   10  H   UNK N   1      37.157  15.238  15.026  0.00  0.00     0.222 HD
ENDBRANCH   1   9
BRANCH   1  11
HETATM   11  O   UNK N   1      35.987  15.179  12.331  0.00  0.00    -0.195 OA
BRANCH  11  12
HETATM   12  P   UNK N   1      36.347  14.810  10.667  0.00  0.00     0.399 P 
HETATM   13  O   UNK N   1      36.654  16.329  10.753  0.00  0.00    -0.631 OA
BRANCH  12  14
HETATM   14  O   UNK N   1      37.982  14.925  10.097  0.00  0.00    -0.307 OA
HETATM   15  H   UNK N   1      38.245  14.494   9.269  0.00  0.00     0.222 HD
ENDBRANCH  12  14
BRANCH  12  16
HETATM   16  O   UNK N   1      37.415  13.917  11.704  0.00  0.00    -0.307 OA
HETATM   17  H   UNK N   1      37.482  13.864  12.670  0.00  0.00     0.222 HD
ENDBRANCH  12  16
ENDBRANCH  11  12
ENDBRANCH   1  11
TORSDOF 10
ENDMDL
MODEL 2
REMARK VINA RESULT:      -4.8      1.730      2.896
REMARK  10 active torsions:
REMARK  status: ('A' for Active; 'I' for Inactive)
REMARK    1  A    between atoms: C_2  and  C_3 
REMARK    2  A    between atoms: C_3  and  C_4 
REMARK    3  A    between atoms: C_4  and  C_5 
REMARK    4  A    between atoms: C_5  and  O_6 
REMARK    5  A    between atoms: P_7  and  O_6 
REMARK    6  A    between atoms: P_7  and  O_8 
REMARK    7  A    between atoms: P_7  and  O_10 
REMARK    8  A    between atoms: O_10  and  P_11 
REMARK    9  A    between atoms: P_11  and  O_12 
REMARK   10  A    between atoms: P_11  and  O_13 
ROOT
HETATM    1  P   UNK N   1      35.695  13.650  12.710  0.00  0.00     0.401 P 
HETATM    2  O   UNK N   1      35.973  12.126  12.604  0.00  0.00    -0.631 OA
ENDROOT
BRANCH   1   3
HETATM    3  O   UNK N   1      34.420  12.935  13.656  0.00  0.00    -0.297 OA
BRANCH   3   4
HETATM    4  C   UNK N   1      35.058  12.348  14.752  0.00  0.00     0.180 C 
BRANCH   4   5
HETATM    5  C   UNK N   1      34.596  13.016  16.033  0.00  0.00     0.027 C 
BRANCH   5   6
HETATM    6  C   UNK N   1      35.306  12.388  17.220  0.00  0.00     0.002 C 
BRANCH   6   7
HETATM    7  C   UNK N   1      35.189  13.266  18.453  0.00  0.00    -0.004 C 
HETATM    8  C   UNK N   1      35.326  12.440  19.718  0.00  0.00     0.005 C 
ENDBRANCH   6   7
ENDBRANCH   5   6
ENDBRANCH   4   5
ENDBRANCH   3   4
ENDBRANCH   1   3
BRANCH   1   9
HETATM    9  O   UNK N   1      34.152  14.061  12.028  0.00  0.00    -0.307 OA
HETATM   10  H   UNK N   1      33.404  14.664  12.159  0.00  0.00     0.222 HD
ENDBRANCH   1   9
BRANCH   1  11
HETATM   11  O   UNK N   1      35.720  13.386  10.989  0.00  0.00    -0.195 OA
BRANCH  11  12
HETATM   12  P   UNK N   1      36.908  14.493  10.359  0.00  0.00     0.399 P 
HETATM   13  O   UNK N   1      35.593  14.995   9.704  0.00  0.00    -0.631 OA
BRANCH  12  14
HETATM   14  O   UNK N   1      36.845  16.167  10.811  0.00  0.00    -0.307 OA
HETATM   15  H   UNK N   1      36.045  16.691  10.650  0.00  0.00     0.222 HD
ENDBRANCH  12  14
BRANCH  12  16
HETATM   16  O   UNK N   1      36.824  14.652  12.086  0.00  0.00    -0.307 OA
HETATM   17  H   UNK N   1      37.223  15.292  12.696  0.00  0.00     0.222 HD
ENDBRANCH  12  16
ENDBRANCH  11  12
ENDBRANCH   1  11
TORSDOF 10
ENDMDL
MODEL 3
REMARK VINA RESULT:      -4.8      1.618      2.312
REMARK  10 active torsions:
REMARK  status: ('A' for Active; 'I' for Inactive)
REMARK    1  A    between atoms: C_2  and  C_3 
REMARK    2  A    between atoms: C_3  and  C_4 
REMARK    3  A    between atoms: C_4  and  C_5 
REMARK    4  A    between atoms: C_5  and  O_6 
REMARK    5  A    between atoms: P_7  and  O_6 
REMARK    6  A    between atoms: P_7  and  O_8 
REMARK    7  A    between atoms: P_7  and  O_10 
REMARK    8  A    between atoms: O_10  and  P_11 
REMARK    9  A    between atoms: P_11  and  O_12 
REMARK   10  A    between atoms: P_11  and  O_13 
ROOT
HETATM    1  P   UNK N   1      36.017  13.614  13.113  0.00  0.00     0.401 P 
HETATM    2  O   UNK N   1      34.549  13.753  12.626  0.00  0.00    -0.631 OA
ENDROOT
BRANCH   1   3
HETATM    3  O   UNK N   1      35.083  13.443  14.573  0.00  0.00    -0.297 OA
BRANCH   3   4
HETATM    4  C   UNK N   1      36.021  13.409  15.608  0.00  0.00     0.180 C 
BRANCH   4   5
HETATM    5  C   UNK N   1      35.322  13.126  16.925  0.00  0.00     0.027 C 
BRANCH   5   6
HETATM    6  C   UNK N   1      35.321  11.631  17.190  0.00  0.00     0.002 C 
BRANCH   6   7
HETATM    7  C   UNK N   1      35.422  11.341  18.678  0.00  0.00    -0.004 C 
HETATM    8  C   UNK N   1      35.274  12.616  19.487  0.00  0.00     0.005 C 
ENDBRANCH   6   7
ENDBRANCH   5   6
ENDBRANCH   4   5
ENDBRANCH   3   4
ENDBRANCH   1   3
BRANCH   1   9
HETATM    9  O   UNK N   1      36.434  14.874  14.232  0.00  0.00    -0.307 OA
HETATM   10  H   UNK N   1      37.178  15.198  14.763  0.00  0.00     0.222 HD
ENDBRANCH   1   9
BRANCH   1  11
HETATM   11  O   UNK N   1      36.030  15.150  12.294  0.00  0.00    -0.195 OA
BRANCH  11  12
HETATM   12  P   UNK N   1      36.397  14.793  10.629  0.00  0.00     0.399 P 
HETATM   13  O   UNK N   1      36.702  16.312  10.727  0.00  0.00    -0.631 OA
BRANCH  12  14
HETATM   14  O   UNK N   1      38.034  14.913  10.066  0.00  0.00    -0.307 OA
HETATM   15  H   UNK N   1      38.470  15.777  10.003  0.00  0.00     0.222 HD
ENDBRANCH  12  14
BRANCH  12  16
HETATM   16  O   UNK N   1      37.461  13.893  11.664  0.00  0.00    -0.307 OA
HETATM   17  H   UNK N   1      37.343  13.537  12.558  0.00  0.00     0.222 HD
ENDBRANCH  12  16
ENDBRANCH  11  12
ENDBRANCH   1  11
TORSDOF 10
ENDMDL
MODEL 4
REMARK VINA RESULT:      -4.7     14.645     15.827
REMARK  10 active torsions:
REMARK  status: ('A' for Active; 'I' for Inactive)
REMARK    1  A    between atoms: C_2  and  C_3 
REMARK    2  A    between atoms: C_3  and  C_4 
REMARK    3  A    between atoms: C_4  and  C_5 
REMARK    4  A    between atoms: C_5  and  O_6 
REMARK    5  A    between atoms: P_7  and  O_6 
REMARK    6  A    between atoms: P_7  and  O_8 
REMARK    7  A    between atoms: P_7  and  O_10 
REMARK    8  A    between atoms: O_10  and  P_11 
REMARK    9  A    between atoms: P_11  and  O_12 
REMARK   10  A    between atoms: P_11  and  O_13 
ROOT
HETATM    1  P   UNK N   1      20.651  14.805   8.770  0.00  0.00     0.401 P 
HETATM    2  O   UNK N   1      20.596  14.104   7.385  0.00  0.00    -0.631 OA
ENDROOT
BRANCH   1   3
HETATM    3  O   UNK N   1      20.619  13.111   9.170  0.00  0.00    -0.297 OA
BRANCH   3   4
HETATM    4  C   UNK N   1      20.580  13.062  10.566  0.00  0.00     0.180 C 
BRANCH   4   5
HETATM    5  C   UNK N   1      21.548  12.009  11.070  0.00  0.00     0.027 C 
BRANCH   5   6
HETATM    6  C   UNK N   1      22.963  12.382  10.666  0.00  0.00     0.002 C 
BRANCH   6   7
HETATM    7  C   UNK N   1      23.957  12.017  11.755  0.00  0.00    -0.004 C 
HETATM    8  C   UNK N   1      23.259  11.875  13.095  0.00  0.00     0.005 C 
ENDBRANCH   6   7
ENDBRANCH   5   6
ENDBRANCH   4   5
ENDBRANCH   3   4
ENDBRANCH   1   3
BRANCH   1   9
HETATM    9  O   UNK N   1      19.240  14.448   9.716  0.00  0.00    -0.307 OA
HETATM   10  H   UNK N   1      18.743  14.770  10.484  0.00  0.00     0.222 HD
ENDBRANCH   1   9
BRANCH   1  11
HETATM   11  O   UNK N   1      19.248  15.526   8.033  0.00  0.00    -0.195 OA
BRANCH  11  12
HETATM   12  P   UNK N   1      19.608  17.224   7.896  0.00  0.00     0.399 P 
HETATM   13  O   UNK N   1      18.294  17.220   8.721  0.00  0.00    -0.631 OA
BRANCH  12  14
HETATM   14  O   UNK N   1      20.020  18.131   9.316  0.00  0.00    -0.307 OA
HETATM   15  H   UNK N   1      20.869  17.986   9.763  0.00  0.00     0.222 HD
ENDBRANCH  12  14
BRANCH  12  16
HETATM   16  O   UNK N   1      20.878  16.431   8.774  0.00  0.00    -0.307 OA
HETATM   17  H   UNK N   1      21.710  16.761   9.145  0.00  0.00     0.222 HD
ENDBRANCH  12  16
ENDBRANCH  11  12
ENDBRANCH   1  11
TORSDOF 10
ENDMDL
MODEL 5
REMARK VINA RESULT:      -4.6      7.058      8.493
REMARK  10 active torsions:
REMARK  status: ('A' for Active; 'I' for Inactive)
REMARK    1  A    between atoms: C_2  and  C_3 
REMARK    2  A    between atoms: C_3  and  C_4 
REMARK    3  A    between atoms: C_4  and  C_5 
REMARK    4  A    between atoms: C_5  and  O_6 
REMARK    5  A    between atoms: P_7  and  O_6 
REMARK    6  A    between atoms: P_7  and  O_8 
REMARK    7  A    between atoms: P_7  and  O_10 
REMARK    8  A    between atoms: O_10  and  P_11 
REMARK    9  A    between atoms: P_11  and  O_12 
REMARK   10  A    between atoms: P_11  and  O_13 
ROOT
HETATM    1  P   UNK N   1      33.976  17.581   8.169  0.00  0.00     0.401 P 
HETATM    2  O   UNK N   1      34.837  16.438   7.566  0.00  0.00    -0.631 OA
ENDROOT
BRANCH   1   3
HETATM    3  O   UNK N   1      34.292  18.121   6.544  0.00  0.00    -0.297 OA
BRANCH   3   4
HETATM    4  C   UNK N   1      33.816  17.100   5.717  0.00  0.00     0.180 C 
BRANCH   4   5
HETATM    5  C   UNK N   1      33.024  17.697   4.569  0.00  0.00     0.027 C 
BRANCH   5   6
HETATM    6  C   UNK N   1      31.781  16.862   4.318  0.00  0.00     0.002 C 
BRANCH   6   7
HETATM    7  C   UNK N   1      30.573  17.456   5.021  0.00  0.00    -0.004 C 
HETATM    8  C   UNK N   1      30.125  16.567   6.166  0.00  0.00     0.005 C 
ENDBRANCH   6   7
ENDBRANCH   5   6
ENDBRANCH   4   5
ENDBRANCH   3   4
ENDBRANCH   1   3
BRANCH   1   9
HETATM    9  O   UNK N   1      34.851  19.080   8.204  0.00  0.00    -0.307 OA
HETATM   10  H   UNK N   1      34.771  19.996   8.514  0.00  0.00     0.222 HD
ENDBRANCH   1   9
BRANCH   1  11
HETATM   11  O   UNK N   1      35.301  17.466   9.293  0.00  0.00    -0.195 OA
BRANCH  11  12
HETATM   12  P   UNK N   1      35.269  15.831   9.894  0.00  0.00     0.399 P 
HETATM   13  O   UNK N   1      36.235  16.538  10.882  0.00  0.00    -0.631 OA
BRANCH  12  14
HETATM   14  O   UNK N   1      34.570  15.501  11.447  0.00  0.00    -0.307 OA
HETATM   15  H   UNK N   1      33.650  15.204  11.519  0.00  0.00     0.222 HD
ENDBRANCH  12  14
BRANCH  12  16
HETATM   16  O   UNK N   1      33.680  16.521  10.001  0.00  0.00    -0.307 OA
HETATM   17  H   UNK N   1      32.882  16.234  10.473  0.00  0.00     0.222 HD
ENDBRANCH  12  16
ENDBRANCH  11  12
ENDBRANCH   1  11
TORSDOF 10
ENDMDL
MODEL 6
REMARK VINA RESULT:      -4.5      1.654      2.368
REMARK  10 active torsions:
REMARK  status: ('A' for Active; 'I' for Inactive)
REMARK    1  A    between atoms: C_2  and  C_3 
REMARK    2  A    between atoms: C_3  and  C_4 
REMARK    3  A    between atoms: C_4  and  C_5 
REMARK    4  A    between atoms: C_5  and  O_6 
REMARK    5  A    between atoms: P_7  and  O_6 
REMARK    6  A    between atoms: P_7  and  O_8 
REMARK    7  A    between atoms: P_7  and  O_10 
REMARK    8  A    between atoms: O_10  and  P_11 
REMARK    9  A    between atoms: P_11  and  O_12 
REMARK   10  A    between atoms: P_11  and  O_13 
ROOT
HETATM    1  P   UNK N   1      36.090  13.309  12.642  0.00  0.00     0.401 P 
HETATM    2  O   UNK N   1      34.579  12.958  12.556  0.00  0.00    -0.631 OA
ENDROOT
BRANCH   1   3
HETATM    3  O   UNK N   1      35.459  13.837  14.177  0.00  0.00    -0.297 OA
BRANCH   3   4
HETATM    4  C   UNK N   1      36.503  13.651  15.088  0.00  0.00     0.180 C 
BRANCH   4   5
HETATM    5  C   UNK N   1      36.008  13.920  16.497  0.00  0.00     0.027 C 
BRANCH   5   6
HETATM    6  C   UNK N   1      34.842  12.999  16.811  0.00  0.00     0.002 C 
BRANCH   6   7
HETATM    7  C   UNK N   1      35.314  11.746  17.528  0.00  0.00    -0.004 C 
HETATM    8  C   UNK N   1      35.045  10.511  16.687  0.00  0.00     0.005 C 
ENDBRANCH   6   7
ENDBRANCH   5   6
ENDBRANCH   4   5
ENDBRANCH   3   4
ENDBRANCH   1   3
BRANCH   1   9
HETATM    9  O   UNK N   1      36.333  15.018  12.825  0.00  0.00    -0.307 OA
HETATM   10  H   UNK N   1      36.903  15.739  12.514  0.00  0.00     0.222 HD
ENDBRANCH   1   9
BRANCH   1  11
HETATM   11  O   UNK N   1      35.587  14.135  11.194  0.00  0.00    -0.195 OA
BRANCH  11  12
HETATM   12  P   UNK N   1      35.645  15.833  11.576  0.00  0.00     0.399 P 
HETATM   13  O   UNK N   1      36.413  15.761  10.230  0.00  0.00    -0.631 OA
BRANCH  12  14
HETATM   14  O   UNK N   1      34.803  16.968  10.569  0.00  0.00    -0.307 OA
HETATM   15  H   UNK N   1      35.228  17.333   9.777  0.00  0.00     0.222 HD
ENDBRANCH  12  14
BRANCH  12  16
HETATM   16  O   UNK N   1      33.994  15.342  11.358  0.00  0.00    -0.307 OA
HETATM   17  H   UNK N   1      33.285  15.161  11.995  0.00  0.00     0.222 HD
ENDBRANCH  12  16
ENDBRANCH  11  12
ENDBRANCH   1  11
TORSDOF 10
ENDMDL
MODEL 7
REMARK VINA RESULT:      -4.5      5.523      6.675
REMARK  10 active torsions:
REMARK  status: ('A' for Active; 'I' for Inactive)
REMARK    1  A    between atoms: C_2  and  C_3 
REMARK    2  A    between atoms: C_3  and  C_4 
REMARK    3  A    between atoms: C_4  and  C_5 
REMARK    4  A    between atoms: C_5  and  O_6 
REMARK    5  A    between atoms: P_7  and  O_6 
REMARK    6  A    between atoms: P_7  and  O_8 
REMARK    7  A    between atoms: P_7  and  O_10 
REMARK    8  A    between atoms: O_10  and  P_11 
REMARK    9  A    between atoms: P_11  and  O_12 
REMARK   10  A    between atoms: P_11  and  O_13 
ROOT
HETATM    1  P   UNK N   1      34.826  15.518  10.409  0.00  0.00     0.401 P 
HETATM    2  O   UNK N   1      36.221  15.071   9.894  0.00  0.00    -0.631 OA
ENDROOT
BRANCH   1   3
HETATM    3  O   UNK N   1      35.251  16.751   9.255  0.00  0.00    -0.297 OA
BRANCH   3   4
HETATM    4  C   UNK N   1      34.611  16.383   8.069  0.00  0.00     0.180 C 
BRANCH   4   5
HETATM    5  C   UNK N   1      34.125  17.623   7.342  0.00  0.00     0.027 C 
BRANCH   5   6
HETATM    6  C   UNK N   1      33.021  18.285   8.147  0.00  0.00     0.002 C 
BRANCH   6   7
HETATM    7  C   UNK N   1      31.874  17.321   8.398  0.00  0.00    -0.004 C 
HETATM    8  C   UNK N   1      31.006  17.183   7.161  0.00  0.00     0.005 C 
ENDBRANCH   6   7
ENDBRANCH   5   6
ENDBRANCH   4   5
ENDBRANCH   3   4
ENDBRANCH   1   3
BRANCH   1   9
HETATM    9  O   UNK N   1      34.909  17.062  11.198  0.00  0.00    -0.307 OA
HETATM   10  H   UNK N   1      34.492  17.938  11.193  0.00  0.00     0.222 HD
ENDBRANCH   1   9
BRANCH   1  11
HETATM   11  O   UNK N   1      35.750  15.382  11.878  0.00  0.00    -0.195 OA
BRANCH  11  12
HETATM   12  P   UNK N   1      35.697  13.696  12.313  0.00  0.00     0.399 P 
HETATM   13  O   UNK N   1      36.027  14.386  13.664  0.00  0.00    -0.631 OA
BRANCH  12  14
HETATM   14  O   UNK N   1      34.451  13.122  13.375  0.00  0.00    -0.307 OA
HETATM   15  H   UNK N   1      33.890  13.749  13.859  0.00  0.00     0.222 HD
ENDBRANCH  12  14
BRANCH  12  16
HETATM   16  O   UNK N   1      34.137  14.198  11.742  0.00  0.00    -0.307 OA
HETATM   17  H   UNK N   1      33.382  13.694  11.398  0.00  0.00     0.222 HD
ENDBRANCH  12  16
ENDBRANCH  11  12
ENDBRANCH   1  11
TORSDOF 10
ENDMDL
MODEL 8
REMARK VINA RESULT:      -4.4     19.649     20.539
REMARK  10 active torsions:
REMARK  status: ('A' for Active; 'I' for Inactive)
REMARK    1  A    between atoms: C_2  and  C_3 
REMARK    2  A    between atoms: C_3  and  C_4 
REMARK    3  A    between atoms: C_4  and  C_5 
REMARK    4  A    between atoms: C_5  and  O_6 
REMARK    5  A    between atoms: P_7  and  O_6 
REMARK    6  A    between atoms: P_7  and  O_8 
REMARK    7  A    between atoms: P_7  and  O_10 
REMARK    8  A    between atoms: O_10  and  P_11 
REMARK    9  A    between atoms: P_11  and  O_12 
REMARK   10  A    between atoms: P_11  and  O_13 
ROOT
HETATM    1  P   UNK N   1      30.506  22.718  -3.101  0.00  0.00     0.401 P 
HETATM    2  O   UNK N   1      31.666  23.483  -3.794  0.00  0.00    -0.631 OA
ENDROOT
BRANCH   1   3
HETATM    3  O   UNK N   1      30.174  24.387  -2.730  0.00  0.00    -0.297 OA
BRANCH   3   4
HETATM    4  C   UNK N   1      29.487  24.882  -3.840  0.00  0.00     0.180 C 
BRANCH   4   5
HETATM    5  C   UNK N   1      28.245  24.048  -4.090  0.00  0.00     0.027 C 
BRANCH   5   6
HETATM    6  C   UNK N   1      27.079  24.620  -3.303  0.00  0.00     0.002 C 
BRANCH   6   7
HETATM    7  C   UNK N   1      26.405  25.746  -4.067  0.00  0.00    -0.004 C 
HETATM    8  C   UNK N   1      26.210  26.959  -3.178  0.00  0.00     0.005 C 
ENDBRANCH   6   7
ENDBRANCH   5   6
ENDBRANCH   4   5
ENDBRANCH   3   4
ENDBRANCH   1   3
BRANCH   1   9
HETATM    9  O   UNK N   1      30.529  22.957  -1.381  0.00  0.00    -0.307 OA
HETATM   10  H   UNK N   1      30.208  23.565  -0.697  0.00  0.00     0.222 HD
ENDBRANCH   1   9
BRANCH   1  11
HETATM   11  O   UNK N   1      31.920  21.966  -2.419  0.00  0.00    -0.195 OA
BRANCH  11  12
HETATM   12  P   UNK N   1      32.738  21.202  -3.754  0.00  0.00     0.399 P 
HETATM   13  O   UNK N   1      33.623  20.807  -2.542  0.00  0.00    -0.631 OA
BRANCH  12  14
HETATM   14  O   UNK N   1      32.799  19.471  -3.847  0.00  0.00    -0.307 OA
HETATM   15  H   UNK N   1      33.599  18.992  -3.582  0.00  0.00     0.222 HD
ENDBRANCH  12  14
BRANCH  12  16
HETATM   16  O   UNK N   1      31.146  20.530  -3.587  0.00  0.00    -0.307 OA
HETATM   17  H   UNK N   1      30.419  20.426  -4.221  0.00  0.00     0.222 HD
ENDBRANCH  12  16
ENDBRANCH  11  12
ENDBRANCH   1  11
TORSDOF 10
ENDMDL
MODEL 9
REMARK VINA RESULT:      -4.4      7.579      8.915
REMARK  10 active torsions:
REMARK  status: ('A' for Active; 'I' for Inactive)
REMARK    1  A    between atoms: C_2  and  C_3 
REMARK    2  A    between atoms: C_3  and  C_4 
REMARK    3  A    between atoms: C_4  and  C_5 
REMARK    4  A    between atoms: C_5  and  O_6 
REMARK    5  A    between atoms: P_7  and  O_6 
REMARK    6  A    between atoms: P_7  and  O_8 
REMARK    7  A    between atoms: P_7  and  O_10 
REMARK    8  A    between atoms: O_10  and  P_11 
REMARK    9  A    between atoms: P_11  and  O_12 
REMARK   10  A    between atoms: P_11  and  O_13 
ROOT
HETATM    1  P   UNK N   1      32.832  15.527   8.345  0.00  0.00     0.401 P 
HETATM    2  O   UNK N   1      33.190  15.329   6.847  0.00  0.00    -0.631 OA
ENDROOT
BRANCH   1   3
HETATM    3  O   UNK N   1      31.455  16.184   7.506  0.00  0.00    -0.297 OA
BRANCH   3   4
HETATM    4  C   UNK N   1      31.738  16.022   6.148  0.00  0.00     0.180 C 
BRANCH   4   5
HETATM    5  C   UNK N   1      31.184  17.196   5.364  0.00  0.00     0.027 C 
BRANCH   5   6
HETATM    6  C   UNK N   1      32.220  17.676   4.363  0.00  0.00     0.002 C 
BRANCH   6   7
HETATM    7  C   UNK N   1      32.121  16.900   3.061  0.00  0.00    -0.004 C 
HETATM    8  C   UNK N   1      33.345  16.024   2.861  0.00  0.00     0.005 C 
ENDBRANCH   6   7
ENDBRANCH   5   6
ENDBRANCH   4   5
ENDBRANCH   3   4
ENDBRANCH   1   3
BRANCH   1   9
HETATM    9  O   UNK N   1      32.650  17.208   8.736  0.00  0.00    -0.307 OA
HETATM   10  H   UNK N   1      32.012  17.935   8.671  0.00  0.00     0.222 HD
ENDBRANCH   1   9
BRANCH   1  11
HETATM   11  O   UNK N   1      34.369  16.334   8.209  0.00  0.00    -0.195 OA
BRANCH  11  12
HETATM   12  P   UNK N   1      34.069  17.994   8.643  0.00  0.00     0.399 P 
HETATM   13  O   UNK N   1      35.187  17.579   9.637  0.00  0.00    -0.631 OA
BRANCH  12  14
HETATM   14  O   UNK N   1      35.303  19.185   8.383  0.00  0.00    -0.307 OA
HETATM   15  H   UNK N   1      35.818  19.190   7.561  0.00  0.00     0.222 HD
ENDBRANCH  12  14
BRANCH  12  16
HETATM   16  O   UNK N   1      34.651  17.916   7.009  0.00  0.00    -0.307 OA
HETATM   17  H   UNK N   1      35.058  18.585   6.436  0.00  0.00     0.222 HD
ENDBRANCH  12  16
ENDBRANCH  11  12
ENDBRANCH   1  11
TORSDOF 10
ENDMDL
