MODEL 1
REMARK VINA RESULT:      -9.9      0.000      0.000
REMARK  16 active torsions:
REMARK  status: ('A' for Active; 'I' for Inactive)
REMARK    1  A    between atoms: C_31  and  C_27 
REMARK    2  A    between atoms: C_41  and  C_27 
REMARK    3  A    between atoms: C_32  and  C_28 
REMARK    4  A    between atoms: C_42  and  C_28 
REMARK    5  A    between atoms: C_33  and  C_29 
REMARK    6  A    between atoms: N_60  and  C_29 
REMARK    7  A    between atoms: C_34  and  C_30 
REMARK    8  A    between atoms: N_61  and  C_30 
REMARK    9  A    between atoms: C_45  and  C_35 
REMARK   10  A    between atoms: C_46  and  C_36 
REMARK   11  A    between atoms: C_43  and  O_62 
REMARK   12  A    between atoms: C_44  and  O_63 
REMARK   13  A    between atoms: N_56  and  C_45 
REMARK   14  A    between atoms: O_64  and  C_45 
REMARK   15  A    between atoms: N_58  and  C_46 
REMARK   16  A    between atoms: O_65  and  C_46 
REMARK       I    between atoms: N_56  and  C_47 
REMARK       I    between atoms: N_58  and  C_48 
ROOT
HETATM    1  C   UNK N   1      30.165  14.092   3.400  0.00  0.00     0.124 C 
HETATM    2  C   UNK N   1      32.761  15.093   5.025  0.00  0.00     0.124 C 
HETATM    3  C   UNK N   1      31.594  13.383   3.512  0.00  0.00     0.172 C 
HETATM    4  C   UNK N   1      32.847  14.268   3.733  0.00  0.00     0.172 C 
HETATM    5  C   UNK N   1      31.003  16.352   3.923  0.00  0.00     0.322 C 
HETATM    6  N   UNK N   1      30.180  15.566   3.149  0.00  0.00    -0.322 N 
HETATM    7  N   UNK N   1      31.531  15.864   5.082  0.00  0.00    -0.322 N 
HETATM    8  O   UNK N   1      31.001  17.568   3.765  0.00  0.00    -0.247 OA
ENDROOT
BRANCH   6   9
HETATM    9  C   UNK N   1      28.988  16.311   2.706  0.00  0.00     0.166 C 
BRANCH   9  10
HETATM   10  C   UNK N   1      27.599  15.968   3.111  0.00  0.00    -0.039 A 
HETATM   11  C   UNK N   1      26.581  15.806   2.170  0.00  0.00     0.009 A 
HETATM   12  C   UNK N   1      25.285  15.501   2.596  0.00  0.00     0.002 A 
HETATM   13  C   UNK N   1      25.007  15.368   3.963  0.00  0.00     0.016 A 
HETATM   14  C   UNK N   1      25.996  15.647   4.915  0.00  0.00     0.016 A 
HETATM   15  C   UNK N   1      27.296  15.930   4.479  0.00  0.00     0.024 A 
BRANCH  14  16
HETATM   16  C   UNK N   1      25.786  15.316   6.338  0.00  0.00     0.165 C 
BRANCH  16  17
HETATM   17  N   UNK N   1      24.624  15.192   6.894  0.00  0.00    -0.170 N 
HETATM   18  C   UNK N   1      24.139  14.102   7.666  0.00  0.00     0.685 A 
HETATM   19  N   UNK N   1      22.811  13.968   7.926  0.00  0.00    -0.189 N 
HETATM   20  N   UNK N   1      24.917  13.486   8.598  0.00  0.00    -0.189 N 
HETATM   21  C   UNK N   1      22.769  13.224   9.040  0.00  0.00     0.076 A 
ATOM     22  HN  UNK N   1      22.028  14.348   7.395  1.00  0.00     0.184 HD
HETATM   23  C   UNK N   1      21.647  12.861   9.783  0.00  0.00     0.032 A 
HETATM   24  C   UNK N   1      24.033  12.941   9.450  0.00  0.00     0.076 A 
HETATM   25  C   UNK N   1      21.864  12.184  10.999  0.00  0.00     0.002 A 
HETATM   26  C   UNK N   1      23.181  11.901  11.434  0.00  0.00     0.002 A 
HETATM   27  C   UNK N   1      24.289  12.283  10.651  0.00  0.00     0.032 A 
HETATM   28  H   UNK N   1      25.901  13.449   8.638  0.00  0.00     0.184 HD
ATOM     29  HN  UNK N   1      23.979  15.971   6.763  1.00  0.00     0.186 HD
ENDBRANCH  16  17
BRANCH  16  30
HETATM   30  O   UNK N   1      26.877  15.212   7.117  0.00  0.00    -0.345 OA
HETATM   31  H   UNK N   1      27.777  15.408   6.947  0.00  0.00     0.219 HD
ENDBRANCH  16  30
ENDBRANCH  14  16
ENDBRANCH   9  10
ENDBRANCH   6   9
BRANCH   1  32
HETATM   32  C   UNK N   1      29.302  13.293   2.404  0.00  0.00     0.066 C 
BRANCH  32  33
HETATM   33  C   UNK N   1      28.053  12.645   2.951  0.00  0.00    -0.056 A 
HETATM   34  C   UNK N   1      26.991  12.243   2.120  0.00  0.00     0.007 A 
HETATM   35  C   UNK N   1      25.839  11.674   2.665  0.00  0.00     0.001 A 
HETATM   36  C   UNK N   1      25.735  11.507   4.047  0.00  0.00     0.000 A 
HETATM   37  C   UNK N   1      26.786  11.903   4.881  0.00  0.00     0.001 A 
HETATM   38  C   UNK N   1      27.941  12.471   4.333  0.00  0.00     0.007 A 
ENDBRANCH  32  33
ENDBRANCH   1  32
BRANCH   3  39
HETATM   39  O   UNK N   1      31.539  12.392   4.499  0.00  0.00    -0.391 OA
HETATM   40  H   UNK N   1      31.583  11.999   5.384  0.00  0.00     0.210 HD
ENDBRANCH   3  39
BRANCH   7  41
HETATM   41  C   UNK N   1      30.562  15.430   6.083  0.00  0.00     0.166 C 
BRANCH  41  42
HETATM   42  C   UNK N   1      30.349  16.520   7.083  0.00  0.00    -0.039 A 
HETATM   43  C   UNK N   1      31.166  16.671   8.212  0.00  0.00     0.009 A 
HETATM   44  C   UNK N   1      30.846  17.638   9.179  0.00  0.00     0.002 A 
HETATM   45  C   UNK N   1      29.725  18.465   9.003  0.00  0.00     0.016 A 
HETATM   46  C   UNK N   1      28.924  18.305   7.864  0.00  0.00     0.016 A 
HETATM   47  C   UNK N   1      29.247  17.326   6.926  0.00  0.00     0.024 A 
BRANCH  46  48
HETATM   48  C   UNK N   1      27.863  19.247   7.499  0.00  0.00     0.165 C 
BRANCH  48  49
HETATM   49  N   UNK N   1      27.830  19.623   6.267  0.00  0.00    -0.170 N 
HETATM   50  C   UNK N   1      26.776  19.477   5.351  0.00  0.00     0.685 A 
HETATM   51  N   UNK N   1      26.785  20.160   4.181  0.00  0.00    -0.189 N 
HETATM   52  N   UNK N   1      25.567  18.936   5.649  0.00  0.00    -0.189 N 
HETATM   53  C   UNK N   1      25.538  20.031   3.728  0.00  0.00     0.076 A 
ATOM     54  HN  UNK N   1      27.563  20.658   3.749  1.00  0.00     0.184 HD
HETATM   55  C   UNK N   1      24.991  20.596   2.584  0.00  0.00     0.032 A 
HETATM   56  C   UNK N   1      24.805  19.292   4.604  0.00  0.00     0.076 A 
HETATM   57  C   UNK N   1      23.624  20.369   2.347  0.00  0.00     0.002 A 
HETATM   58  C   UNK N   1      22.858  19.593   3.251  0.00  0.00     0.002 A 
HETATM   59  C   UNK N   1      23.453  19.044   4.405  0.00  0.00     0.032 A 
HETATM   60  H   UNK N   1      25.312  18.411   6.442  0.00  0.00     0.184 HD
ATOM     61  HN  UNK N   1      28.670  20.082   5.916  1.00  0.00     0.186 HD
ENDBRANCH  48  49
BRANCH  48  62
HETATM   62  O   UNK N   1      27.080  19.818   8.439  0.00  0.00    -0.345 OA
HETATM   63  H   UNK N   1      26.625  19.306   9.078  0.00  0.00     0.219 HD
ENDBRANCH  48  62
ENDBRANCH  46  48
ENDBRANCH  41  42
ENDBRANCH   7  41
BRANCH   4  64
HETATM   64  O   UNK N   1      33.041  15.094   2.619  0.00  0.00    -0.391 OA
HETATM   65  H   UNK N   1      33.354  15.367   1.742  0.00  0.00     0.210 HD
ENDBRANCH   4  64
BRANCH   2  66
HETATM   66  C   UNK N   1      33.964  16.036   5.151  0.00  0.00     0.066 C 
BRANCH  66  67
HETATM   67  C   UNK N   1      34.221  16.435   6.567  0.00  0.00    -0.056 A 
HETATM   68  C   UNK N   1      34.193  17.783   6.943  0.00  0.00     0.007 A 
HETATM   69  C   UNK N   1      34.443  18.143   8.271  0.00  0.00     0.001 A 
HETATM   70  C   UNK N   1      34.728  17.158   9.223  0.00  0.00     0.000 A 
HETATM   71  C   UNK N   1      34.763  15.813   8.846  0.00  0.00     0.001 A 
HETATM   72  C   UNK N   1      34.509  15.452   7.521  0.00  0.00     0.007 A 
ENDBRANCH  66  67
ENDBRANCH   2  66
TORSDOF 16
ENDMDL
MODEL 2
REMARK VINA RESULT:      -9.3      2.616      5.767
REMARK  16 active torsions:
REMARK  status: ('A' for Active; 'I' for Inactive)
REMARK    1  A    between atoms: C_31  and  C_27 
REMARK    2  A    between atoms: C_41  and  C_27 
REMARK    3  A    between atoms: C_32  and  C_28 
REMARK    4  A    between atoms: C_42  and  C_28 
REMARK    5  A    between atoms: C_33  and  C_29 
REMARK    6  A    between atoms: N_60  and  C_29 
REMARK    7  A    between atoms: C_34  and  C_30 
REMARK    8  A    between atoms: N_61  and  C_30 
REMARK    9  A    between atoms: C_45  and  C_35 
REMARK   10  A    between atoms: C_46  and  C_36 
REMARK   11  A    between atoms: C_43  and  O_62 
REMARK   12  A    between atoms: C_44  and  O_63 
REMARK   13  A    between atoms: N_56  and  C_45 
REMARK   14  A    between atoms: O_64  and  C_45 
REMARK   15  A    between atoms: N_58  and  C_46 
REMARK   16  A    between atoms: O_65  and  C_46 
REMARK       I    between atoms: N_56  and  C_47 
REMARK       I    between atoms: N_58  and  C_48 
ROOT
HETATM    1  C   UNK N   1      24.797  12.861   3.191  0.00  0.00     0.124 C 
HETATM    2  C   UNK N   1      27.834  13.917   3.388  0.00  0.00     0.124 C 
HETATM    3  C   UNK N   1      26.122  12.012   3.476  0.00  0.00     0.172 C 
HETATM    4  C   UNK N   1      27.466  12.513   2.890  0.00  0.00     0.172 C 
HETATM    5  C   UNK N   1      25.967  14.713   2.059  0.00  0.00     0.322 C 
HETATM    6  N   UNK N   1      24.884  13.864   2.087  0.00  0.00    -0.322 N 
HETATM    7  N   UNK N   1      26.753  14.862   3.162  0.00  0.00    -0.322 N 
HETATM    8  O   UNK N   1      26.038  15.572   1.187  0.00  0.00    -0.247 OA
ENDROOT
BRANCH   6   9
HETATM    9  C   UNK N   1      23.693  14.492   1.486  0.00  0.00     0.166 C 
BRANCH   9  10
HETATM   10  C   UNK N   1      22.648  15.205   2.267  0.00  0.00    -0.039 A 
HETATM   11  C   UNK N   1      21.322  15.258   1.839  0.00  0.00     0.009 A 
HETATM   12  C   UNK N   1      20.375  15.953   2.597  0.00  0.00     0.002 A 
HETATM   13  C   UNK N   1      20.759  16.603   3.777  0.00  0.00     0.016 A 
HETATM   14  C   UNK N   1      22.109  16.653   4.148  0.00  0.00     0.016 A 
HETATM   15  C   UNK N   1      23.046  15.935   3.396  0.00  0.00     0.024 A 
BRANCH  14  16
HETATM   16  C   UNK N   1      22.505  17.149   5.481  0.00  0.00     0.165 C 
BRANCH  16  17
HETATM   17  N   UNK N   1      22.053  16.679   6.598  0.00  0.00    -0.170 N 
HETATM   18  C   UNK N   1      22.221  15.370   7.125  0.00  0.00     0.685 A 
HETATM   19  N   UNK N   1      21.443  14.925   8.147  0.00  0.00    -0.189 N 
HETATM   20  N   UNK N   1      23.417  14.723   7.059  0.00  0.00    -0.189 N 
HETATM   21  C   UNK N   1      22.173  13.954   8.716  0.00  0.00     0.076 A 
ATOM     22  HN  UNK N   1      20.517  15.255   8.420  1.00  0.00     0.184 HD
HETATM   23  C   UNK N   1      21.875  13.221   9.863  0.00  0.00     0.032 A 
HETATM   24  C   UNK N   1      23.362  13.838   8.069  0.00  0.00     0.076 A 
HETATM   25  C   UNK N   1      22.863  12.343  10.348  0.00  0.00     0.002 A 
HETATM   26  C   UNK N   1      24.108  12.231   9.683  0.00  0.00     0.002 A 
HETATM   27  C   UNK N   1      24.369  12.988   8.522  0.00  0.00     0.032 A 
HETATM   28  H   UNK N   1      24.152  14.870   6.420  0.00  0.00     0.184 HD
ATOM     29  HN  UNK N   1      21.512  17.327   7.170  1.00  0.00     0.186 HD
ENDBRANCH  16  17
BRANCH  16  30
HETATM   30  O   UNK N   1      23.333  18.208   5.526  0.00  0.00    -0.345 OA
HETATM   31  H   UNK N   1      24.258  18.274   5.390  0.00  0.00     0.219 HD
ENDBRANCH  16  30
ENDBRANCH  14  16
ENDBRANCH   9  10
ENDBRANCH   6   9
BRANCH   1  32
HETATM   32  C   UNK N   1      23.611  11.885   3.063  0.00  0.00     0.066 C 
BRANCH  32  33
HETATM   33  C   UNK N   1      22.660  11.810   4.233  0.00  0.00    -0.056 A 
HETATM   34  C   UNK N   1      21.519  12.628   4.326  0.00  0.00     0.007 A 
HETATM   35  C   UNK N   1      20.679  12.552   5.437  0.00  0.00     0.001 A 
HETATM   36  C   UNK N   1      20.975  11.661   6.471  0.00  0.00     0.000 A 
HETATM   37  C   UNK N   1      22.107  10.844   6.388  0.00  0.00     0.001 A 
HETATM   38  C   UNK N   1      22.947  10.920   5.272  0.00  0.00     0.007 A 
ENDBRANCH  32  33
ENDBRANCH   1  32
BRANCH   3  39
HETATM   39  O   UNK N   1      26.254  11.816   4.855  0.00  0.00    -0.391 OA
HETATM   40  H   UNK N   1      26.179  12.006   5.803  0.00  0.00     0.210 HD
ENDBRANCH   3  39
BRANCH   7  41
HETATM   41  C   UNK N   1      26.074  15.340   4.362  0.00  0.00     0.166 C 
BRANCH  41  42
HETATM   42  C   UNK N   1      26.682  16.632   4.804  0.00  0.00    -0.039 A 
HETATM   43  C   UNK N   1      26.794  17.738   3.951  0.00  0.00     0.009 A 
HETATM   44  C   UNK N   1      27.481  18.884   4.383  0.00  0.00     0.002 A 
HETATM   45  C   UNK N   1      28.034  18.928   5.673  0.00  0.00     0.016 A 
HETATM   46  C   UNK N   1      27.905  17.816   6.515  0.00  0.00     0.016 A 
HETATM   47  C   UNK N   1      27.237  16.681   6.060  0.00  0.00     0.024 A 
BRANCH  46  48
HETATM   48  C   UNK N   1      28.269  17.846   7.934  0.00  0.00     0.165 C 
BRANCH  48  49
HETATM   49  N   UNK N   1      29.430  18.328   8.218  0.00  0.00    -0.170 N 
HETATM   50  C   UNK N   1      30.555  17.637   8.696  0.00  0.00     0.685 A 
HETATM   51  N   UNK N   1      31.775  18.225   8.688  0.00  0.00    -0.189 N 
HETATM   52  N   UNK N   1      30.605  16.295   8.897  0.00  0.00    -0.189 N 
HETATM   53  C   UNK N   1      32.616  17.214   8.903  0.00  0.00     0.076 A 
ATOM     54  HN  UNK N   1      31.997  19.210   8.549  1.00  0.00     0.184 HD
HETATM   55  C   UNK N   1      34.004  17.259   8.930  0.00  0.00     0.032 A 
HETATM   56  C   UNK N   1      31.918  16.054   9.035  0.00  0.00     0.076 A 
HETATM   57  C   UNK N   1      34.683  16.042   9.111  0.00  0.00     0.002 A 
HETATM   58  C   UNK N   1      33.959  14.833   9.258  0.00  0.00     0.002 A 
HETATM   59  C   UNK N   1      32.551  14.831   9.217  0.00  0.00     0.032 A 
HETATM   60  H   UNK N   1      29.859  15.655   8.932  0.00  0.00     0.184 HD
ATOM     61  HN  UNK N   1      29.545  19.331   8.077  1.00  0.00     0.186 HD
ENDBRANCH  48  49
BRANCH  48  62
HETATM   62  O   UNK N   1      27.502  17.241   8.866  0.00  0.00    -0.345 OA
HETATM   63  H   UNK N   1      26.569  17.323   8.864  0.00  0.00     0.219 HD
ENDBRANCH  48  62
ENDBRANCH  46  48
ENDBRANCH  41  42
ENDBRANCH   7  41
BRANCH   4  64
HETATM   64  O   UNK N   1      27.413  12.472   1.491  0.00  0.00    -0.391 OA
HETATM   65  H   UNK N   1      27.458  12.794   0.577  0.00  0.00     0.210 HD
ENDBRANCH   4  64
BRANCH   2  66
HETATM   66  C   UNK N   1      29.109  14.424   2.702  0.00  0.00     0.066 C 
BRANCH  66  67
HETATM   67  C   UNK N   1      29.947  15.259   3.614  0.00  0.00    -0.056 A 
HETATM   68  C   UNK N   1      30.403  14.742   4.832  0.00  0.00     0.007 A 
HETATM   69  C   UNK N   1      31.180  15.539   5.681  0.00  0.00     0.001 A 
HETATM   70  C   UNK N   1      31.495  16.853   5.316  0.00  0.00     0.000 A 
HETATM   71  C   UNK N   1      31.032  17.370   4.103  0.00  0.00     0.001 A 
HETATM   72  C   UNK N   1      30.260  16.574   3.253  0.00  0.00     0.007 A 
ENDBRANCH  66  67
ENDBRANCH   2  66
TORSDOF 16
ENDMDL
MODEL 3
REMARK VINA RESULT:      -9.1      2.836      7.524
REMARK  16 active torsions:
REMARK  status: ('A' for Active; 'I' for Inactive)
REMARK    1  A    between atoms: C_31  and  C_27 
REMARK    2  A    between atoms: C_41  and  C_27 
REMARK    3  A    between atoms: C_32  and  C_28 
REMARK    4  A    between atoms: C_42  and  C_28 
REMARK    5  A    between atoms: C_33  and  C_29 
REMARK    6  A    between atoms: N_60  and  C_29 
REMARK    7  A    between atoms: C_34  and  C_30 
REMARK    8  A    between atoms: N_61  and  C_30 
REMARK    9  A    between atoms: C_45  and  C_35 
REMARK   10  A    between atoms: C_46  and  C_36 
REMARK   11  A    between atoms: C_43  and  O_62 
REMARK   12  A    between atoms: C_44  and  O_63 
REMARK   13  A    between atoms: N_56  and  C_45 
REMARK   14  A    between atoms: O_64  and  C_45 
REMARK   15  A    between atoms: N_58  and  C_46 
REMARK   16  A    between atoms: O_65  and  C_46 
REMARK       I    between atoms: N_56  and  C_47 
REMARK       I    between atoms: N_58  and  C_48 
ROOT
HETATM    1  C   UNK N   1      23.634  12.848   5.434  0.00  0.00     0.124 C 
HETATM    2  C   UNK N   1      26.664  13.308   4.440  0.00  0.00     0.124 C 
HETATM    3  C   UNK N   1      24.980  12.256   6.061  0.00  0.00     0.172 C 
HETATM    4  C   UNK N   1      26.194  12.019   5.127  0.00  0.00     0.172 C 
HETATM    5  C   UNK N   1      24.587  13.219   3.189  0.00  0.00     0.322 C 
HETATM    6  N   UNK N   1      23.520  12.787   3.944  0.00  0.00    -0.322 N 
HETATM    7  N   UNK N   1      25.569  13.976   3.755  0.00  0.00    -0.322 N 
HETATM    8  O   UNK N   1      24.500  13.217   1.966  0.00  0.00    -0.247 OA
ENDROOT
BRANCH   6   9
HETATM    9  C   UNK N   1      22.244  12.986   3.234  0.00  0.00     0.166 C 
BRANCH   9  10
HETATM   10  C   UNK N   1      21.170  13.903   3.699  0.00  0.00    -0.039 A 
HETATM   11  C   UNK N   1      19.969  13.421   4.219  0.00  0.00     0.009 A 
HETATM   12  C   UNK N   1      18.980  14.319   4.630  0.00  0.00     0.002 A 
HETATM   13  C   UNK N   1      19.190  15.699   4.509  0.00  0.00     0.016 A 
HETATM   14  C   UNK N   1      20.343  16.185   3.879  0.00  0.00     0.016 A 
HETATM   15  C   UNK N   1      21.338  15.279   3.492  0.00  0.00     0.024 A 
BRANCH  14  16
HETATM   16  C   UNK N   1      20.678  17.622   3.927  0.00  0.00     0.165 C 
BRANCH  16  17
HETATM   17  N   UNK N   1      21.555  18.140   4.725  0.00  0.00    -0.170 N 
HETATM   18  C   UNK N   1      22.931  18.384   4.468  0.00  0.00     0.685 A 
HETATM   19  N   UNK N   1      23.795  18.643   5.485  0.00  0.00    -0.189 N 
HETATM   20  N   UNK N   1      23.355  18.898   3.281  0.00  0.00    -0.189 N 
HETATM   21  C   UNK N   1      24.797  19.317   4.901  0.00  0.00     0.076 A 
ATOM     22  HN  UNK N   1      23.702  18.385   6.468  1.00  0.00     0.184 HD
HETATM   23  C   UNK N   1      25.908  19.894   5.512  0.00  0.00     0.032 A 
HETATM   24  C   UNK N   1      24.529  19.478   3.579  0.00  0.00     0.076 A 
HETATM   25  C   UNK N   1      26.762  20.672   4.705  0.00  0.00     0.002 A 
HETATM   26  C   UNK N   1      26.477  20.853   3.330  0.00  0.00     0.002 A 
HETATM   27  C   UNK N   1      25.343  20.247   2.750  0.00  0.00     0.032 A 
HETATM   28  H   UNK N   1      22.904  18.854   2.406  0.00  0.00     0.184 HD
ATOM     29  HN  UNK N   1      21.217  18.407   5.650  1.00  0.00     0.186 HD
ENDBRANCH  16  17
BRANCH  16  30
HETATM   30  O   UNK N   1      19.968  18.450   3.141  0.00  0.00    -0.345 OA
HETATM   31  H   UNK N   1      19.791  18.426   2.221  0.00  0.00     0.219 HD
ENDBRANCH  16  30
ENDBRANCH  14  16
ENDBRANCH   9  10
ENDBRANCH   6   9
BRANCH   1  32
HETATM   32  C   UNK N   1      22.435  12.234   6.183  0.00  0.00     0.066 C 
BRANCH  32  33
HETATM   33  C   UNK N   1      21.976  12.943   7.434  0.00  0.00    -0.056 A 
HETATM   34  C   UNK N   1      22.013  12.330   8.700  0.00  0.00     0.007 A 
HETATM   35  C   UNK N   1      21.551  13.006   9.829  0.00  0.00     0.001 A 
HETATM   36  C   UNK N   1      21.042  14.300   9.704  0.00  0.00     0.000 A 
HETATM   37  C   UNK N   1      21.002  14.917   8.450  0.00  0.00     0.001 A 
HETATM   38  C   UNK N   1      21.467  14.240   7.318  0.00  0.00     0.007 A 
ENDBRANCH  32  33
ENDBRANCH   1  32
BRANCH   3  39
HETATM   39  O   UNK N   1      25.369  13.050   7.146  0.00  0.00    -0.391 OA
HETATM   40  H   UNK N   1      25.275  13.600   7.939  0.00  0.00     0.210 HD
ENDBRANCH   3  39
BRANCH   7  41
HETATM   41  C   UNK N   1      25.135  15.238   4.343  0.00  0.00     0.166 C 
BRANCH  41  42
HETATM   42  C   UNK N   1      26.312  16.138   4.533  0.00  0.00    -0.039 A 
HETATM   43  C   UNK N   1      27.019  16.684   3.453  0.00  0.00     0.009 A 
HETATM   44  C   UNK N   1      28.188  17.424   3.689  0.00  0.00     0.002 A 
HETATM   45  C   UNK N   1      28.634  17.635   5.004  0.00  0.00     0.016 A 
HETATM   46  C   UNK N   1      27.910  17.088   6.072  0.00  0.00     0.016 A 
HETATM   47  C   UNK N   1      26.764  16.339   5.815  0.00  0.00     0.024 A 
BRANCH  46  48
HETATM   48  C   UNK N   1      28.183  17.422   7.472  0.00  0.00     0.165 C 
BRANCH  48  49
HETATM   49  N   UNK N   1      29.280  18.056   7.707  0.00  0.00    -0.170 N 
HETATM   50  C   UNK N   1      30.468  17.546   8.255  0.00  0.00     0.685 A 
HETATM   51  N   UNK N   1      31.616  18.262   8.188  0.00  0.00    -0.189 N 
HETATM   52  N   UNK N   1      30.663  16.246   8.592  0.00  0.00    -0.189 N 
HETATM   53  C   UNK N   1      32.561  17.378   8.507  0.00  0.00     0.076 A 
ATOM     54  HN  UNK N   1      31.730  19.247   7.949  1.00  0.00     0.184 HD
HETATM   55  C   UNK N   1      33.934  17.579   8.531  0.00  0.00     0.032 A 
HETATM   56  C   UNK N   1      31.992  16.167   8.755  0.00  0.00     0.076 A 
HETATM   57  C   UNK N   1      34.740  16.469   8.836  0.00  0.00     0.002 A 
HETATM   58  C   UNK N   1      34.153  15.208   9.105  0.00  0.00     0.002 A 
HETATM   59  C   UNK N   1      32.754  15.047   9.062  0.00  0.00     0.032 A 
HETATM   60  H   UNK N   1      29.991  15.533   8.691  0.00  0.00     0.184 HD
ATOM     61  HN  UNK N   1      29.286  19.046   7.465  1.00  0.00     0.186 HD
ENDBRANCH  48  49
BRANCH  48  62
HETATM   62  O   UNK N   1      27.413  16.938   8.469  0.00  0.00    -0.345 OA
HETATM   63  H   UNK N   1      27.747  16.328   9.097  0.00  0.00     0.219 HD
ENDBRANCH  48  62
ENDBRANCH  46  48
ENDBRANCH  41  42
ENDBRANCH   7  41
BRANCH   4  64
HETATM   64  O   UNK N   1      25.877  11.033   4.186  0.00  0.00    -0.391 OA
HETATM   65  H   UNK N   1      25.990  10.445   3.422  0.00  0.00     0.210 HD
ENDBRANCH   4  64
BRANCH   2  66
HETATM   66  C   UNK N   1      27.791  13.015   3.442  0.00  0.00     0.066 C 
BRANCH  66  67
HETATM   67  C   UNK N   1      29.051  13.739   3.786  0.00  0.00    -0.056 A 
HETATM   68  C   UNK N   1      29.441  13.893   5.122  0.00  0.00     0.007 A 
HETATM   69  C   UNK N   1      30.620  14.581   5.430  0.00  0.00     0.001 A 
HETATM   70  C   UNK N   1      31.405  15.121   4.405  0.00  0.00     0.000 A 
HETATM   71  C   UNK N   1      31.012  14.973   3.073  0.00  0.00     0.001 A 
HETATM   72  C   UNK N   1      29.837  14.283   2.763  0.00  0.00     0.007 A 
ENDBRANCH  66  67
ENDBRANCH   2  66
TORSDOF 16
ENDMDL
MODEL 4
REMARK VINA RESULT:      -8.9      2.946      8.713
REMARK  16 active torsions:
REMARK  status: ('A' for Active; 'I' for Inactive)
REMARK    1  A    between atoms: C_31  and  C_27 
REMARK    2  A    between atoms: C_41  and  C_27 
REMARK    3  A    between atoms: C_32  and  C_28 
REMARK    4  A    between atoms: C_42  and  C_28 
REMARK    5  A    between atoms: C_33  and  C_29 
REMARK    6  A    between atoms: N_60  and  C_29 
REMARK    7  A    between atoms: C_34  and  C_30 
REMARK    8  A    between atoms: N_61  and  C_30 
REMARK    9  A    between atoms: C_45  and  C_35 
REMARK   10  A    between atoms: C_46  and  C_36 
REMARK   11  A    between atoms: C_43  and  O_62 
REMARK   12  A    between atoms: C_44  and  O_63 
REMARK   13  A    between atoms: N_56  and  C_45 
REMARK   14  A    between atoms: O_64  and  C_45 
REMARK   15  A    between atoms: N_58  and  C_46 
REMARK   16  A    between atoms: O_65  and  C_46 
REMARK       I    between atoms: N_56  and  C_47 
REMARK       I    between atoms: N_58  and  C_48 
ROOT
HETATM    1  C   UNK N   1      26.571  16.593   4.144  0.00  0.00     0.124 C 
HETATM    2  C   UNK N   1      24.886  13.858   4.383  0.00  0.00     0.124 C 
HETATM    3  C   UNK N   1      25.294  16.142   3.294  0.00  0.00     0.172 C 
HETATM    4  C   UNK N   1      25.049  14.629   3.066  0.00  0.00     0.172 C 
HETATM    5  C   UNK N   1      27.241  14.301   4.759  0.00  0.00     0.322 C 
HETATM    6  N   UNK N   1      27.628  15.555   4.344  0.00  0.00    -0.322 N 
HETATM    7  N   UNK N   1      25.999  14.102   5.284  0.00  0.00    -0.322 N 
HETATM    8  O   UNK N   1      28.095  13.446   4.970  0.00  0.00    -0.247 OA
ENDROOT
BRANCH   6   9
HETATM    9  C   UNK N   1      28.987  15.882   4.813  0.00  0.00     0.166 C 
BRANCH   9  10
HETATM   10  C   UNK N   1      29.282  16.489   6.138  0.00  0.00    -0.039 A 
HETATM   11  C   UNK N   1      28.266  16.952   6.975  0.00  0.00     0.009 A 
HETATM   12  C   UNK N   1      28.589  17.531   8.205  0.00  0.00     0.002 A 
HETATM   13  C   UNK N   1      29.930  17.656   8.592  0.00  0.00     0.016 A 
HETATM   14  C   UNK N   1      30.956  17.304   7.706  0.00  0.00     0.016 A 
HETATM   15  C   UNK N   1      30.623  16.703   6.486  0.00  0.00     0.024 A 
BRANCH  14  16
HETATM   16  C   UNK N   1      32.357  17.234   8.166  0.00  0.00     0.165 C 
BRANCH  16  17
HETATM   17  N   UNK N   1      32.724  16.773   9.318  0.00  0.00    -0.170 N 
HETATM   18  C   UNK N   1      33.566  15.660   9.585  0.00  0.00     0.685 A 
HETATM   19  N   UNK N   1      33.618  15.106  10.825  0.00  0.00    -0.189 N 
HETATM   20  N   UNK N   1      34.699  15.434   8.865  0.00  0.00    -0.189 N 
HETATM   21  C   UNK N   1      34.812  14.498  10.862  0.00  0.00     0.076 A 
ATOM     22  HN  UNK N   1      32.911  15.146  11.559  1.00  0.00     0.184 HD
HETATM   23  C   UNK N   1      35.405  13.844  11.941  0.00  0.00     0.032 A 
HETATM   24  C   UNK N   1      35.466  14.702   9.689  0.00  0.00     0.076 A 
HETATM   25  C   UNK N   1      36.731  13.397  11.781  0.00  0.00     0.002 A 
HETATM   26  C   UNK N   1      37.419  13.621  10.564  0.00  0.00     0.002 A 
HETATM   27  C   UNK N   1      36.781  14.283   9.495  0.00  0.00     0.032 A 
HETATM   28  H   UNK N   1      34.908  15.738   7.951  0.00  0.00     0.184 HD
ATOM     29  HN  UNK N   1      32.367  17.271  10.134  1.00  0.00     0.186 HD
ENDBRANCH  16  17
BRANCH  16  30
HETATM   30  O   UNK N   1      33.300  17.754   7.360  0.00  0.00    -0.345 OA
HETATM   31  H   UNK N   1      34.206  17.541   7.255  0.00  0.00     0.219 HD
ENDBRANCH  16  30
ENDBRANCH  14  16
ENDBRANCH   9  10
ENDBRANCH   6   9
BRANCH   1  32
HETATM   32  C   UNK N   1      27.095  17.923   3.567  0.00  0.00     0.066 C 
BRANCH  32  33
HETATM   33  C   UNK N   1      27.003  19.137   4.459  0.00  0.00    -0.056 A 
HETATM   34  C   UNK N   1      28.146  19.809   4.932  0.00  0.00     0.007 A 
HETATM   35  C   UNK N   1      28.022  20.910   5.779  0.00  0.00     0.001 A 
HETATM   36  C   UNK N   1      26.754  21.348   6.168  0.00  0.00     0.000 A 
HETATM   37  C   UNK N   1      25.613  20.686   5.703  0.00  0.00     0.001 A 
HETATM   38  C   UNK N   1      25.738  19.584   4.852  0.00  0.00     0.007 A 
ENDBRANCH  32  33
ENDBRANCH   1  32
BRANCH   3  39
HETATM   39  O   UNK N   1      24.147  16.726   3.844  0.00  0.00    -0.391 OA
HETATM   40  H   UNK N   1      23.463  17.396   3.999  0.00  0.00     0.210 HD
ENDBRANCH   3  39
BRANCH   7  41
HETATM   41  C   UNK N   1      25.685  14.883   6.476  0.00  0.00     0.166 C 
BRANCH  41  42
HETATM   42  C   UNK N   1      24.575  14.226   7.230  0.00  0.00    -0.039 A 
HETATM   43  C   UNK N   1      24.747  13.015   7.913  0.00  0.00     0.009 A 
HETATM   44  C   UNK N   1      23.640  12.385   8.503  0.00  0.00     0.002 A 
HETATM   45  C   UNK N   1      22.370  12.979   8.429  0.00  0.00     0.016 A 
HETATM   46  C   UNK N   1      22.218  14.195   7.749  0.00  0.00     0.016 A 
HETATM   47  C   UNK N   1      23.326  14.793   7.152  0.00  0.00     0.024 A 
BRANCH  46  48
HETATM   48  C   UNK N   1      20.983  14.982   7.792  0.00  0.00     0.165 C 
BRANCH  48  49
HETATM   49  N   UNK N   1      20.319  15.067   6.691  0.00  0.00    -0.170 N 
HETATM   50  C   UNK N   1      20.267  16.151   5.800  0.00  0.00     0.685 A 
HETATM   51  N   UNK N   1      19.749  15.993   4.558  0.00  0.00    -0.189 N 
HETATM   52  N   UNK N   1      20.974  17.301   5.945  0.00  0.00    -0.189 N 
HETATM   53  C   UNK N   1      20.136  17.091   3.910  0.00  0.00     0.076 A 
ATOM     54  HN  UNK N   1      19.193  15.215   4.203  1.00  0.00     0.184 HD
HETATM   55  C   UNK N   1      19.920  17.405   2.575  0.00  0.00     0.032 A 
HETATM   56  C   UNK N   1      20.867  17.882   4.741  0.00  0.00     0.076 A 
HETATM   57  C   UNK N   1      20.486  18.600   2.097  0.00  0.00     0.002 A 
HETATM   58  C   UNK N   1      21.240  19.432   2.961  0.00  0.00     0.002 A 
HETATM   59  C   UNK N   1      21.441  19.070   4.308  0.00  0.00     0.032 A 
HETATM   60  H   UNK N   1      21.449  17.628   6.743  0.00  0.00     0.184 HD
ATOM     61  HN  UNK N   1      19.766  14.250   6.437  1.00  0.00     0.186 HD
ENDBRANCH  48  49
BRANCH  48  62
HETATM   62  O   UNK N   1      20.659  15.716   8.878  0.00  0.00    -0.345 OA
HETATM   63  H   UNK N   1      20.709  16.651   8.872  0.00  0.00     0.219 HD
ENDBRANCH  48  62
ENDBRANCH  46  48
ENDBRANCH  41  42
ENDBRANCH   7  41
BRANCH   4  64
HETATM   64  O   UNK N   1      26.090  14.096   2.296  0.00  0.00    -0.391 OA
HETATM   65  H   UNK N   1      26.754  13.455   1.996  0.00  0.00     0.210 HD
ENDBRANCH   4  64
BRANCH   2  66
HETATM   66  C   UNK N   1      24.758  12.352   4.122  0.00  0.00     0.066 C 
BRANCH  66  67
HETATM   67  C   UNK N   1      23.481  11.793   4.658  0.00  0.00    -0.056 A 
HETATM   68  C   UNK N   1      22.274  12.478   4.480  0.00  0.00     0.007 A 
HETATM   69  C   UNK N   1      21.087  11.947   4.995  0.00  0.00     0.001 A 
HETATM   70  C   UNK N   1      21.107  10.735   5.695  0.00  0.00     0.000 A 
HETATM   71  C   UNK N   1      22.314  10.055   5.880  0.00  0.00     0.001 A 
HETATM   72  C   UNK N   1      23.499  10.583   5.361  0.00  0.00     0.007 A 
ENDBRANCH  66  67
ENDBRANCH   2  66
TORSDOF 16
ENDMDL
MODEL 5
REMARK VINA RESULT:      -8.9      3.395      7.315
REMARK  16 active torsions:
REMARK  status: ('A' for Active; 'I' for Inactive)
REMARK    1  A    between atoms: C_31  and  C_27 
REMARK    2  A    between atoms: C_41  and  C_27 
REMARK    3  A    between atoms: C_32  and  C_28 
REMARK    4  A    between atoms: C_42  and  C_28 
REMARK    5  A    between atoms: C_33  and  C_29 
REMARK    6  A    between atoms: N_60  and  C_29 
REMARK    7  A    between atoms: C_34  and  C_30 
REMARK    8  A    between atoms: N_61  and  C_30 
REMARK    9  A    between atoms: C_45  and  C_35 
REMARK   10  A    between atoms: C_46  and  C_36 
REMARK   11  A    between atoms: C_43  and  O_62 
REMARK   12  A    between atoms: C_44  and  O_63 
REMARK   13  A    between atoms: N_56  and  C_45 
REMARK   14  A    between atoms: O_64  and  C_45 
REMARK   15  A    between atoms: N_58  and  C_46 
REMARK   16  A    between atoms: O_65  and  C_46 
REMARK       I    between atoms: N_56  and  C_47 
REMARK       I    between atoms: N_58  and  C_48 
ROOT
HETATM    1  C   UNK N   1      25.873  15.069   4.527  0.00  0.00     0.124 C 
HETATM    2  C   UNK N   1      28.992  14.975   3.727  0.00  0.00     0.124 C 
HETATM    3  C   UNK N   1      26.614  14.031   3.562  0.00  0.00     0.172 C 
HETATM    4  C   UNK N   1      27.872  14.504   2.790  0.00  0.00     0.172 C 
HETATM    5  C   UNK N   1      27.552  16.855   4.255  0.00  0.00     0.322 C 
HETATM    6  N   UNK N   1      26.222  16.510   4.336  0.00  0.00    -0.322 N 
HETATM    7  N   UNK N   1      28.516  15.980   4.662  0.00  0.00    -0.322 N 
HETATM    8  O   UNK N   1      27.864  18.035   4.141  0.00  0.00    -0.247 OA
ENDROOT
BRANCH   6   9
HETATM    9  C   UNK N   1      25.416  17.607   4.902  0.00  0.00     0.166 C 
BRANCH   9  10
HETATM   10  C   UNK N   1      24.722  18.634   4.081  0.00  0.00    -0.039 A 
HETATM   11  C   UNK N   1      25.431  19.589   3.351  0.00  0.00     0.009 A 
HETATM   12  C   UNK N   1      24.738  20.547   2.606  0.00  0.00     0.002 A 
HETATM   13  C   UNK N   1      23.337  20.556   2.601  0.00  0.00     0.016 A 
HETATM   14  C   UNK N   1      22.623  19.677   3.425  0.00  0.00     0.016 A 
HETATM   15  C   UNK N   1      23.324  18.706   4.150  0.00  0.00     0.024 A 
BRANCH  14  16
HETATM   16  C   UNK N   1      21.161  19.530   3.282  0.00  0.00     0.165 C 
BRANCH  16  17
HETATM   17  N   UNK N   1      20.586  18.816   2.369  0.00  0.00    -0.170 N 
HETATM   18  C   UNK N   1      20.645  17.406   2.198  0.00  0.00     0.685 A 
HETATM   19  N   UNK N   1      20.252  16.828   1.033  0.00  0.00    -0.189 N 
HETATM   20  N   UNK N   1      20.560  16.555   3.257  0.00  0.00    -0.189 N 
HETATM   21  C   UNK N   1      19.938  15.572   1.380  0.00  0.00     0.076 A 
ATOM     22  HN  UNK N   1      20.206  17.253   0.107  1.00  0.00     0.184 HD
HETATM   23  C   UNK N   1      19.396  14.572   0.574  0.00  0.00     0.032 A 
HETATM   24  C   UNK N   1      20.114  15.409   2.718  0.00  0.00     0.076 A 
HETATM   25  C   UNK N   1      19.022  13.366   1.198  0.00  0.00     0.002 A 
HETATM   26  C   UNK N   1      19.192  13.200   2.593  0.00  0.00     0.002 A 
HETATM   27  C   UNK N   1      19.748  14.235   3.373  0.00  0.00     0.032 A 
HETATM   28  H   UNK N   1      20.776  16.738   4.201  0.00  0.00     0.184 HD
ATOM     29  HN  UNK N   1      20.020  19.326   1.691  1.00  0.00     0.186 HD
ENDBRANCH  16  17
BRANCH  16  30
HETATM   30  O   UNK N   1      20.382  20.249   4.110  0.00  0.00    -0.345 OA
HETATM   31  H   UNK N   1      20.400  21.157   4.341  0.00  0.00     0.219 HD
ENDBRANCH  16  30
ENDBRANCH  14  16
ENDBRANCH   9  10
ENDBRANCH   6   9
BRANCH   1  32
HETATM   32  C   UNK N   1      24.360  14.777   4.486  0.00  0.00     0.066 C 
BRANCH  32  33
HETATM   33  C   UNK N   1      23.816  14.174   3.214  0.00  0.00    -0.056 A 
HETATM   34  C   UNK N   1      23.792  14.882   1.999  0.00  0.00     0.007 A 
HETATM   35  C   UNK N   1      23.253  14.303   0.850  0.00  0.00     0.001 A 
HETATM   36  C   UNK N   1      22.726  13.011   0.906  0.00  0.00     0.000 A 
HETATM   37  C   UNK N   1      22.746  12.299   2.110  0.00  0.00     0.001 A 
HETATM   38  C   UNK N   1      23.288  12.880   3.260  0.00  0.00     0.007 A 
ENDBRANCH  32  33
ENDBRANCH   1  32
BRANCH   3  39
HETATM   39  O   UNK N   1      26.914  12.869   4.282  0.00  0.00    -0.391 OA
HETATM   40  H   UNK N   1      26.793  11.977   4.642  0.00  0.00     0.210 HD
ENDBRANCH   3  39
BRANCH   7  41
HETATM   41  C   UNK N   1      28.437  15.557   6.056  0.00  0.00     0.166 C 
BRANCH  41  42
HETATM   42  C   UNK N   1      28.981  16.632   6.940  0.00  0.00    -0.039 A 
HETATM   43  C   UNK N   1      28.215  17.738   7.333  0.00  0.00     0.009 A 
HETATM   44  C   UNK N   1      28.815  18.775   8.065  0.00  0.00     0.002 A 
HETATM   45  C   UNK N   1      30.170  18.693   8.421  0.00  0.00     0.016 A 
HETATM   46  C   UNK N   1      30.919  17.575   8.027  0.00  0.00     0.016 A 
HETATM   47  C   UNK N   1      30.310  16.566   7.283  0.00  0.00     0.024 A 
BRANCH  46  48
HETATM   48  C   UNK N   1      32.272  17.309   8.521  0.00  0.00     0.165 C 
BRANCH  48  49
HETATM   49  N   UNK N   1      32.385  16.385   9.412  0.00  0.00    -0.170 N 
HETATM   50  C   UNK N   1      33.468  15.515   9.617  0.00  0.00     0.685 A 
HETATM   51  N   UNK N   1      33.556  14.787  10.756  0.00  0.00    -0.189 N 
HETATM   52  N   UNK N   1      34.625  15.548   8.908  0.00  0.00    -0.189 N 
HETATM   53  C   UNK N   1      34.811  14.339  10.750  0.00  0.00     0.076 A 
ATOM     54  HN  UNK N   1      32.832  14.620  11.454  1.00  0.00     0.184 HD
HETATM   55  C   UNK N   1      35.445  13.585  11.729  0.00  0.00     0.032 A 
HETATM   56  C   UNK N   1      35.455  14.789   9.639  0.00  0.00     0.076 A 
HETATM   57  C   UNK N   1      36.804  13.287  11.529  0.00  0.00     0.002 A 
HETATM   58  C   UNK N   1      37.477  13.745  10.370  0.00  0.00     0.002 A 
HETATM   59  C   UNK N   1      36.796  14.514   9.405  0.00  0.00     0.032 A 
HETATM   60  H   UNK N   1      34.810  16.016   8.062  0.00  0.00     0.184 HD
ATOM     61  HN  UNK N   1      31.593  16.273  10.045  1.00  0.00     0.186 HD
ENDBRANCH  48  49
BRANCH  48  62
HETATM   62  O   UNK N   1      33.308  18.107   8.188  0.00  0.00    -0.345 OA
HETATM   63  H   UNK N   1      33.479  18.347   7.299  0.00  0.00     0.219 HD
ENDBRANCH  48  62
ENDBRANCH  46  48
ENDBRANCH  41  42
ENDBRANCH   7  41
BRANCH   4  64
HETATM   64  O   UNK N   1      27.516  15.510   1.883  0.00  0.00    -0.391 OA
HETATM   65  H   UNK N   1      27.522  16.029   1.063  0.00  0.00     0.210 HD
ENDBRANCH   4  64
BRANCH   2  66
HETATM   66  C   UNK N   1      30.173  15.538   2.926  0.00  0.00     0.066 C 
BRANCH  66  67
HETATM   67  C   UNK N   1      31.360  15.812   3.790  0.00  0.00    -0.056 A 
HETATM   68  C   UNK N   1      31.880  17.107   3.895  0.00  0.00     0.007 A 
HETATM   69  C   UNK N   1      32.998  17.348   4.701  0.00  0.00     0.001 A 
HETATM   70  C   UNK N   1      33.600  16.294   5.398  0.00  0.00     0.000 A 
HETATM   71  C   UNK N   1      33.085  15.000   5.287  0.00  0.00     0.001 A 
HETATM   72  C   UNK N   1      31.966  14.759   4.485  0.00  0.00     0.007 A 
ENDBRANCH  66  67
ENDBRANCH   2  66
TORSDOF 16
ENDMDL
MODEL 6
REMARK VINA RESULT:      -8.8      3.339      9.011
REMARK  16 active torsions:
REMARK  status: ('A' for Active; 'I' for Inactive)
REMARK    1  A    between atoms: C_31  and  C_27 
REMARK    2  A    between atoms: C_41  and  C_27 
REMARK    3  A    between atoms: C_32  and  C_28 
REMARK    4  A    between atoms: C_42  and  C_28 
REMARK    5  A    between atoms: C_33  and  C_29 
REMARK    6  A    between atoms: N_60  and  C_29 
REMARK    7  A    between atoms: C_34  and  C_30 
REMARK    8  A    between atoms: N_61  and  C_30 
REMARK    9  A    between atoms: C_45  and  C_35 
REMARK   10  A    between atoms: C_46  and  C_36 
REMARK   11  A    between atoms: C_43  and  O_62 
REMARK   12  A    between atoms: C_44  and  O_63 
REMARK   13  A    between atoms: N_56  and  C_45 
REMARK   14  A    between atoms: O_64  and  C_45 
REMARK   15  A    between atoms: N_58  and  C_46 
REMARK   16  A    between atoms: O_65  and  C_46 
REMARK       I    between atoms: N_56  and  C_47 
REMARK       I    between atoms: N_58  and  C_48 
ROOT
HETATM    1  C   UNK N   1      26.930  16.059   5.703  0.00  0.00     0.124 C 
HETATM    2  C   UNK N   1      25.098  15.050   3.252  0.00  0.00     0.124 C 
HETATM    3  C   UNK N   1      25.747  16.843   4.965  0.00  0.00     0.172 C 
HETATM    4  C   UNK N   1      25.460  16.524   3.476  0.00  0.00     0.172 C 
HETATM    5  C   UNK N   1      27.409  14.556   3.806  0.00  0.00     0.322 C 
HETATM    6  N   UNK N   1      27.903  15.351   4.815  0.00  0.00    -0.322 N 
HETATM    7  N   UNK N   1      26.103  14.164   3.816  0.00  0.00    -0.322 N 
HETATM    8  O   UNK N   1      28.187  13.933   3.092  0.00  0.00    -0.247 OA
ENDROOT
BRANCH   6   9
HETATM    9  C   UNK N   1      29.208  14.860   5.295  0.00  0.00     0.166 C 
BRANCH   9  10
HETATM   10  C   UNK N   1      30.368  15.742   5.587  0.00  0.00    -0.039 A 
HETATM   11  C   UNK N   1      30.888  16.612   4.628  0.00  0.00     0.009 A 
HETATM   12  C   UNK N   1      31.991  17.412   4.940  0.00  0.00     0.002 A 
HETATM   13  C   UNK N   1      32.580  17.332   6.208  0.00  0.00     0.016 A 
HETATM   14  C   UNK N   1      32.139  16.377   7.133  0.00  0.00     0.016 A 
HETATM   15  C   UNK N   1      31.019  15.596   6.820  0.00  0.00     0.024 A 
BRANCH  14  16
HETATM   16  C   UNK N   1      32.602  16.415   8.534  0.00  0.00     0.165 C 
BRANCH  16  17
HETATM   17  N   UNK N   1      32.676  15.379   9.306  0.00  0.00    -0.170 N 
HETATM   18  C   UNK N   1      33.803  14.912  10.035  0.00  0.00     0.685 A 
HETATM   19  N   UNK N   1      33.826  13.656  10.553  0.00  0.00    -0.189 N 
HETATM   20  N   UNK N   1      34.624  15.767  10.703  0.00  0.00    -0.189 N 
HETATM   21  C   UNK N   1      34.710  13.732  11.559  0.00  0.00     0.076 A 
ATOM     22  HN  UNK N   1      33.292  12.842  10.248  1.00  0.00     0.184 HD
HETATM   23  C   UNK N   1      35.048  12.740  12.476  0.00  0.00     0.032 A 
HETATM   24  C   UNK N   1      35.183  15.002  11.655  0.00  0.00     0.076 A 
HETATM   25  C   UNK N   1      35.908  13.098  13.533  0.00  0.00     0.002 A 
HETATM   26  C   UNK N   1      36.392  14.424  13.643  0.00  0.00     0.002 A 
HETATM   27  C   UNK N   1      36.028  15.398  12.690  0.00  0.00     0.032 A 
HETATM   28  H   UNK N   1      34.774  16.725  10.528  0.00  0.00     0.184 HD
ATOM     29  HN  UNK N   1      31.820  14.833   9.405  1.00  0.00     0.186 HD
ENDBRANCH  16  17
BRANCH  16  30
HETATM   30  O   UNK N   1      32.895  17.619   9.057  0.00  0.00    -0.345 OA
HETATM   31  H   UNK N   1      32.863  18.477   8.683  0.00  0.00     0.219 HD
ENDBRANCH  16  30
ENDBRANCH  14  16
ENDBRANCH   9  10
ENDBRANCH   6   9
BRANCH   1  32
HETATM   32  C   UNK N   1      27.586  17.012   6.721  0.00  0.00     0.066 C 
BRANCH  32  33
HETATM   33  C   UNK N   1      27.600  18.480   6.371  0.00  0.00    -0.056 A 
HETATM   34  C   UNK N   1      27.082  19.462   7.234  0.00  0.00     0.007 A 
HETATM   35  C   UNK N   1      27.085  20.807   6.863  0.00  0.00     0.001 A 
HETATM   36  C   UNK N   1      27.601  21.183   5.621  0.00  0.00     0.000 A 
HETATM   37  C   UNK N   1      28.119  20.213   4.757  0.00  0.00     0.001 A 
HETATM   38  C   UNK N   1      28.117  18.866   5.131  0.00  0.00     0.007 A 
ENDBRANCH  32  33
ENDBRANCH   1  32
BRANCH   3  39
HETATM   39  O   UNK N   1      24.571  16.704   5.711  0.00  0.00    -0.391 OA
HETATM   40  H   UNK N   1      23.786  16.274   6.084  0.00  0.00     0.210 HD
ENDBRANCH   3  39
BRANCH   7  41
HETATM   41  C   UNK N   1      25.683  13.398   4.985  0.00  0.00     0.166 C 
BRANCH  41  42
HETATM   42  C   UNK N   1      24.314  12.843   4.758  0.00  0.00    -0.039 A 
HETATM   43  C   UNK N   1      24.078  11.757   3.904  0.00  0.00     0.009 A 
HETATM   44  C   UNK N   1      22.760  11.356   3.637  0.00  0.00     0.002 A 
HETATM   45  C   UNK N   1      21.684  12.025   4.241  0.00  0.00     0.016 A 
HETATM   46  C   UNK N   1      21.939  13.104   5.099  0.00  0.00     0.016 A 
HETATM   47  C   UNK N   1      23.254  13.500   5.335  0.00  0.00     0.024 A 
BRANCH  46  48
HETATM   48  C   UNK N   1      20.902  13.727   5.924  0.00  0.00     0.165 C 
BRANCH  48  49
HETATM   49  N   UNK N   1      20.053  14.476   5.309  0.00  0.00    -0.170 N 
HETATM   50  C   UNK N   1      20.211  15.816   4.920  0.00  0.00     0.685 A 
HETATM   51  N   UNK N   1      19.345  16.383   4.046  0.00  0.00    -0.189 N 
HETATM   52  N   UNK N   1      21.345  16.540   5.101  0.00  0.00    -0.189 N 
HETATM   53  C   UNK N   1      19.956  17.508   3.678  0.00  0.00     0.076 A 
ATOM     54  HN  UNK N   1      18.438  16.030   3.742  1.00  0.00     0.184 HD
HETATM   55  C   UNK N   1      19.523  18.439   2.744  0.00  0.00     0.032 A 
HETATM   56  C   UNK N   1      21.155  17.609   4.313  0.00  0.00     0.076 A 
HETATM   57  C   UNK N   1      20.378  19.522   2.472  0.00  0.00     0.002 A 
HETATM   58  C   UNK N   1      21.623  19.637   3.138  0.00  0.00     0.002 A 
HETATM   59  C   UNK N   1      22.027  18.664   4.074  0.00  0.00     0.032 A 
HETATM   60  H   UNK N   1      22.119  16.330   5.672  0.00  0.00     0.184 HD
ATOM     61  HN  UNK N   1      19.160  14.043   5.076  1.00  0.00     0.186 HD
ENDBRANCH  48  49
BRANCH  48  62
HETATM   62  O   UNK N   1      20.944  13.657   7.272  0.00  0.00    -0.345 OA
HETATM   63  H   UNK N   1      20.499  14.280   7.811  0.00  0.00     0.219 HD
ENDBRANCH  48  62
ENDBRANCH  46  48
ENDBRANCH  41  42
ENDBRANCH   7  41
BRANCH   4  64
HETATM   64  O   UNK N   1      26.560  16.898   2.695  0.00  0.00    -0.391 OA
HETATM   65  H   UNK N   1      27.251  16.828   2.017  0.00  0.00     0.210 HD
ENDBRANCH   4  64
BRANCH   2  66
HETATM   66  C   UNK N   1      24.931  14.750   1.757  0.00  0.00     0.066 C 
BRANCH  66  67
HETATM   67  C   UNK N   1      23.547  14.297   1.424  0.00  0.00    -0.056 A 
HETATM   68  C   UNK N   1      23.341  13.204   0.575  0.00  0.00     0.007 A 
HETATM   69  C   UNK N   1      22.039  12.797   0.265  0.00  0.00     0.001 A 
HETATM   70  C   UNK N   1      20.943  13.485   0.797  0.00  0.00     0.000 A 
HETATM   71  C   UNK N   1      21.150  14.582   1.639  0.00  0.00     0.001 A 
HETATM   72  C   UNK N   1      22.450  14.987   1.953  0.00  0.00     0.007 A 
ENDBRANCH  66  67
ENDBRANCH   2  66
TORSDOF 16
ENDMDL
MODEL 7
REMARK VINA RESULT:      -8.8      2.516      8.678
REMARK  16 active torsions:
REMARK  status: ('A' for Active; 'I' for Inactive)
REMARK    1  A    between atoms: C_31  and  C_27 
REMARK    2  A    between atoms: C_41  and  C_27 
REMARK    3  A    between atoms: C_32  and  C_28 
REMARK    4  A    between atoms: C_42  and  C_28 
REMARK    5  A    between atoms: C_33  and  C_29 
REMARK    6  A    between atoms: N_60  and  C_29 
REMARK    7  A    between atoms: C_34  and  C_30 
REMARK    8  A    between atoms: N_61  and  C_30 
REMARK    9  A    between atoms: C_45  and  C_35 
REMARK   10  A    between atoms: C_46  and  C_36 
REMARK   11  A    between atoms: C_43  and  O_62 
REMARK   12  A    between atoms: C_44  and  O_63 
REMARK   13  A    between atoms: N_56  and  C_45 
REMARK   14  A    between atoms: O_64  and  C_45 
REMARK   15  A    between atoms: N_58  and  C_46 
REMARK   16  A    between atoms: O_65  and  C_46 
REMARK       I    between atoms: N_56  and  C_47 
REMARK       I    between atoms: N_58  and  C_48 
ROOT
HETATM    1  C   UNK N   1      29.002  15.906   3.417  0.00  0.00     0.124 C 
HETATM    2  C   UNK N   1      27.221  13.279   3.970  0.00  0.00     0.124 C 
HETATM    3  C   UNK N   1      29.317  14.394   3.004  0.00  0.00     0.172 C 
HETATM    4  C   UNK N   1      28.753  13.250   3.884  0.00  0.00     0.172 C 
HETATM    5  C   UNK N   1      27.484  15.312   5.268  0.00  0.00     0.322 C 
HETATM    6  N   UNK N   1      28.503  16.117   4.811  0.00  0.00    -0.322 N 
HETATM    7  N   UNK N   1      26.737  14.583   4.392  0.00  0.00    -0.322 N 
HETATM    8  O   UNK N   1      27.031  15.494   6.393  0.00  0.00    -0.247 OA
ENDROOT
BRANCH   6   9
HETATM    9  C   UNK N   1      28.470  17.443   5.454  0.00  0.00     0.166 C 
BRANCH   9  10
HETATM   10  C   UNK N   1      28.991  17.715   6.819  0.00  0.00    -0.039 A 
HETATM   11  C   UNK N   1      28.218  18.361   7.784  0.00  0.00     0.009 A 
HETATM   12  C   UNK N   1      28.753  18.612   9.050  0.00  0.00     0.002 A 
HETATM   13  C   UNK N   1      30.067  18.225   9.346  0.00  0.00     0.016 A 
HETATM   14  C   UNK N   1      30.886  17.685   8.347  0.00  0.00     0.016 A 
HETATM   15  C   UNK N   1      30.334  17.417   7.089  0.00  0.00     0.024 A 
BRANCH  14  16
HETATM   16  C   UNK N   1      32.192  17.086   8.687  0.00  0.00     0.165 C 
BRANCH  16  17
HETATM   17  N   UNK N   1      32.342  15.906   9.197  0.00  0.00    -0.170 N 
HETATM   18  C   UNK N   1      33.522  15.339   9.751  0.00  0.00     0.685 A 
HETATM   19  N   UNK N   1      33.617  14.000   9.966  0.00  0.00    -0.189 N 
HETATM   20  N   UNK N   1      34.345  16.057  10.562  0.00  0.00    -0.189 N 
HETATM   21  C   UNK N   1      34.548  13.888  10.924  0.00  0.00     0.076 A 
ATOM     22  HN  UNK N   1      33.099  13.253   9.504  1.00  0.00     0.184 HD
HETATM   23  C   UNK N   1      34.970  12.729  11.574  0.00  0.00     0.032 A 
HETATM   24  C   UNK N   1      34.979  15.123  11.290  0.00  0.00     0.076 A 
HETATM   25  C   UNK N   1      35.869  12.877  12.648  0.00  0.00     0.002 A 
HETATM   26  C   UNK N   1      36.309  14.165  13.039  0.00  0.00     0.002 A 
HETATM   27  C   UNK N   1      35.861  15.312  12.352  0.00  0.00     0.032 A 
HETATM   28  H   UNK N   1      34.451  17.036  10.607  0.00  0.00     0.184 HD
ATOM     29  HN  UNK N   1      31.514  15.312   9.203  1.00  0.00     0.186 HD
ENDBRANCH  16  17
BRANCH  16  30
HETATM   30  O   UNK N   1      33.286  17.850   8.521  0.00  0.00    -0.345 OA
HETATM   31  H   UNK N   1      33.561  18.635   8.954  0.00  0.00     0.219 HD
ENDBRANCH  16  30
ENDBRANCH  14  16
ENDBRANCH   9  10
ENDBRANCH   6   9
BRANCH   1  32
HETATM   32  C   UNK N   1      30.218  16.777   3.046  0.00  0.00     0.066 C 
BRANCH  32  33
HETATM   33  C   UNK N   1      31.473  16.579   3.862  0.00  0.00    -0.056 A 
HETATM   34  C   UNK N   1      31.867  15.316   4.338  0.00  0.00     0.007 A 
HETATM   35  C   UNK N   1      33.018  15.176   5.115  0.00  0.00     0.001 A 
HETATM   36  C   UNK N   1      33.783  16.301   5.430  0.00  0.00     0.000 A 
HETATM   37  C   UNK N   1      33.399  17.562   4.960  0.00  0.00     0.001 A 
HETATM   38  C   UNK N   1      32.247  17.699   4.179  0.00  0.00     0.007 A 
ENDBRANCH  32  33
ENDBRANCH   1  32
BRANCH   3  39
HETATM   39  O   UNK N   1      28.937  14.194   1.672  0.00  0.00    -0.391 OA
HETATM   40  H   UNK N   1      28.923  13.790   0.790  0.00  0.00     0.210 HD
ENDBRANCH   3  39
BRANCH   7  41
HETATM   41  C   UNK N   1      26.029  15.351   3.374  0.00  0.00     0.166 C 
BRANCH  41  42
HETATM   42  C   UNK N   1      24.554  15.207   3.569  0.00  0.00    -0.039 A 
HETATM   43  C   UNK N   1      23.735  14.561   2.632  0.00  0.00     0.009 A 
HETATM   44  C   UNK N   1      22.343  14.561   2.809  0.00  0.00     0.002 A 
HETATM   45  C   UNK N   1      21.775  15.185   3.931  0.00  0.00     0.016 A 
HETATM   46  C   UNK N   1      22.610  15.818   4.862  0.00  0.00     0.016 A 
HETATM   47  C   UNK N   1      23.989  15.825   4.658  0.00  0.00     0.024 A 
BRANCH  46  48
HETATM   48  C   UNK N   1      22.130  16.315   6.154  0.00  0.00     0.165 C 
BRANCH  48  49
HETATM   49  N   UNK N   1      21.429  15.494   6.858  0.00  0.00    -0.170 N 
HETATM   50  C   UNK N   1      21.892  14.482   7.715  0.00  0.00     0.685 A 
HETATM   51  N   UNK N   1      21.047  13.886   8.590  0.00  0.00    -0.189 N 
HETATM   52  N   UNK N   1      23.201  14.236   7.977  0.00  0.00    -0.189 N 
HETATM   53  C   UNK N   1      21.859  13.234   9.421  0.00  0.00     0.076 A 
ATOM     54  HN  UNK N   1      20.028  13.928   8.609  1.00  0.00     0.184 HD
HETATM   55  C   UNK N   1      21.507  12.502  10.548  0.00  0.00     0.032 A 
HETATM   56  C   UNK N   1      23.153  13.437   9.053  0.00  0.00     0.076 A 
HETATM   57  C   UNK N   1      22.553  11.956  11.311  0.00  0.00     0.002 A 
HETATM   58  C   UNK N   1      23.902  12.156  10.927  0.00  0.00     0.002 A 
HETATM   59  C   UNK N   1      24.215  12.912   9.779  0.00  0.00     0.032 A 
HETATM   60  H   UNK N   1      23.992  14.565   7.493  0.00  0.00     0.184 HD
ATOM     61  HN  UNK N   1      20.417  15.592   6.784  1.00  0.00     0.186 HD
ENDBRANCH  48  49
BRANCH  48  62
HETATM   62  O   UNK N   1      22.269  17.611   6.501  0.00  0.00    -0.345 OA
HETATM   63  H   UNK N   1      21.978  18.305   5.942  0.00  0.00     0.219 HD
ENDBRANCH  48  62
ENDBRANCH  46  48
ENDBRANCH  41  42
ENDBRANCH   7  41
BRANCH   4  64
HETATM   64  O   UNK N   1      29.331  13.309   5.158  0.00  0.00    -0.391 OA
HETATM   65  H   UNK N   1      30.003  13.481   5.837  0.00  0.00     0.210 HD
ENDBRANCH   4  64
BRANCH   2  66
HETATM   66  C   UNK N   1      26.709  12.204   4.937  0.00  0.00     0.066 C 
BRANCH  66  67
HETATM   67  C   UNK N   1      25.294  11.819   4.652  0.00  0.00    -0.056 A 
HETATM   68  C   UNK N   1      24.955  11.198   3.444  0.00  0.00     0.007 A 
HETATM   69  C   UNK N   1      23.624  10.850   3.188  0.00  0.00     0.001 A 
HETATM   70  C   UNK N   1      22.631  11.130   4.134  0.00  0.00     0.000 A 
HETATM   71  C   UNK N   1      22.969  11.757   5.336  0.00  0.00     0.001 A 
HETATM   72  C   UNK N   1      24.299  12.100   5.595  0.00  0.00     0.007 A 
ENDBRANCH  66  67
ENDBRANCH   2  66
TORSDOF 16
ENDMDL
MODEL 8
REMARK VINA RESULT:      -8.6      4.957      9.342
REMARK  16 active torsions:
REMARK  status: ('A' for Active; 'I' for Inactive)
REMARK    1  A    between atoms: C_31  and  C_27 
REMARK    2  A    between atoms: C_41  and  C_27 
REMARK    3  A    between atoms: C_32  and  C_28 
REMARK    4  A    between atoms: C_42  and  C_28 
REMARK    5  A    between atoms: C_33  and  C_29 
REMARK    6  A    between atoms: N_60  and  C_29 
REMARK    7  A    between atoms: C_34  and  C_30 
REMARK    8  A    between atoms: N_61  and  C_30 
REMARK    9  A    between atoms: C_45  and  C_35 
REMARK   10  A    between atoms: C_46  and  C_36 
REMARK   11  A    between atoms: C_43  and  O_62 
REMARK   12  A    between atoms: C_44  and  O_63 
REMARK   13  A    between atoms: N_56  and  C_45 
REMARK   14  A    between atoms: O_64  and  C_45 
REMARK   15  A    between atoms: N_58  and  C_46 
REMARK   16  A    between atoms: O_65  and  C_46 
REMARK       I    between atoms: N_56  and  C_47 
REMARK       I    between atoms: N_58  and  C_48 
ROOT
HETATM    1  C   UNK N   1      32.310  13.723   5.851  0.00  0.00     0.124 C 
HETATM    2  C   UNK N   1      35.200  12.890   7.006  0.00  0.00     0.124 C 
HETATM    3  C   UNK N   1      33.099  12.348   5.641  0.00  0.00     0.172 C 
HETATM    4  C   UNK N   1      34.648  12.368   5.673  0.00  0.00     0.172 C 
HETATM    5  C   UNK N   1      34.326  15.055   6.346  0.00  0.00     0.322 C 
HETATM    6  N   UNK N   1      33.115  14.973   5.697  0.00  0.00    -0.322 N 
HETATM    7  N   UNK N   1      34.630  14.182   7.348  0.00  0.00    -0.322 N 
HETATM    8  O   UNK N   1      34.985  16.087   6.268  0.00  0.00    -0.247 OA
ENDROOT
BRANCH   6   9
HETATM    9  C   UNK N   1      32.500  16.304   5.539  0.00  0.00     0.166 C 
BRANCH   9  10
HETATM   10  C   UNK N   1      31.630  16.940   6.563  0.00  0.00    -0.039 A 
HETATM   11  C   UNK N   1      32.150  17.439   7.758  0.00  0.00     0.009 A 
HETATM   12  C   UNK N   1      31.293  18.015   8.701  0.00  0.00     0.002 A 
HETATM   13  C   UNK N   1      29.917  18.082   8.451  0.00  0.00     0.016 A 
HETATM   14  C   UNK N   1      29.376  17.477   7.309  0.00  0.00     0.016 A 
HETATM   15  C   UNK N   1      30.243  16.923   6.360  0.00  0.00     0.024 A 
BRANCH  14  16
HETATM   16  C   UNK N   1      27.970  17.713   6.926  0.00  0.00     0.165 C 
BRANCH  16  17
HETATM   17  N   UNK N   1      27.574  18.682   6.166  0.00  0.00    -0.170 N 
HETATM   18  C   UNK N   1      26.545  18.658   5.186  0.00  0.00     0.685 A 
HETATM   19  N   UNK N   1      26.443  19.644   4.256  0.00  0.00    -0.189 N 
HETATM   20  N   UNK N   1      25.358  18.032   5.415  0.00  0.00    -0.189 N 
HETATM   21  C   UNK N   1      25.157  19.610   3.881  0.00  0.00     0.076 A 
ATOM     22  HN  UNK N   1      27.178  20.268   3.922  1.00  0.00     0.184 HD
HETATM   23  C   UNK N   1      24.499  20.471   3.005  0.00  0.00     0.032 A 
HETATM   24  C   UNK N   1      24.501  18.648   4.583  0.00  0.00     0.076 A 
HETATM   25  C   UNK N   1      23.105  20.319   2.869  0.00  0.00     0.002 A 
HETATM   26  C   UNK N   1      22.418  19.327   3.609  0.00  0.00     0.002 A 
HETATM   27  C   UNK N   1      23.123  18.472   4.482  0.00  0.00     0.032 A 
HETATM   28  H   UNK N   1      25.169  17.298   6.045  0.00  0.00     0.184 HD
ATOM     29  HN  UNK N   1      28.058  19.572   6.285  1.00  0.00     0.186 HD
ENDBRANCH  16  17
BRANCH  16  30
HETATM   30  O   UNK N   1      27.038  16.909   7.468  0.00  0.00    -0.345 OA
HETATM   31  H   UNK N   1      27.025  16.437   8.277  0.00  0.00     0.219 HD
ENDBRANCH  16  30
ENDBRANCH  14  16
ENDBRANCH   9  10
ENDBRANCH   6   9
BRANCH   1  32
HETATM   32  C   UNK N   1      31.031  13.688   4.992  0.00  0.00     0.066 C 
BRANCH  32  33
HETATM   33  C   UNK N   1      31.108  12.936   3.685  0.00  0.00    -0.056 A 
HETATM   34  C   UNK N   1      32.007  13.295   2.664  0.00  0.00     0.007 A 
HETATM   35  C   UNK N   1      32.028  12.595   1.458  0.00  0.00     0.001 A 
HETATM   36  C   UNK N   1      31.146  11.531   1.257  0.00  0.00     0.000 A 
HETATM   37  C   UNK N   1      30.249  11.167   2.267  0.00  0.00     0.001 A 
HETATM   38  C   UNK N   1      30.230  11.868   3.476  0.00  0.00     0.007 A 
ENDBRANCH  32  33
ENDBRANCH   1  32
BRANCH   3  39
HETATM   39  O   UNK N   1      32.622  11.402   6.555  0.00  0.00    -0.391 OA
HETATM   40  H   UNK N   1      32.540  10.547   7.007  0.00  0.00     0.210 HD
ENDBRANCH   3  39
BRANCH   7  41
HETATM   41  C   UNK N   1      33.719  14.187   8.487  0.00  0.00     0.166 C 
BRANCH  41  42
HETATM   42  C   UNK N   1      34.450  14.624   9.715  0.00  0.00    -0.039 A 
HETATM   43  C   UNK N   1      35.049  15.887   9.820  0.00  0.00     0.009 A 
HETATM   44  C   UNK N   1      35.823  16.198  10.949  0.00  0.00     0.002 A 
HETATM   45  C   UNK N   1      35.978  15.256  11.978  0.00  0.00     0.016 A 
HETATM   46  C   UNK N   1      35.365  14.001  11.860  0.00  0.00     0.016 A 
HETATM   47  C   UNK N   1      34.617  13.704  10.722  0.00  0.00     0.024 A 
BRANCH  46  48
HETATM   48  C   UNK N   1      35.303  13.039  12.962  0.00  0.00     0.165 C 
BRANCH  48  49
HETATM   49  N   UNK N   1      35.206  13.532  14.149  0.00  0.00    -0.170 N 
HETATM   50  C   UNK N   1      34.968  12.844  15.350  0.00  0.00     0.685 A 
HETATM   51  N   UNK N   1      35.164  13.458  16.542  0.00  0.00    -0.189 N 
HETATM   52  N   UNK N   1      34.844  11.496  15.453  0.00  0.00    -0.189 N 
HETATM   53  C   UNK N   1      35.149  12.457  17.421  0.00  0.00     0.076 A 
ATOM     54  HN  UNK N   1      35.292  14.453  16.723  1.00  0.00     0.184 HD
HETATM   55  C   UNK N   1      35.366  12.530  18.790  0.00  0.00     0.032 A 
HETATM   56  C   UNK N   1      34.953  11.277  16.772  0.00  0.00     0.076 A 
HETATM   57  C   UNK N   1      35.367  11.320  19.506  0.00  0.00     0.002 A 
HETATM   58  C   UNK N   1      35.153  10.091  18.836  0.00  0.00     0.002 A 
HETATM   59  C   UNK N   1      34.945  10.062  17.443  0.00  0.00     0.032 A 
HETATM   60  H   UNK N   1      34.709  10.839  14.732  0.00  0.00     0.184 HD
ATOM     61  HN  UNK N   1      35.316  14.543  14.224  1.00  0.00     0.186 HD
ENDBRANCH  48  49
BRANCH  48  62
HETATM   62  O   UNK N   1      35.512  11.722  12.754  0.00  0.00    -0.345 OA
HETATM   63  H   UNK N   1      35.256  11.077  13.383  0.00  0.00     0.219 HD
ENDBRANCH  48  62
ENDBRANCH  46  48
ENDBRANCH  41  42
ENDBRANCH   7  41
BRANCH   4  64
HETATM   64  O   UNK N   1      35.130  13.123   4.597  0.00  0.00    -0.391 OA
HETATM   65  H   UNK N   1      35.429  13.321   3.695  0.00  0.00     0.210 HD
ENDBRANCH   4  64
BRANCH   2  66
HETATM   66  C   UNK N   1      36.729  13.000   6.958  0.00  0.00     0.066 C 
BRANCH  66  67
HETATM   67  C   UNK N   1      37.349  12.834   8.307  0.00  0.00    -0.056 A 
HETATM   68  C   UNK N   1      38.106  13.866   8.874  0.00  0.00     0.007 A 
HETATM   69  C   UNK N   1      38.687  13.694  10.135  0.00  0.00     0.001 A 
HETATM   70  C   UNK N   1      38.518  12.489  10.826  0.00  0.00     0.000 A 
HETATM   71  C   UNK N   1      37.769  11.456  10.256  0.00  0.00     0.001 A 
HETATM   72  C   UNK N   1      37.184  11.629   8.999  0.00  0.00     0.007 A 
ENDBRANCH  66  67
ENDBRANCH   2  66
TORSDOF 16
ENDMDL
MODEL 9
REMARK VINA RESULT:      -8.6      2.335      8.022
REMARK  16 active torsions:
REMARK  status: ('A' for Active; 'I' for Inactive)
REMARK    1  A    between atoms: C_31  and  C_27 
REMARK    2  A    between atoms: C_41  and  C_27 
REMARK    3  A    between atoms: C_32  and  C_28 
REMARK    4  A    between atoms: C_42  and  C_28 
REMARK    5  A    between atoms: C_33  and  C_29 
REMARK    6  A    between atoms: N_60  and  C_29 
REMARK    7  A    between atoms: C_34  and  C_30 
REMARK    8  A    between atoms: N_61  and  C_30 
REMARK    9  A    between atoms: C_45  and  C_35 
REMARK   10  A    between atoms: C_46  and  C_36 
REMARK   11  A    between atoms: C_43  and  O_62 
REMARK   12  A    between atoms: C_44  and  O_63 
REMARK   13  A    between atoms: N_56  and  C_45 
REMARK   14  A    between atoms: O_64  and  C_45 
REMARK   15  A    between atoms: N_58  and  C_46 
REMARK   16  A    between atoms: O_65  and  C_46 
REMARK       I    between atoms: N_56  and  C_47 
REMARK       I    between atoms: N_58  and  C_48 
ROOT
HETATM    1  C   UNK N   1      30.814  11.628   2.102  0.00  0.00     0.124 C 
HETATM    2  C   UNK N   1      27.605  11.922   2.071  0.00  0.00     0.124 C 
HETATM    3  C   UNK N   1      29.804  11.313   0.903  0.00  0.00     0.172 C 
HETATM    4  C   UNK N   1      28.359  10.871   1.245  0.00  0.00     0.172 C 
HETATM    5  C   UNK N   1      29.124  11.368   3.880  0.00  0.00     0.322 C 
HETATM    6  N   UNK N   1      30.410  11.126   3.451  0.00  0.00    -0.322 N 
HETATM    7  N   UNK N   1      28.355  12.305   3.257  0.00  0.00    -0.322 N 
HETATM    8  O   UNK N   1      28.783  11.003   5.000  0.00  0.00    -0.247 OA
ENDROOT
BRANCH   6   9
HETATM    9  C   UNK N   1      31.349  11.045   4.585  0.00  0.00     0.166 C 
BRANCH   9  10
HETATM   10  C   UNK N   1      32.166  12.189   5.068  0.00  0.00    -0.039 A 
HETATM   11  C   UNK N   1      33.560  12.152   5.052  0.00  0.00     0.009 A 
HETATM   12  C   UNK N   1      34.289  13.244   5.531  0.00  0.00     0.002 A 
HETATM   13  C   UNK N   1      33.622  14.368   6.036  0.00  0.00     0.016 A 
HETATM   14  C   UNK N   1      32.227  14.362   6.165  0.00  0.00     0.016 A 
HETATM   15  C   UNK N   1      31.504  13.273   5.661  0.00  0.00     0.024 A 
BRANCH  14  16
HETATM   16  C   UNK N   1      31.496  15.601   6.496  0.00  0.00     0.165 C 
BRANCH  16  17
HETATM   17  N   UNK N   1      31.098  16.468   5.623  0.00  0.00    -0.170 N 
HETATM   18  C   UNK N   1      29.850  17.147   5.574  0.00  0.00     0.685 A 
HETATM   19  N   UNK N   1      29.450  17.791   4.446  0.00  0.00    -0.189 N 
HETATM   20  N   UNK N   1      29.269  17.653   6.697  0.00  0.00    -0.189 N 
HETATM   21  C   UNK N   1      28.575  18.707   4.884  0.00  0.00     0.076 A 
ATOM     22  HN  UNK N   1      29.749  17.617   3.486  1.00  0.00     0.184 HD
HETATM   23  C   UNK N   1      27.926  19.693   4.142  0.00  0.00     0.032 A 
HETATM   24  C   UNK N   1      28.472  18.631   6.237  0.00  0.00     0.076 A 
HETATM   25  C   UNK N   1      27.150  20.632   4.848  0.00  0.00     0.002 A 
HETATM   26  C   UNK N   1      27.053  20.563   6.259  0.00  0.00     0.002 A 
HETATM   27  C   UNK N   1      27.722  19.547   6.972  0.00  0.00     0.032 A 
HETATM   28  H   UNK N   1      29.403  17.368   7.630  0.00  0.00     0.184 HD
ATOM     29  HN  UNK N   1      31.760  16.694   4.881  1.00  0.00     0.186 HD
ENDBRANCH  16  17
BRANCH  16  30
HETATM   30  O   UNK N   1      31.302  15.875   7.799  0.00  0.00    -0.345 OA
HETATM   31  H   UNK N   1      30.587  15.676   8.370  0.00  0.00     0.219 HD
ENDBRANCH  16  30
ENDBRANCH  14  16
ENDBRANCH   9  10
ENDBRANCH   6   9
BRANCH   1  32
HETATM   32  C   UNK N   1      32.231  11.204   1.671  0.00  0.00     0.066 C 
BRANCH  32  33
HETATM   33  C   UNK N   1      33.309  12.257   1.739  0.00  0.00    -0.056 A 
HETATM   34  C   UNK N   1      33.026  13.603   2.038  0.00  0.00     0.007 A 
HETATM   35  C   UNK N   1      34.046  14.555   2.063  0.00  0.00     0.001 A 
HETATM   36  C   UNK N   1      35.359  14.173   1.782  0.00  0.00     0.000 A 
HETATM   37  C   UNK N   1      35.650  12.837   1.485  0.00  0.00     0.001 A 
HETATM   38  C   UNK N   1      34.628  11.884   1.462  0.00  0.00     0.007 A 
ENDBRANCH  32  33
ENDBRANCH   1  32
BRANCH   3  39
HETATM   39  O   UNK N   1      29.767  12.409   0.033  0.00  0.00    -0.391 OA
HETATM   40  H   UNK N   1      29.403  13.179  -0.430  0.00  0.00     0.210 HD
ENDBRANCH   3  39
BRANCH   7  41
HETATM   41  C   UNK N   1      28.891  13.661   3.252  0.00  0.00     0.166 C 
BRANCH  41  42
HETATM   42  C   UNK N   1      27.804  14.634   3.577  0.00  0.00    -0.039 A 
HETATM   43  C   UNK N   1      27.263  15.500   2.617  0.00  0.00     0.009 A 
HETATM   44  C   UNK N   1      26.329  16.474   3.006  0.00  0.00     0.002 A 
HETATM   45  C   UNK N   1      25.924  16.564   4.347  0.00  0.00     0.016 A 
HETATM   46  C   UNK N   1      26.470  15.685   5.292  0.00  0.00     0.016 A 
HETATM   47  C   UNK N   1      27.410  14.738   4.889  0.00  0.00     0.024 A 
BRANCH  46  48
HETATM   48  C   UNK N   1      25.962  15.572   6.661  0.00  0.00     0.165 C 
BRANCH  48  49
HETATM   49  N   UNK N   1      24.782  15.071   6.795  0.00  0.00    -0.170 N 
HETATM   50  C   UNK N   1      24.355  14.113   7.729  0.00  0.00     0.685 A 
HETATM   51  N   UNK N   1      23.033  13.889   7.925  0.00  0.00    -0.189 N 
HETATM   52  N   UNK N   1      25.140  13.584   8.702  0.00  0.00    -0.189 N 
HETATM   53  C   UNK N   1      22.995  13.183   9.054  0.00  0.00     0.076 A 
ATOM     54  HN  UNK N   1      22.251  14.190   7.343  1.00  0.00     0.184 HD
HETATM   55  C   UNK N   1      21.870  12.740   9.738  0.00  0.00     0.032 A 
HETATM   56  C   UNK N   1      24.258  12.993   9.522  0.00  0.00     0.076 A 
HETATM   57  C   UNK N   1      22.080  12.066  10.953  0.00  0.00     0.002 A 
HETATM   58  C   UNK N   1      23.395  11.857  11.438  0.00  0.00     0.002 A 
HETATM   59  C   UNK N   1      24.508  12.330  10.716  0.00  0.00     0.032 A 
HETATM   60  H   UNK N   1      26.120  13.626   8.785  0.00  0.00     0.184 HD
ATOM     61  HN  UNK N   1      24.074  15.410   6.145  1.00  0.00     0.186 HD
ENDBRANCH  48  49
BRANCH  48  62
HETATM   62  O   UNK N   1      26.623  16.123   7.700  0.00  0.00    -0.345 OA
HETATM   63  H   UNK N   1      26.713  15.678   8.519  0.00  0.00     0.219 HD
ENDBRANCH  48  62
ENDBRANCH  46  48
ENDBRANCH  41  42
ENDBRANCH   7  41
BRANCH   4  64
HETATM   64  O   UNK N   1      28.388   9.637   1.906  0.00  0.00    -0.391 OA
HETATM   65  H   UNK N   1      28.051   8.828   2.322  0.00  0.00     0.210 HD
ENDBRANCH   4  64
BRANCH   2  66
HETATM   66  C   UNK N   1      26.222  11.404   2.485  0.00  0.00     0.066 C 
BRANCH  66  67
HETATM   67  C   UNK N   1      25.192  12.486   2.488  0.00  0.00    -0.056 A 
HETATM   68  C   UNK N   1      24.531  12.835   3.672  0.00  0.00     0.007 A 
HETATM   69  C   UNK N   1      23.563  13.845   3.658  0.00  0.00     0.001 A 
HETATM   70  C   UNK N   1      23.250  14.501   2.462  0.00  0.00     0.000 A 
HETATM   71  C   UNK N   1      23.905  14.146   1.279  0.00  0.00     0.001 A 
HETATM   72  C   UNK N   1      24.875  13.141   1.293  0.00  0.00     0.007 A 
ENDBRANCH  66  67
ENDBRANCH   2  66
TORSDOF 16
ENDMDL
