REMARK  3 active torsions:
REMARK  status: ('A' for Active; 'I' for Inactive)
REMARK    1  A    between atoms: C_2  and  O_3 
REMARK    2  A    between atoms: C_2  and  C_4 
REMARK    3  A    between atoms: C_4  and  N_5 
ROOT
HETATM    1  C   UNK N   1       0.608   0.583   0.000  0.00  0.00     0.260 C 
ENDROOT
BRANCH   1   2
HETATM    2  C   UNK N   1       1.358  -0.741  -0.000  0.00  0.00     0.139 C 
HETATM    3  C   UNK N   1       2.871  -0.817   0.000  0.00  0.00     0.041 C 
BRANCH   2   4
HETATM    4  O   UNK N   1       0.642  -1.937   0.000  0.00  0.00    -0.394 OA
HETATM    5  H   UNK N   1      -0.328  -1.921   0.000  0.00  0.00     0.210 HD
ENDBRANCH   2   4
ENDBRANCH   1   2
BRANCH   1   6
HETATM    6  N   UNK N   1      -0.828   0.355  -0.000  0.00  0.00    -0.077 N 
HETATM    7  H   UNK N   1      -1.471   1.147  -0.000  0.00  0.00     0.274 HD
HETATM    8  H   UNK N   1      -1.194  -0.598  -0.000  0.00  0.00     0.274 HD
HETATM    9  H   UNK N   1      -1.836   0.195  -0.000  0.00  0.00     0.274 HD
ENDBRANCH   1   6
TORSDOF 3
