REMARK  5 active torsions:
REMARK  status: ('A' for Active; 'I' for Inactive)
REMARK    1  A    between atoms: C_4  and  O_9 
REMARK    2  A    between atoms: C_5  and  O_10 
REMARK    3  A    between atoms: C_7  and  C_6 
REMARK    4  A    between atoms: O_12  and  C_6 
REMARK    5  A    between atoms: C_7  and  O_13 
ROOT
HETATM    1  C   UNK N   1       1.763  -0.152   0.684  0.00  0.00     0.062 C 
HETATM    2  C   UNK N   1      -0.236  -0.131  -0.856  0.00  0.00     0.088 C 
HETATM    3  C   UNK N   1       1.873   1.183   0.547  0.00  0.00     0.124 C 
HETATM    4  C   UNK N   1      -0.530   1.260  -0.304  0.00  0.00     0.157 C 
HETATM    5  C   UNK N   1       0.793   2.023  -0.103  0.00  0.00     0.208 C 
HETATM    6  C   UNK N   1       0.595  -0.953   0.149  0.00  0.00     0.165 C 
HETATM    7  F   UNK N   1       3.023   1.786   0.946  0.00  0.00    -0.208 F 
ENDROOT
BRANCH   6   8
HETATM    8  C   UNK N   1       1.109  -2.192  -0.537  0.00  0.00     0.180 C 
HETATM    9  O   UNK N   1       1.871  -2.100  -1.489  0.00  0.00    -0.648 OA
BRANCH   8  10
HETATM   10  O   UNK N   1       0.737  -3.413  -0.104  0.00  0.00    -0.774 OA
HETATM   11  H   UNK N   1      -0.128  -3.613   0.198  0.00  0.00     0.167 HD
ENDBRANCH   8  10
ENDBRANCH   6   8
BRANCH   6  12
HETATM   12  O   UNK N   1      -0.213  -1.333   1.224  0.00  0.00    -0.375 OA
HETATM   13  H   UNK N   1      -0.721  -0.979   1.970  0.00  0.00     0.211 HD
ENDBRANCH   6  12
BRANCH   4  14
HETATM   14  O   UNK N   1      -1.215   1.143   0.910  0.00  0.00    -0.392 OA
HETATM   15  H   UNK N   1      -1.523   1.514   1.752  0.00  0.00     0.210 HD
ENDBRANCH   4  14
BRANCH   5  16
HETATM   16  O   UNK N   1       0.549   3.159   0.674  0.00  0.00    -0.386 OA
HETATM   17  H   UNK N   1       1.148   3.700   1.213  0.00  0.00     0.210 HD
ENDBRANCH   5  16
TORSDOF 5
