MODEL 1
REMARK VINA RESULT:      -7.4      0.000      0.000
REMARK  24 active torsions:
REMARK  status: ('A' for Active; 'I' for Inactive)
REMARK    1  A    between atoms: C_5  and  C_1 
REMARK    2  A    between atoms: O_25  and  C_1 
REMARK    3  A    between atoms: C_6  and  C_2 
REMARK    4  A    between atoms: O_26  and  C_2 
REMARK    5  A    between atoms: C_7  and  C_3 
REMARK    6  A    between atoms: O_27  and  C_3 
REMARK    7  A    between atoms: C_8  and  C_4 
REMARK    8  A    between atoms: O_28  and  C_4 
REMARK    9  A    between atoms: C_9  and  O_29 
REMARK   10  A    between atoms: C_10  and  O_30 
REMARK   11  A    between atoms: C_11  and  O_31 
REMARK   12  A    between atoms: C_12  and  O_32 
REMARK   13  A    between atoms: C_13  and  O_33 
REMARK   14  A    between atoms: C_14  and  O_34 
REMARK   15  A    between atoms: C_15  and  O_35 
REMARK   16  A    between atoms: C_16  and  O_36 
REMARK   17  A    between atoms: C_17  and  O_37 
REMARK   18  A    between atoms: C_18  and  O_43 
REMARK   19  A    between atoms: C_19  and  O_44 
REMARK   20  A    between atoms: C_20  and  O_45 
REMARK   21  A    between atoms: C_21  and  O_38 
REMARK   22  A    between atoms: C_22  and  O_44 
REMARK   23  A    between atoms: C_23  and  O_43 
REMARK   24  A    between atoms: C_24  and  O_45 
ROOT
HETATM    1  O   UNK N   1      27.898  18.515   4.909  0.00  0.00    -0.348 OA
ENDROOT
BRANCH   1   2
HETATM    2  C   UNK N   1      28.982  18.319   5.851  0.00  0.00     0.187 C 
HETATM    3  C   UNK N   1      29.720  16.955   5.719  0.00  0.00     0.180 C 
HETATM    4  O   UNK N   1      30.035  16.366   6.967  0.00  0.00    -0.348 OA
HETATM    5  C   UNK N   1      30.805  17.196   7.765  0.00  0.00     0.292 C 
HETATM    6  C   UNK N   1      29.939  18.413   8.221  0.00  0.00     0.204 C 
HETATM    7  C   UNK N   1      28.648  18.574   7.337  0.00  0.00     0.183 C 
BRANCH   3   8
HETATM    8  C   UNK N   1      30.848  16.944   4.672  0.00  0.00     0.198 C 
BRANCH   8   9
HETATM    9  O   UNK N   1      31.057  18.190   4.079  0.00  0.00    -0.398 OA
HETATM   10  H   UNK N   1      30.445  18.937   3.992  0.00  0.00     0.209 HD
ENDBRANCH   8   9
ENDBRANCH   3   8
BRANCH   5  11
HETATM   11  O   UNK N   1      31.409  16.474   8.849  0.00  0.00    -0.348 OA
BRANCH  11  12
HETATM   12  C   UNK N   1      32.798  16.124   8.727  0.00  0.00     0.187 C 
HETATM   13  C   UNK N   1      33.867  17.244   9.076  0.00  0.00     0.180 C 
HETATM   14  O   UNK N   1      35.227  16.805   9.135  0.00  0.00    -0.349 OA
HETATM   15  C   UNK N   1      35.440  15.405   9.068  0.00  0.00     0.288 C 
HETATM   16  C   UNK N   1      34.518  14.686  10.044  0.00  0.00     0.204 C 
HETATM   17  C   UNK N   1      33.032  14.914   9.676  0.00  0.00     0.183 C 
BRANCH  13  18
HETATM   18  C   UNK N   1      33.912  18.412   8.101  0.00  0.00     0.198 C 
BRANCH  18  19
HETATM   19  O   UNK N   1      35.065  19.181   8.315  0.00  0.00    -0.398 OA
HETATM   20  H   UNK N   1      35.874  19.361   7.811  0.00  0.00     0.209 HD
ENDBRANCH  18  19
ENDBRANCH  13  18
BRANCH  15  21
HETATM   21  O   UNK N   1      35.305  14.937   7.759  0.00  0.00    -0.369 OA
HETATM   22  H   UNK N   1      34.736  14.354   7.229  0.00  0.00     0.212 HD
ENDBRANCH  15  21
BRANCH  16  23
HETATM   23  O   UNK N   1      34.787  15.211  11.315  0.00  0.00    -0.388 OA
HETATM   24  H   UNK N   1      35.035  16.034  11.765  0.00  0.00     0.210 HD
ENDBRANCH  16  23
BRANCH  17  25
HETATM   25  O   UNK N   1      32.286  15.056  10.853  0.00  0.00    -0.390 OA
HETATM   26  H   UNK N   1      31.524  15.641  10.993  0.00  0.00     0.210 HD
ENDBRANCH  17  25
ENDBRANCH  11  12
ENDBRANCH   5  11
BRANCH   6  27
HETATM   27  O   UNK N   1      29.556  18.294   9.558  0.00  0.00    -0.388 OA
HETATM   28  H   UNK N   1      29.031  17.821  10.223  0.00  0.00     0.210 HD
ENDBRANCH   6  27
BRANCH   7  29
HETATM   29  O   UNK N   1      28.100  19.846   7.516  0.00  0.00    -0.390 OA
HETATM   30  H   UNK N   1      27.431  20.033   8.193  0.00  0.00     0.210 HD
ENDBRANCH   7  29
ENDBRANCH   1   2
BRANCH   1  31
HETATM   31  C   UNK N   1      26.579  18.528   5.477  0.00  0.00     0.292 C 
HETATM   32  C   UNK N   1      25.748  19.778   5.074  0.00  0.00     0.204 C 
HETATM   33  C   UNK N   1      25.269  19.698   3.605  0.00  0.00     0.183 C 
HETATM   34  C   UNK N   1      24.599  18.328   3.315  0.00  0.00     0.187 C 
HETATM   35  C   UNK N   1      25.671  17.293   3.708  0.00  0.00     0.180 C 
HETATM   36  O   UNK N   1      25.818  17.377   5.115  0.00  0.00    -0.348 OA
BRANCH  32  37
HETATM   37  O   UNK N   1      26.476  20.951   5.296  0.00  0.00    -0.388 OA
HETATM   38  H   UNK N   1      26.827  21.209   6.162  0.00  0.00     0.210 HD
ENDBRANCH  32  37
BRANCH  33  39
HETATM   39  O   UNK N   1      24.380  20.739   3.325  0.00  0.00    -0.390 OA
HETATM   40  H   UNK N   1      23.799  21.166   3.974  0.00  0.00     0.210 HD
ENDBRANCH  33  39
BRANCH  34  41
HETATM   41  O   UNK N   1      23.396  18.197   4.091  0.00  0.00    -0.348 OA
BRANCH  41  42
HETATM   42  C   UNK N   1      22.234  17.975   3.293  0.00  0.00     0.292 C 
HETATM   43  C   UNK N   1      21.122  18.979   3.650  0.00  0.00     0.204 C 
HETATM   44  C   UNK N   1      19.889  18.701   2.756  0.00  0.00     0.183 C 
HETATM   45  C   UNK N   1      19.470  17.226   2.891  0.00  0.00     0.180 C 
HETATM   46  C   UNK N   1      20.701  16.336   2.623  0.00  0.00     0.179 C 
HETATM   47  O   UNK N   1      21.743  16.658   3.537  0.00  0.00    -0.348 OA
BRANCH  43  48
HETATM   48  O   UNK N   1      21.567  20.289   3.459  0.00  0.00    -0.388 OA
HETATM   49  H   UNK N   1      20.937  20.998   3.256  0.00  0.00     0.210 HD
ENDBRANCH  43  48
BRANCH  44  50
HETATM   50  O   UNK N   1      20.202  18.973   1.418  0.00  0.00    -0.390 OA
HETATM   51  H   UNK N   1      20.149  19.099   0.458  0.00  0.00     0.210 HD
ENDBRANCH  44  50
BRANCH  45  52
HETATM   52  O   UNK N   1      18.980  16.998   4.181  0.00  0.00    -0.390 OA
HETATM   53  H   UNK N   1      18.446  16.712   4.938  0.00  0.00     0.210 HD
ENDBRANCH  45  52
BRANCH  46  54
HETATM   54  C   UNK N   1      20.374  14.844   2.715  0.00  0.00     0.198 C 
BRANCH  54  55
HETATM   55  O   UNK N   1      19.018  14.598   2.499  0.00  0.00    -0.398 OA
HETATM   56  H   UNK N   1      18.109  14.307   2.673  0.00  0.00     0.209 HD
ENDBRANCH  54  55
ENDBRANCH  46  54
ENDBRANCH  41  42
ENDBRANCH  34  41
BRANCH  35  57
HETATM   57  C   UNK N   1      25.309  15.878   3.249  0.00  0.00     0.198 C 
BRANCH  57  58
HETATM   58  O   UNK N   1      24.327  15.289   4.039  0.00  0.00    -0.398 OA
HETATM   59  H   UNK N   1      24.554  14.909   4.902  0.00  0.00     0.209 HD
ENDBRANCH  57  58
ENDBRANCH  35  57
ENDBRANCH   1  31
TORSDOF 24
ENDMDL
MODEL 2
REMARK VINA RESULT:      -7.2      3.123      6.637
REMARK  24 active torsions:
REMARK  status: ('A' for Active; 'I' for Inactive)
REMARK    1  A    between atoms: C_5  and  C_1 
REMARK    2  A    between atoms: O_25  and  C_1 
REMARK    3  A    between atoms: C_6  and  C_2 
REMARK    4  A    between atoms: O_26  and  C_2 
REMARK    5  A    between atoms: C_7  and  C_3 
REMARK    6  A    between atoms: O_27  and  C_3 
REMARK    7  A    between atoms: C_8  and  C_4 
REMARK    8  A    between atoms: O_28  and  C_4 
REMARK    9  A    between atoms: C_9  and  O_29 
REMARK   10  A    between atoms: C_10  and  O_30 
REMARK   11  A    between atoms: C_11  and  O_31 
REMARK   12  A    between atoms: C_12  and  O_32 
REMARK   13  A    between atoms: C_13  and  O_33 
REMARK   14  A    between atoms: C_14  and  O_34 
REMARK   15  A    between atoms: C_15  and  O_35 
REMARK   16  A    between atoms: C_16  and  O_36 
REMARK   17  A    between atoms: C_17  and  O_37 
REMARK   18  A    between atoms: C_18  and  O_43 
REMARK   19  A    between atoms: C_19  and  O_44 
REMARK   20  A    between atoms: C_20  and  O_45 
REMARK   21  A    between atoms: C_21  and  O_38 
REMARK   22  A    between atoms: C_22  and  O_44 
REMARK   23  A    between atoms: C_23  and  O_43 
REMARK   24  A    between atoms: C_24  and  O_45 
ROOT
HETATM    1  O   UNK N   1      32.244  15.103   7.465  0.00  0.00    -0.348 OA
ENDROOT
BRANCH   1   2
HETATM    2  C   UNK N   1      33.546  15.241   8.087  0.00  0.00     0.187 C 
HETATM    3  C   UNK N   1      34.291  13.899   8.343  0.00  0.00     0.180 C 
HETATM    4  O   UNK N   1      34.952  13.854   9.594  0.00  0.00    -0.348 OA
HETATM    5  C   UNK N   1      35.861  14.887   9.749  0.00  0.00     0.292 C 
HETATM    6  C   UNK N   1      35.086  16.238   9.869  0.00  0.00     0.204 C 
HETATM    7  C   UNK N   1      33.602  16.105   9.366  0.00  0.00     0.183 C 
BRANCH   3   8
HETATM    8  C   UNK N   1      35.102  13.386   7.140  0.00  0.00     0.198 C 
BRANCH   8   9
HETATM    9  O   UNK N   1      34.474  13.619   5.916  0.00  0.00    -0.398 OA
HETATM   10  H   UNK N   1      33.664  14.119   5.729  0.00  0.00     0.209 HD
ENDBRANCH   8   9
ENDBRANCH   3   8
BRANCH   5  11
HETATM   11  O   UNK N   1      36.764  14.636  10.836  0.00  0.00    -0.348 OA
BRANCH  11  12
HETATM   12  C   UNK N   1      36.516  13.482  11.658  0.00  0.00     0.187 C 
HETATM   13  C   UNK N   1      37.710  12.455  11.855  0.00  0.00     0.180 C 
HETATM   14  O   UNK N   1      37.491  11.432  12.830  0.00  0.00    -0.349 OA
HETATM   15  C   UNK N   1      36.331  11.566  13.634  0.00  0.00     0.288 C 
HETATM   16  C   UNK N   1      36.239  12.980  14.194  0.00  0.00     0.204 C 
HETATM   17  C   UNK N   1      36.098  14.019  13.056  0.00  0.00     0.183 C 
BRANCH  13  18
HETATM   18  C   UNK N   1      38.100  11.678  10.606  0.00  0.00     0.198 C 
BRANCH  18  19
HETATM   19  O   UNK N   1      37.033  11.653   9.697  0.00  0.00    -0.398 OA
HETATM   20  H   UNK N   1      36.745  12.215   8.960  0.00  0.00     0.209 HD
ENDBRANCH  18  19
ENDBRANCH  13  18
BRANCH  15  21
HETATM   21  O   UNK N   1      35.184  11.193  12.929  0.00  0.00    -0.369 OA
HETATM   22  H   UNK N   1      34.682  10.398  12.687  0.00  0.00     0.212 HD
ENDBRANCH  15  21
BRANCH  16  23
HETATM   23  O   UNK N   1      37.420  13.206  14.912  0.00  0.00    -0.388 OA
HETATM   24  H   UNK N   1      38.059  12.763  15.493  0.00  0.00     0.210 HD
ENDBRANCH  16  23
BRANCH  17  25
HETATM   25  O   UNK N   1      36.836  15.163  13.388  0.00  0.00    -0.390 OA
HETATM   26  H   UNK N   1      37.553  15.564  12.872  0.00  0.00     0.210 HD
ENDBRANCH  17  25
ENDBRANCH  11  12
ENDBRANCH   5  11
BRANCH   6  27
HETATM   27  O   UNK N   1      35.074  16.703  11.185  0.00  0.00    -0.388 OA
HETATM   28  H   UNK N   1      35.501  17.243  11.868  0.00  0.00     0.210 HD
ENDBRANCH   6  27
BRANCH   7  29
HETATM   29  O   UNK N   1      33.057  17.371   9.140  0.00  0.00    -0.390 OA
HETATM   30  H   UNK N   1      32.396  17.765   9.730  0.00  0.00     0.210 HD
ENDBRANCH   7  29
ENDBRANCH   1   2
BRANCH   1  31
HETATM   31  C   UNK N   1      31.933  16.076   6.456  0.00  0.00     0.292 C 
HETATM   32  C   UNK N   1      31.114  15.493   5.271  0.00  0.00     0.204 C 
HETATM   33  C   UNK N   1      29.643  15.227   5.668  0.00  0.00     0.183 C 
HETATM   34  C   UNK N   1      29.023  16.469   6.362  0.00  0.00     0.187 C 
HETATM   35  C   UNK N   1      29.974  16.757   7.540  0.00  0.00     0.180 C 
HETATM   36  O   UNK N   1      31.201  17.185   6.974  0.00  0.00    -0.348 OA
BRANCH  32  37
HETATM   37  O   UNK N   1      31.713  14.330   4.777  0.00  0.00    -0.388 OA
HETATM   38  H   UNK N   1      31.340  13.798   4.057  0.00  0.00     0.210 HD
ENDBRANCH  32  37
BRANCH  33  39
HETATM   39  O   UNK N   1      28.890  14.876   4.544  0.00  0.00    -0.390 OA
HETATM   40  H   UNK N   1      28.128  14.276   4.549  0.00  0.00     0.210 HD
ENDBRANCH  33  39
BRANCH  34  41
HETATM   41  O   UNK N   1      28.950  17.564   5.433  0.00  0.00    -0.348 OA
BRANCH  41  42
HETATM   42  C   UNK N   1      27.638  18.114   5.313  0.00  0.00     0.292 C 
HETATM   43  C   UNK N   1      27.177  18.121   3.844  0.00  0.00     0.204 C 
HETATM   44  C   UNK N   1      25.751  18.719   3.768  0.00  0.00     0.183 C 
HETATM   45  C   UNK N   1      25.731  20.104   4.440  0.00  0.00     0.180 C 
HETATM   46  C   UNK N   1      26.325  19.974   5.857  0.00  0.00     0.179 C 
HETATM   47  O   UNK N   1      27.649  19.459   5.786  0.00  0.00    -0.348 OA
BRANCH  43  48
HETATM   48  O   UNK N   1      27.180  16.825   3.324  0.00  0.00    -0.388 OA
HETATM   49  H   UNK N   1      26.348  16.384   3.094  0.00  0.00     0.210 HD
ENDBRANCH  43  48
BRANCH  44  50
HETATM   50  O   UNK N   1      24.847  17.874   4.425  0.00  0.00    -0.390 OA
HETATM   51  H   UNK N   1      24.152  17.225   4.616  0.00  0.00     0.210 HD
ENDBRANCH  44  50
BRANCH  45  52
HETATM   52  O   UNK N   1      26.487  21.000   3.678  0.00  0.00    -0.390 OA
HETATM   53  H   UNK N   1      26.932  21.459   2.950  0.00  0.00     0.210 HD
ENDBRANCH  45  52
BRANCH  46  54
HETATM   54  C   UNK N   1      26.328  21.305   6.614  0.00  0.00     0.198 C 
BRANCH  54  55
HETATM   55  O   UNK N   1      25.960  21.141   7.950  0.00  0.00    -0.398 OA
HETATM   56  H   UNK N   1      25.574  20.734   8.742  0.00  0.00     0.209 HD
ENDBRANCH  54  55
ENDBRANCH  46  54
ENDBRANCH  41  42
ENDBRANCH  34  41
BRANCH  35  57
HETATM   57  C   UNK N   1      29.398  17.788   8.514  0.00  0.00     0.198 C 
BRANCH  57  58
HETATM   58  O   UNK N   1      30.307  18.171   9.495  0.00  0.00    -0.398 OA
HETATM   59  H   UNK N   1      30.915  18.910   9.339  0.00  0.00     0.209 HD
ENDBRANCH  57  58
ENDBRANCH  35  57
ENDBRANCH   1  31
TORSDOF 24
ENDMDL
MODEL 3
REMARK VINA RESULT:      -7.2      3.274     12.956
REMARK  24 active torsions:
REMARK  status: ('A' for Active; 'I' for Inactive)
REMARK    1  A    between atoms: C_5  and  C_1 
REMARK    2  A    between atoms: O_25  and  C_1 
REMARK    3  A    between atoms: C_6  and  C_2 
REMARK    4  A    between atoms: O_26  and  C_2 
REMARK    5  A    between atoms: C_7  and  C_3 
REMARK    6  A    between atoms: O_27  and  C_3 
REMARK    7  A    between atoms: C_8  and  C_4 
REMARK    8  A    between atoms: O_28  and  C_4 
REMARK    9  A    between atoms: C_9  and  O_29 
REMARK   10  A    between atoms: C_10  and  O_30 
REMARK   11  A    between atoms: C_11  and  O_31 
REMARK   12  A    between atoms: C_12  and  O_32 
REMARK   13  A    between atoms: C_13  and  O_33 
REMARK   14  A    between atoms: C_14  and  O_34 
REMARK   15  A    between atoms: C_15  and  O_35 
REMARK   16  A    between atoms: C_16  and  O_36 
REMARK   17  A    between atoms: C_17  and  O_37 
REMARK   18  A    between atoms: C_18  and  O_43 
REMARK   19  A    between atoms: C_19  and  O_44 
REMARK   20  A    between atoms: C_20  and  O_45 
REMARK   21  A    between atoms: C_21  and  O_38 
REMARK   22  A    between atoms: C_22  and  O_44 
REMARK   23  A    between atoms: C_23  and  O_43 
REMARK   24  A    between atoms: C_24  and  O_45 
ROOT
HETATM    1  O   UNK N   1      33.176  15.041   7.590  0.00  0.00    -0.348 OA
ENDROOT
BRANCH   1   2
HETATM    2  C   UNK N   1      32.068  15.670   6.898  0.00  0.00     0.187 C 
HETATM    3  C   UNK N   1      31.099  16.472   7.815  0.00  0.00     0.180 C 
HETATM    4  O   UNK N   1      29.735  16.296   7.478  0.00  0.00    -0.348 OA
HETATM    5  C   UNK N   1      29.466  16.638   6.164  0.00  0.00     0.292 C 
HETATM    6  C   UNK N   1      30.143  15.598   5.215  0.00  0.00     0.204 C 
HETATM    7  C   UNK N   1      31.244  14.759   5.962  0.00  0.00     0.183 C 
BRANCH   3   8
HETATM    8  C   UNK N   1      31.538  17.922   8.085  0.00  0.00     0.198 C 
BRANCH   8   9
HETATM    9  O   UNK N   1      32.895  18.036   8.389  0.00  0.00    -0.398 OA
HETATM   10  H   UNK N   1      33.319  18.219   9.243  0.00  0.00     0.209 HD
ENDBRANCH   8   9
ENDBRANCH   3   8
BRANCH   5  11
HETATM   11  O   UNK N   1      28.057  16.799   5.939  0.00  0.00    -0.348 OA
BRANCH  11  12
HETATM   12  C   UNK N   1      27.621  17.981   5.246  0.00  0.00     0.187 C 
HETATM   13  C   UNK N   1      26.095  18.056   4.814  0.00  0.00     0.180 C 
HETATM   14  O   UNK N   1      25.657  19.320   4.309  0.00  0.00    -0.349 OA
HETATM   15  C   UNK N   1      26.569  20.398   4.430  0.00  0.00     0.288 C 
HETATM   16  C   UNK N   1      27.122  20.461   5.849  0.00  0.00     0.204 C 
HETATM   17  C   UNK N   1      27.920  19.180   6.191  0.00  0.00     0.183 C 
BRANCH  13  18
HETATM   18  C   UNK N   1      25.690  17.076   3.723  0.00  0.00     0.198 C 
BRANCH  18  19
HETATM   19  O   UNK N   1      26.696  16.119   3.531  0.00  0.00    -0.398 OA
HETATM   20  H   UNK N   1      26.920  15.266   3.936  0.00  0.00     0.209 HD
ENDBRANCH  18  19
ENDBRANCH  13  18
BRANCH  15  21
HETATM   21  O   UNK N   1      27.576  20.318   3.466  0.00  0.00    -0.369 OA
HETATM   22  H   UNK N   1      28.448  20.695   3.263  0.00  0.00     0.212 HD
ENDBRANCH  15  21
BRANCH  16  23
HETATM   23  O   UNK N   1      26.021  20.588   6.706  0.00  0.00    -0.388 OA
HETATM   24  H   UNK N   1      25.108  20.914   6.734  0.00  0.00     0.210 HD
ENDBRANCH  16  23
BRANCH  17  25
HETATM   25  O   UNK N   1      27.675  18.831   7.525  0.00  0.00    -0.390 OA
HETATM   26  H   UNK N   1      27.611  19.433   8.283  0.00  0.00     0.210 HD
ENDBRANCH  17  25
ENDBRANCH  11  12
ENDBRANCH   5  11
BRANCH   6  27
HETATM   27  O   UNK N   1      29.205  14.723   4.667  0.00  0.00    -0.388 OA
HETATM   28  H   UNK N   1      28.796  13.843   4.682  0.00  0.00     0.210 HD
ENDBRANCH   6  27
BRANCH   7  29
HETATM   29  O   UNK N   1      32.068  14.118   5.034  0.00  0.00    -0.390 OA
HETATM   30  H   UNK N   1      31.860  14.088   4.088  0.00  0.00     0.210 HD
ENDBRANCH   7  29
ENDBRANCH   1   2
BRANCH   1  31
HETATM   31  C   UNK N   1      32.870  14.501   8.885  0.00  0.00     0.292 C 
HETATM   32  C   UNK N   1      33.340  13.030   9.063  0.00  0.00     0.204 C 
HETATM   33  C   UNK N   1      34.875  12.936   9.229  0.00  0.00     0.183 C 
HETATM   34  C   UNK N   1      35.379  13.934  10.306  0.00  0.00     0.187 C 
HETATM   35  C   UNK N   1      34.859  15.302   9.825  0.00  0.00     0.180 C 
HETATM   36  O   UNK N   1      33.446  15.263   9.944  0.00  0.00    -0.348 OA
BRANCH  32  37
HETATM   37  O   UNK N   1      32.905  12.237   7.997  0.00  0.00    -0.388 OA
HETATM   38  H   UNK N   1      32.796  12.568   7.092  0.00  0.00     0.210 HD
ENDBRANCH  32  37
BRANCH  33  39
HETATM   39  O   UNK N   1      35.250  11.632   9.566  0.00  0.00    -0.390 OA
HETATM   40  H   UNK N   1      34.634  10.908   9.760  0.00  0.00     0.210 HD
ENDBRANCH  33  39
BRANCH  34  41
HETATM   41  O   UNK N   1      34.856  13.568  11.594  0.00  0.00    -0.348 OA
BRANCH  41  42
HETATM   42  C   UNK N   1      35.874  13.348  12.572  0.00  0.00     0.292 C 
HETATM   43  C   UNK N   1      35.662  12.004  13.293  0.00  0.00     0.204 C 
HETATM   44  C   UNK N   1      36.790  11.809  14.334  0.00  0.00     0.183 C 
HETATM   45  C   UNK N   1      36.845  13.026  15.276  0.00  0.00     0.180 C 
HETATM   46  C   UNK N   1      36.939  14.307  14.422  0.00  0.00     0.179 C 
HETATM   47  O   UNK N   1      35.824  14.390  13.543  0.00  0.00    -0.348 OA
BRANCH  43  48
HETATM   48  O   UNK N   1      35.670  10.950  12.376  0.00  0.00    -0.388 OA
HETATM   49  H   UNK N   1      35.301  11.067  11.487  0.00  0.00     0.210 HD
ENDBRANCH  43  48
BRANCH  44  50
HETATM   50  O   UNK N   1      38.022  11.675  13.680  0.00  0.00    -0.390 OA
HETATM   51  H   UNK N   1      38.793  11.315  13.216  0.00  0.00     0.210 HD
ENDBRANCH  44  50
BRANCH  45  52
HETATM   52  O   UNK N   1      35.691  13.054  16.066  0.00  0.00    -0.390 OA
HETATM   53  H   UNK N   1      34.963  12.818  16.659  0.00  0.00     0.210 HD
ENDBRANCH  45  52
BRANCH  46  54
HETATM   54  C   UNK N   1      37.020  15.574  15.277  0.00  0.00     0.198 C 
BRANCH  54  55
HETATM   55  O   UNK N   1      37.707  15.349  16.471  0.00  0.00    -0.398 OA
HETATM   56  H   UNK N   1      38.013  15.483  17.382  0.00  0.00     0.209 HD
ENDBRANCH  54  55
ENDBRANCH  46  54
ENDBRANCH  41  42
ENDBRANCH  34  41
BRANCH  35  57
HETATM   57  C   UNK N   1      35.471  16.466  10.609  0.00  0.00     0.198 C 
BRANCH  57  58
HETATM   58  O   UNK N   1      36.752  16.188  11.075  0.00  0.00    -0.398 OA
HETATM   59  H   UNK N   1      37.152  16.737  11.767  0.00  0.00     0.209 HD
ENDBRANCH  57  58
ENDBRANCH  35  57
ENDBRANCH   1  31
TORSDOF 24
ENDMDL
MODEL 4
REMARK VINA RESULT:      -7.2      2.806      5.755
REMARK  24 active torsions:
REMARK  status: ('A' for Active; 'I' for Inactive)
REMARK    1  A    between atoms: C_5  and  C_1 
REMARK    2  A    between atoms: O_25  and  C_1 
REMARK    3  A    between atoms: C_6  and  C_2 
REMARK    4  A    between atoms: O_26  and  C_2 
REMARK    5  A    between atoms: C_7  and  C_3 
REMARK    6  A    between atoms: O_27  and  C_3 
REMARK    7  A    between atoms: C_8  and  C_4 
REMARK    8  A    between atoms: O_28  and  C_4 
REMARK    9  A    between atoms: C_9  and  O_29 
REMARK   10  A    between atoms: C_10  and  O_30 
REMARK   11  A    between atoms: C_11  and  O_31 
REMARK   12  A    between atoms: C_12  and  O_32 
REMARK   13  A    between atoms: C_13  and  O_33 
REMARK   14  A    between atoms: C_14  and  O_34 
REMARK   15  A    between atoms: C_15  and  O_35 
REMARK   16  A    between atoms: C_16  and  O_36 
REMARK   17  A    between atoms: C_17  and  O_37 
REMARK   18  A    between atoms: C_18  and  O_43 
REMARK   19  A    between atoms: C_19  and  O_44 
REMARK   20  A    between atoms: C_20  and  O_45 
REMARK   21  A    between atoms: C_21  and  O_38 
REMARK   22  A    between atoms: C_22  and  O_44 
REMARK   23  A    between atoms: C_23  and  O_43 
REMARK   24  A    between atoms: C_24  and  O_45 
ROOT
HETATM    1  O   UNK N   1      32.308  16.037   7.009  0.00  0.00    -0.348 OA
ENDROOT
BRANCH   1   2
HETATM    2  C   UNK N   1      33.565  16.013   7.730  0.00  0.00     0.187 C 
HETATM    3  C   UNK N   1      34.231  14.609   7.832  0.00  0.00     0.180 C 
HETATM    4  O   UNK N   1      34.795  14.348   9.103  0.00  0.00    -0.348 OA
HETATM    5  C   UNK N   1      35.735  15.297   9.470  0.00  0.00     0.292 C 
HETATM    6  C   UNK N   1      35.012  16.655   9.739  0.00  0.00     0.204 C 
HETATM    7  C   UNK N   1      33.564  16.677   9.124  0.00  0.00     0.183 C 
BRANCH   3   8
HETATM    8  C   UNK N   1      35.105  14.234   6.622  0.00  0.00     0.198 C 
BRANCH   8   9
HETATM    9  O   UNK N   1      35.691  15.340   6.005  0.00  0.00    -0.398 OA
HETATM   10  H   UNK N   1      36.212  15.381   5.187  0.00  0.00     0.209 HD
ENDBRANCH   8   9
ENDBRANCH   3   8
BRANCH   5  11
HETATM   11  O   UNK N   1      36.544  14.842  10.565  0.00  0.00    -0.348 OA
BRANCH  11  12
HETATM   12  C   UNK N   1      36.088  13.692  11.300  0.00  0.00     0.187 C 
HETATM   13  C   UNK N   1      37.127  12.514  11.531  0.00  0.00     0.180 C 
HETATM   14  O   UNK N   1      36.703  11.484  12.428  0.00  0.00    -0.349 OA
HETATM   15  C   UNK N   1      35.505  11.727  13.146  0.00  0.00     0.288 C 
HETATM   16  C   UNK N   1      35.541  13.114  13.775  0.00  0.00     0.204 C 
HETATM   17  C   UNK N   1      35.625  14.214  12.690  0.00  0.00     0.183 C 
BRANCH  13  18
HETATM   18  C   UNK N   1      37.521  11.752  10.274  0.00  0.00     0.198 C 
BRANCH  18  19
HETATM   19  O   UNK N   1      36.592  11.988   9.251  0.00  0.00    -0.398 OA
HETATM   20  H   UNK N   1      35.802  11.530   8.921  0.00  0.00     0.209 HD
ENDBRANCH  18  19
ENDBRANCH  13  18
BRANCH  15  21
HETATM   21  O   UNK N   1      34.384  11.535  12.336  0.00  0.00    -0.369 OA
HETATM   22  H   UNK N   1      33.478  11.868  12.222  0.00  0.00     0.212 HD
ENDBRANCH  15  21
BRANCH  16  23
HETATM   23  O   UNK N   1      36.677  13.156  14.594  0.00  0.00    -0.388 OA
HETATM   24  H   UNK N   1      37.314  12.582  15.048  0.00  0.00     0.210 HD
ENDBRANCH  16  23
BRANCH  17  25
HETATM   25  O   UNK N   1      36.467  15.239  13.140  0.00  0.00    -0.390 OA
HETATM   26  H   UNK N   1      36.438  16.173  12.882  0.00  0.00     0.210 HD
ENDBRANCH  17  25
ENDBRANCH  11  12
ENDBRANCH   5  11
BRANCH   6  27
HETATM   27  O   UNK N   1      34.924  16.923  11.105  0.00  0.00    -0.388 OA
HETATM   28  H   UNK N   1      34.868  17.589  11.810  0.00  0.00     0.210 HD
ENDBRANCH   6  27
BRANCH   7  29
HETATM   29  O   UNK N   1      33.093  17.989   9.054  0.00  0.00    -0.390 OA
HETATM   30  H   UNK N   1      32.697  18.357   8.249  0.00  0.00     0.210 HD
ENDBRANCH   7  29
ENDBRANCH   1   2
BRANCH   1  31
HETATM   31  C   UNK N   1      31.928  17.313   6.470  0.00  0.00     0.292 C 
HETATM   32  C   UNK N   1      31.689  17.284   4.934  0.00  0.00     0.204 C 
HETATM   33  C   UNK N   1      30.361  16.576   4.574  0.00  0.00     0.183 C 
HETATM   34  C   UNK N   1      29.188  17.135   5.423  0.00  0.00     0.187 C 
HETATM   35  C   UNK N   1      29.652  16.947   6.880  0.00  0.00     0.180 C 
HETATM   36  O   UNK N   1      30.744  17.830   7.074  0.00  0.00    -0.348 OA
BRANCH  32  37
HETATM   37  O   UNK N   1      32.766  16.684   4.276  0.00  0.00    -0.388 OA
HETATM   38  H   UNK N   1      33.432  17.179   3.772  0.00  0.00     0.210 HD
ENDBRANCH  32  37
BRANCH  33  39
HETATM   39  O   UNK N   1      30.085  16.723   3.212  0.00  0.00    -0.390 OA
HETATM   40  H   UNK N   1      29.228  16.987   2.843  0.00  0.00     0.210 HD
ENDBRANCH  33  39
BRANCH  34  41
HETATM   41  O   UNK N   1      28.959  18.516   5.092  0.00  0.00    -0.348 OA
BRANCH  41  42
HETATM   42  C   UNK N   1      27.725  18.733   4.408  0.00  0.00     0.292 C 
HETATM   43  C   UNK N   1      26.849  19.749   5.163  0.00  0.00     0.204 C 
HETATM   44  C   UNK N   1      25.529  19.954   4.381  0.00  0.00     0.183 C 
HETATM   45  C   UNK N   1      24.849  18.593   4.141  0.00  0.00     0.180 C 
HETATM   46  C   UNK N   1      25.870  17.639   3.489  0.00  0.00     0.179 C 
HETATM   47  O   UNK N   1      27.012  17.501   4.326  0.00  0.00    -0.348 OA
BRANCH  43  48
HETATM   48  O   UNK N   1      27.519  20.967   5.299  0.00  0.00    -0.388 OA
HETATM   49  H   UNK N   1      28.002  21.350   4.550  0.00  0.00     0.210 HD
ENDBRANCH  43  48
BRANCH  44  50
HETATM   50  O   UNK N   1      25.799  20.559   3.146  0.00  0.00    -0.390 OA
HETATM   51  H   UNK N   1      25.994  21.207   2.452  0.00  0.00     0.210 HD
ENDBRANCH  44  50
BRANCH  45  52
HETATM   52  O   UNK N   1      24.412  18.072   5.363  0.00  0.00    -0.390 OA
HETATM   53  H   UNK N   1      23.917  17.603   6.052  0.00  0.00     0.210 HD
ENDBRANCH  45  52
BRANCH  46  54
HETATM   54  C   UNK N   1      25.275  16.260   3.193  0.00  0.00     0.198 C 
BRANCH  54  55
HETATM   55  O   UNK N   1      25.311  15.431   4.315  0.00  0.00    -0.398 OA
HETATM   56  H   UNK N   1      25.430  14.629   4.848  0.00  0.00     0.209 HD
ENDBRANCH  54  55
ENDBRANCH  46  54
ENDBRANCH  41  42
ENDBRANCH  34  41
BRANCH  35  57
HETATM   57  C   UNK N   1      28.525  17.193   7.886  0.00  0.00     0.198 C 
BRANCH  57  58
HETATM   58  O   UNK N   1      27.260  17.025   7.333  0.00  0.00    -0.398 OA
HETATM   59  H   UNK N   1      26.632  16.399   7.725  0.00  0.00     0.209 HD
ENDBRANCH  57  58
ENDBRANCH  35  57
ENDBRANCH   1  31
TORSDOF 24
ENDMDL
MODEL 5
REMARK VINA RESULT:      -7.1      1.857     11.810
REMARK  24 active torsions:
REMARK  status: ('A' for Active; 'I' for Inactive)
REMARK    1  A    between atoms: C_5  and  C_1 
REMARK    2  A    between atoms: O_25  and  C_1 
REMARK    3  A    between atoms: C_6  and  C_2 
REMARK    4  A    between atoms: O_26  and  C_2 
REMARK    5  A    between atoms: C_7  and  C_3 
REMARK    6  A    between atoms: O_27  and  C_3 
REMARK    7  A    between atoms: C_8  and  C_4 
REMARK    8  A    between atoms: O_28  and  C_4 
REMARK    9  A    between atoms: C_9  and  O_29 
REMARK   10  A    between atoms: C_10  and  O_30 
REMARK   11  A    between atoms: C_11  and  O_31 
REMARK   12  A    between atoms: C_12  and  O_32 
REMARK   13  A    between atoms: C_13  and  O_33 
REMARK   14  A    between atoms: C_14  and  O_34 
REMARK   15  A    between atoms: C_15  and  O_35 
REMARK   16  A    between atoms: C_16  and  O_36 
REMARK   17  A    between atoms: C_17  and  O_37 
REMARK   18  A    between atoms: C_18  and  O_43 
REMARK   19  A    between atoms: C_19  and  O_44 
REMARK   20  A    between atoms: C_20  and  O_45 
REMARK   21  A    between atoms: C_21  and  O_38 
REMARK   22  A    between atoms: C_22  and  O_44 
REMARK   23  A    between atoms: C_23  and  O_43 
REMARK   24  A    between atoms: C_24  and  O_45 
ROOT
HETATM    1  O   UNK N   1      28.991  17.023   5.078  0.00  0.00    -0.348 OA
ENDROOT
BRANCH   1   2
HETATM    2  C   UNK N   1      27.659  17.593   5.035  0.00  0.00     0.187 C 
HETATM    3  C   UNK N   1      26.873  17.311   3.721  0.00  0.00     0.180 C 
HETATM    4  O   UNK N   1      26.141  18.430   3.255  0.00  0.00    -0.348 OA
HETATM    5  C   UNK N   1      25.246  18.907   4.198  0.00  0.00     0.292 C 
HETATM    6  C   UNK N   1      26.042  19.544   5.381  0.00  0.00     0.204 C 
HETATM    7  C   UNK N   1      27.549  19.095   5.380  0.00  0.00     0.183 C 
BRANCH   3   8
HETATM    8  C   UNK N   1      26.120  15.968   3.710  0.00  0.00     0.198 C 
BRANCH   8   9
HETATM    9  O   UNK N   1      25.658  15.589   4.971  0.00  0.00    -0.398 OA
HETATM   10  H   UNK N   1      24.758  15.630   5.331  0.00  0.00     0.209 HD
ENDBRANCH   8   9
ENDBRANCH   3   8
BRANCH   5  11
HETATM   11  O   UNK N   1      24.278  19.787   3.607  0.00  0.00    -0.348 OA
BRANCH  11  12
HETATM   12  C   UNK N   1      22.950  19.276   3.398  0.00  0.00     0.187 C 
HETATM   13  C   UNK N   1      22.086  18.939   4.687  0.00  0.00     0.180 C 
HETATM   14  O   UNK N   1      20.712  18.624   4.444  0.00  0.00    -0.349 OA
HETATM   15  C   UNK N   1      20.240  18.836   3.124  0.00  0.00     0.288 C 
HETATM   16  C   UNK N   1      20.651  20.219   2.635  0.00  0.00     0.204 C 
HETATM   17  C   UNK N   1      22.191  20.351   2.569  0.00  0.00     0.183 C 
BRANCH  13  18
HETATM   18  C   UNK N   1      22.585  17.754   5.500  0.00  0.00     0.198 C 
BRANCH  18  19
HETATM   19  O   UNK N   1      22.770  16.639   4.671  0.00  0.00    -0.398 OA
HETATM   20  H   UNK N   1      22.584  16.436   3.740  0.00  0.00     0.209 HD
ENDBRANCH  18  19
ENDBRANCH  13  18
BRANCH  15  21
HETATM   21  O   UNK N   1      20.665  17.817   2.268  0.00  0.00    -0.369 OA
HETATM   22  H   UNK N   1      20.499  16.878   2.085  0.00  0.00     0.212 HD
ENDBRANCH  15  21
BRANCH  16  23
HETATM   23  O   UNK N   1      20.125  21.142   3.548  0.00  0.00    -0.388 OA
HETATM   24  H   UNK N   1      19.341  21.689   3.718  0.00  0.00     0.210 HD
ENDBRANCH  16  23
BRANCH  17  25
HETATM   25  O   UNK N   1      22.558  21.640   2.976  0.00  0.00    -0.390 OA
HETATM   26  H   UNK N   1      22.071  22.222   3.581  0.00  0.00     0.210 HD
ENDBRANCH  17  25
ENDBRANCH  11  12
ENDBRANCH   5  11
BRANCH   6  27
HETATM   27  O   UNK N   1      25.988  20.938   5.340  0.00  0.00    -0.388 OA
HETATM   28  H   UNK N   1      25.798  21.767   5.806  0.00  0.00     0.210 HD
ENDBRANCH   6  27
BRANCH   7  29
HETATM   29  O   UNK N   1      28.132  19.368   6.619  0.00  0.00    -0.390 OA
HETATM   30  H   UNK N   1      28.129  18.727   7.347  0.00  0.00     0.210 HD
ENDBRANCH   7  29
ENDBRANCH   1   2
BRANCH   1  31
HETATM   31  C   UNK N   1      29.188  15.982   6.048  0.00  0.00     0.292 C 
HETATM   32  C   UNK N   1      30.191  14.890   5.583  0.00  0.00     0.204 C 
HETATM   33  C   UNK N   1      31.651  15.399   5.624  0.00  0.00     0.183 C 
HETATM   34  C   UNK N   1      31.969  16.061   6.992  0.00  0.00     0.187 C 
HETATM   35  C   UNK N   1      30.894  17.154   7.142  0.00  0.00     0.180 C 
HETATM   36  O   UNK N   1      29.655  16.483   7.299  0.00  0.00    -0.348 OA
BRANCH  32  37
HETATM   37  O   UNK N   1      29.862  14.426   4.306  0.00  0.00    -0.388 OA
HETATM   38  H   UNK N   1      29.021  14.621   3.863  0.00  0.00     0.210 HD
ENDBRANCH  32  37
BRANCH  33  39
HETATM   39  O   UNK N   1      32.540  14.350   5.376  0.00  0.00    -0.390 OA
HETATM   40  H   UNK N   1      32.940  14.150   4.515  0.00  0.00     0.210 HD
ENDBRANCH  33  39
BRANCH  34  41
HETATM   41  O   UNK N   1      31.904  15.076   8.038  0.00  0.00    -0.348 OA
BRANCH  41  42
HETATM   42  C   UNK N   1      33.190  14.640   8.480  0.00  0.00     0.292 C 
HETATM   43  C   UNK N   1      33.146  13.168   8.930  0.00  0.00     0.204 C 
HETATM   44  C   UNK N   1      34.560  12.742   9.393  0.00  0.00     0.183 C 
HETATM   45  C   UNK N   1      35.069  13.714  10.473  0.00  0.00     0.180 C 
HETATM   46  C   UNK N   1      34.948  15.155   9.937  0.00  0.00     0.179 C 
HETATM   47  O   UNK N   1      33.598  15.436   9.591  0.00  0.00    -0.348 OA
BRANCH  43  48
HETATM   48  O   UNK N   1      32.719  12.349   7.882  0.00  0.00    -0.388 OA
HETATM   49  H   UNK N   1      32.036  12.654   7.265  0.00  0.00     0.210 HD
ENDBRANCH  43  48
BRANCH  44  50
HETATM   50  O   UNK N   1      35.441  12.759   8.304  0.00  0.00    -0.390 OA
HETATM   51  H   UNK N   1      36.230  12.683   7.745  0.00  0.00     0.210 HD
ENDBRANCH  44  50
BRANCH  45  52
HETATM   52  O   UNK N   1      34.301  13.563  11.632  0.00  0.00    -0.390 OA
HETATM   53  H   UNK N   1      33.569  13.529  12.267  0.00  0.00     0.210 HD
ENDBRANCH  45  52
BRANCH  46  54
HETATM   54  C   UNK N   1      35.452  16.195  10.940  0.00  0.00     0.198 C 
BRANCH  54  55
HETATM   55  O   UNK N   1      36.846  16.265  10.955  0.00  0.00    -0.398 OA
HETATM   56  H   UNK N   1      37.737  16.578  11.177  0.00  0.00     0.209 HD
ENDBRANCH  54  55
ENDBRANCH  46  54
ENDBRANCH  41  42
ENDBRANCH  34  41
BRANCH  35  57
HETATM   57  C   UNK N   1      31.188  18.103   8.306  0.00  0.00     0.198 C 
BRANCH  57  58
HETATM   58  O   UNK N   1      32.435  17.882   8.882  0.00  0.00    -0.398 OA
HETATM   59  H   UNK N   1      32.602  17.078   9.397  0.00  0.00     0.209 HD
ENDBRANCH  57  58
ENDBRANCH  35  57
ENDBRANCH   1  31
TORSDOF 24
ENDMDL
MODEL 6
REMARK VINA RESULT:      -7.0      1.780     11.584
REMARK  24 active torsions:
REMARK  status: ('A' for Active; 'I' for Inactive)
REMARK    1  A    between atoms: C_5  and  C_1 
REMARK    2  A    between atoms: O_25  and  C_1 
REMARK    3  A    between atoms: C_6  and  C_2 
REMARK    4  A    between atoms: O_26  and  C_2 
REMARK    5  A    between atoms: C_7  and  C_3 
REMARK    6  A    between atoms: O_27  and  C_3 
REMARK    7  A    between atoms: C_8  and  C_4 
REMARK    8  A    between atoms: O_28  and  C_4 
REMARK    9  A    between atoms: C_9  and  O_29 
REMARK   10  A    between atoms: C_10  and  O_30 
REMARK   11  A    between atoms: C_11  and  O_31 
REMARK   12  A    between atoms: C_12  and  O_32 
REMARK   13  A    between atoms: C_13  and  O_33 
REMARK   14  A    between atoms: C_14  and  O_34 
REMARK   15  A    between atoms: C_15  and  O_35 
REMARK   16  A    between atoms: C_16  and  O_36 
REMARK   17  A    between atoms: C_17  and  O_37 
REMARK   18  A    between atoms: C_18  and  O_43 
REMARK   19  A    between atoms: C_19  and  O_44 
REMARK   20  A    between atoms: C_20  and  O_45 
REMARK   21  A    between atoms: C_21  and  O_38 
REMARK   22  A    between atoms: C_22  and  O_44 
REMARK   23  A    between atoms: C_23  and  O_43 
REMARK   24  A    between atoms: C_24  and  O_45 
ROOT
HETATM    1  O   UNK N   1      26.525  18.030   4.669  0.00  0.00    -0.348 OA
ENDROOT
BRANCH   1   2
HETATM    2  C   UNK N   1      25.082  18.125   4.766  0.00  0.00     0.187 C 
HETATM    3  C   UNK N   1      24.331  16.766   4.664  0.00  0.00     0.180 C 
HETATM    4  O   UNK N   1      23.152  16.834   3.883  0.00  0.00    -0.348 OA
HETATM    5  C   UNK N   1      22.260  17.784   4.353  0.00  0.00     0.292 C 
HETATM    6  C   UNK N   1      22.857  19.207   4.115  0.00  0.00     0.204 C 
HETATM    7  C   UNK N   1      24.403  19.151   3.832  0.00  0.00     0.183 C 
BRANCH   3   8
HETATM    8  C   UNK N   1      24.205  16.011   5.999  0.00  0.00     0.198 C 
BRANCH   8   9
HETATM    9  O   UNK N   1      23.765  14.695   5.846  0.00  0.00    -0.398 OA
HETATM   10  H   UNK N   1      23.626  14.013   6.522  0.00  0.00     0.209 HD
ENDBRANCH   8   9
ENDBRANCH   3   8
BRANCH   5  11
HETATM   11  O   UNK N   1      20.951  17.601   3.791  0.00  0.00    -0.348 OA
BRANCH  11  12
HETATM   12  C   UNK N   1      20.804  16.630   2.741  0.00  0.00     0.187 C 
HETATM   13  C   UNK N   1      19.689  15.516   2.926  0.00  0.00     0.180 C 
HETATM   14  O   UNK N   1      19.440  14.694   1.782  0.00  0.00    -0.349 OA
HETATM   15  C   UNK N   1      20.068  15.089   0.574  0.00  0.00     0.288 C 
HETATM   16  C   UNK N   1      19.843  16.575   0.326  0.00  0.00     0.204 C 
HETATM   17  C   UNK N   1      20.486  17.429   1.445  0.00  0.00     0.183 C 
BRANCH  13  18
HETATM   18  C   UNK N   1      19.967  14.509   4.033  0.00  0.00     0.198 C 
BRANCH  18  19
HETATM   19  O   UNK N   1      21.334  14.495   4.345  0.00  0.00    -0.398 OA
HETATM   20  H   UNK N   1      22.154  14.387   3.838  0.00  0.00     0.209 HD
ENDBRANCH  18  19
ENDBRANCH  13  18
BRANCH  15  21
HETATM   21  O   UNK N   1      21.422  14.745   0.574  0.00  0.00    -0.369 OA
HETATM   22  H   UNK N   1      22.260  15.010   0.161  0.00  0.00     0.212 HD
ENDBRANCH  15  21
BRANCH  16  23
HETATM   23  O   UNK N   1      18.457  16.774   0.301  0.00  0.00    -0.388 OA
HETATM   24  H   UNK N   1      17.686  16.719  -0.286  0.00  0.00     0.210 HD
ENDBRANCH  16  23
BRANCH  17  25
HETATM   25  O   UNK N   1      19.650  18.517   1.728  0.00  0.00    -0.390 OA
HETATM   26  H   UNK N   1      19.104  18.643   2.520  0.00  0.00     0.210 HD
ENDBRANCH  17  25
ENDBRANCH  11  12
ENDBRANCH   5  11
BRANCH   6  27
HETATM   27  O   UNK N   1      22.228  19.852   3.050  0.00  0.00    -0.388 OA
HETATM   28  H   UNK N   1      22.317  20.321   2.205  0.00  0.00     0.210 HD
ENDBRANCH   6  27
BRANCH   7  29
HETATM   29  O   UNK N   1      24.965  20.420   3.988  0.00  0.00    -0.390 OA
HETATM   30  H   UNK N   1      25.826  20.558   4.413  0.00  0.00     0.210 HD
ENDBRANCH   7  29
ENDBRANCH   1   2
BRANCH   1  31
HETATM   31  C   UNK N   1      27.109  16.864   5.270  0.00  0.00     0.292 C 
HETATM   32  C   UNK N   1      28.402  16.385   4.553  0.00  0.00     0.204 C 
HETATM   33  C   UNK N   1      29.601  17.316   4.854  0.00  0.00     0.183 C 
HETATM   34  C   UNK N   1      29.737  17.569   6.380  0.00  0.00     0.187 C 
HETATM   35  C   UNK N   1      28.361  18.125   6.794  0.00  0.00     0.180 C 
HETATM   36  O   UNK N   1      27.434  17.063   6.645  0.00  0.00    -0.348 OA
BRANCH  32  37
HETATM   37  O   UNK N   1      28.194  16.274   3.175  0.00  0.00    -0.388 OA
HETATM   38  H   UNK N   1      28.868  16.488   2.511  0.00  0.00     0.210 HD
ENDBRANCH  32  37
BRANCH  33  39
HETATM   39  O   UNK N   1      30.783  16.767   4.348  0.00  0.00    -0.390 OA
HETATM   40  H   UNK N   1      31.498  16.392   4.886  0.00  0.00     0.210 HD
ENDBRANCH  33  39
BRANCH  34  41
HETATM   41  O   UNK N   1      30.060  16.340   7.053  0.00  0.00    -0.348 OA
BRANCH  41  42
HETATM   42  C   UNK N   1      31.416  16.281   7.496  0.00  0.00     0.292 C 
HETATM   43  C   UNK N   1      31.850  17.623   8.115  0.00  0.00     0.204 C 
HETATM   44  C   UNK N   1      33.320  17.507   8.584  0.00  0.00     0.183 C 
HETATM   45  C   UNK N   1      34.205  17.040   7.414  0.00  0.00     0.180 C 
HETATM   46  C   UNK N   1      33.593  15.757   6.814  0.00  0.00     0.179 C 
HETATM   47  O   UNK N   1      32.262  16.008   6.381  0.00  0.00    -0.348 OA
BRANCH  43  48
HETATM   48  O   UNK N   1      31.027  17.952   9.195  0.00  0.00    -0.388 OA
HETATM   49  H   UNK N   1      30.954  17.358   9.958  0.00  0.00     0.210 HD
ENDBRANCH  43  48
BRANCH  44  50
HETATM   50  O   UNK N   1      33.412  16.582   9.632  0.00  0.00    -0.390 OA
HETATM   51  H   UNK N   1      33.414  16.167  10.508  0.00  0.00     0.210 HD
ENDBRANCH  44  50
BRANCH  45  52
HETATM   52  O   UNK N   1      34.263  18.047   6.445  0.00  0.00    -0.390 OA
HETATM   53  H   UNK N   1      34.501  18.588   5.677  0.00  0.00     0.210 HD
ENDBRANCH  45  52
BRANCH  46  54
HETATM   54  C   UNK N   1      34.421  15.205   5.651  0.00  0.00     0.198 C 
BRANCH  54  55
HETATM   55  O   UNK N   1      35.778  15.495   5.799  0.00  0.00    -0.398 OA
HETATM   56  H   UNK N   1      36.590  15.872   6.172  0.00  0.00     0.209 HD
ENDBRANCH  54  55
ENDBRANCH  46  54
ENDBRANCH  41  42
ENDBRANCH  34  41
BRANCH  35  57
HETATM   57  C   UNK N   1      28.366  18.690   8.217  0.00  0.00     0.198 C 
BRANCH  57  58
HETATM   58  O   UNK N   1      28.144  17.716   9.186  0.00  0.00    -0.398 OA
HETATM   59  H   UNK N   1      28.836  17.496   9.828  0.00  0.00     0.209 HD
ENDBRANCH  57  58
ENDBRANCH  35  57
ENDBRANCH   1  31
TORSDOF 24
ENDMDL
MODEL 7
REMARK VINA RESULT:      -7.0      3.593      7.578
REMARK  24 active torsions:
REMARK  status: ('A' for Active; 'I' for Inactive)
REMARK    1  A    between atoms: C_5  and  C_1 
REMARK    2  A    between atoms: O_25  and  C_1 
REMARK    3  A    between atoms: C_6  and  C_2 
REMARK    4  A    between atoms: O_26  and  C_2 
REMARK    5  A    between atoms: C_7  and  C_3 
REMARK    6  A    between atoms: O_27  and  C_3 
REMARK    7  A    between atoms: C_8  and  C_4 
REMARK    8  A    between atoms: O_28  and  C_4 
REMARK    9  A    between atoms: C_9  and  O_29 
REMARK   10  A    between atoms: C_10  and  O_30 
REMARK   11  A    between atoms: C_11  and  O_31 
REMARK   12  A    between atoms: C_12  and  O_32 
REMARK   13  A    between atoms: C_13  and  O_33 
REMARK   14  A    between atoms: C_14  and  O_34 
REMARK   15  A    between atoms: C_15  and  O_35 
REMARK   16  A    between atoms: C_16  and  O_36 
REMARK   17  A    between atoms: C_17  and  O_37 
REMARK   18  A    between atoms: C_18  and  O_43 
REMARK   19  A    between atoms: C_19  and  O_44 
REMARK   20  A    between atoms: C_20  and  O_45 
REMARK   21  A    between atoms: C_21  and  O_38 
REMARK   22  A    between atoms: C_22  and  O_44 
REMARK   23  A    between atoms: C_23  and  O_43 
REMARK   24  A    between atoms: C_24  and  O_45 
ROOT
HETATM    1  O   UNK N   1      34.167  16.321   7.956  0.00  0.00    -0.348 OA
ENDROOT
BRANCH   1   2
HETATM    2  C   UNK N   1      35.155  15.642   8.772  0.00  0.00     0.187 C 
HETATM    3  C   UNK N   1      35.036  14.091   8.781  0.00  0.00     0.180 C 
HETATM    4  O   UNK N   1      35.241  13.520  10.060  0.00  0.00    -0.348 OA
HETATM    5  C   UNK N   1      36.470  13.861  10.601  0.00  0.00     0.292 C 
HETATM    6  C   UNK N   1      36.471  15.383  10.950  0.00  0.00     0.204 C 
HETATM    7  C   UNK N   1      35.305  16.149  10.223  0.00  0.00     0.183 C 
BRANCH   3   8
HETATM    8  C   UNK N   1      35.760  13.393   7.615  0.00  0.00     0.198 C 
BRANCH   8   9
HETATM    9  O   UNK N   1      36.201  14.282   6.634  0.00  0.00    -0.398 OA
HETATM   10  H   UNK N   1      37.106  14.457   6.329  0.00  0.00     0.209 HD
ENDBRANCH   8   9
ENDBRANCH   3   8
BRANCH   5  11
HETATM   11  O   UNK N   1      36.814  13.011  11.706  0.00  0.00    -0.348 OA
BRANCH  11  12
HETATM   12  C   UNK N   1      35.862  12.007  12.097  0.00  0.00     0.187 C 
HETATM   13  C   UNK N   1      36.431  10.591  12.535  0.00  0.00     0.180 C 
HETATM   14  O   UNK N   1      35.477   9.689  13.103  0.00  0.00    -0.349 OA
HETATM   15  C   UNK N   1      34.194  10.225  13.385  0.00  0.00     0.288 C 
HETATM   16  C   UNK N   1      34.329  11.538  14.145  0.00  0.00     0.204 C 
HETATM   17  C   UNK N   1      35.062  12.601  13.292  0.00  0.00     0.183 C 
BRANCH  13  18
HETATM   18  C   UNK N   1      37.062   9.780  11.412  0.00  0.00     0.198 C 
BRANCH  18  19
HETATM   19  O   UNK N   1      37.962  10.573  10.686  0.00  0.00    -0.398 OA
HETATM   20  H   UNK N   1      37.905  11.122   9.888  0.00  0.00     0.209 HD
ENDBRANCH  18  19
ENDBRANCH  13  18
BRANCH  15  21
HETATM   21  O   UNK N   1      33.435  10.355  12.220  0.00  0.00    -0.369 OA
HETATM   22  H   UNK N   1      32.723   9.903  11.738  0.00  0.00     0.212 HD
ENDBRANCH  15  21
BRANCH  16  23
HETATM   23  O   UNK N   1      35.063  11.259  15.305  0.00  0.00    -0.388 OA
HETATM   24  H   UNK N   1      35.034  10.734  16.120  0.00  0.00     0.210 HD
ENDBRANCH  16  23
BRANCH  17  25
HETATM   25  O   UNK N   1      35.901  13.356  14.122  0.00  0.00    -0.390 OA
HETATM   26  H   UNK N   1      35.941  14.323  14.187  0.00  0.00     0.210 HD
ENDBRANCH  17  25
ENDBRANCH  11  12
ENDBRANCH   5  11
BRANCH   6  27
HETATM   27  O   UNK N   1      36.357  15.591  12.324  0.00  0.00    -0.388 OA
HETATM   28  H   UNK N   1      36.445  15.229  13.220  0.00  0.00     0.210 HD
ENDBRANCH   6  27
BRANCH   7  29
HETATM   29  O   UNK N   1      35.544  17.524  10.251  0.00  0.00    -0.390 OA
HETATM   30  H   UNK N   1      35.689  18.043   9.445  0.00  0.00     0.210 HD
ENDBRANCH   7  29
ENDBRANCH   1   2
BRANCH   1  31
HETATM   31  C   UNK N   1      33.026  15.534   7.583  0.00  0.00     0.292 C 
HETATM   32  C   UNK N   1      31.765  15.836   8.440  0.00  0.00     0.204 C 
HETATM   33  C   UNK N   1      31.129  17.195   8.063  0.00  0.00     0.183 C 
HETATM   34  C   UNK N   1      30.937  17.310   6.527  0.00  0.00     0.187 C 
HETATM   35  C   UNK N   1      32.346  17.069   5.952  0.00  0.00     0.180 C 
HETATM   36  O   UNK N   1      32.663  15.712   6.215  0.00  0.00    -0.348 OA
BRANCH  32  37
HETATM   37  O   UNK N   1      32.068  15.790   9.803  0.00  0.00    -0.388 OA
HETATM   38  H   UNK N   1      32.801  16.281  10.207  0.00  0.00     0.210 HD
ENDBRANCH  32  37
BRANCH  33  39
HETATM   39  O   UNK N   1      29.904  17.358   8.716  0.00  0.00    -0.390 OA
HETATM   40  H   UNK N   1      29.453  18.205   8.851  0.00  0.00     0.210 HD
ENDBRANCH  33  39
BRANCH  34  41
HETATM   41  O   UNK N   1      29.984  16.332   6.078  0.00  0.00    -0.348 OA
BRANCH  41  42
HETATM   42  C   UNK N   1      28.716  16.896   5.741  0.00  0.00     0.292 C 
HETATM   43  C   UNK N   1      28.395  16.676   4.251  0.00  0.00     0.204 C 
HETATM   44  C   UNK N   1      27.013  17.298   3.938  0.00  0.00     0.183 C 
HETATM   45  C   UNK N   1      26.997  18.775   4.372  0.00  0.00     0.180 C 
HETATM   46  C   UNK N   1      27.449  18.862   5.844  0.00  0.00     0.179 C 
HETATM   47  O   UNK N   1      28.747  18.300   5.989  0.00  0.00    -0.348 OA
BRANCH  43  48
HETATM   48  O   UNK N   1      28.385  15.312   3.949  0.00  0.00    -0.388 OA
HETATM   49  H   UNK N   1      28.706  14.995   3.091  0.00  0.00     0.210 HD
ENDBRANCH  43  48
BRANCH  44  50
HETATM   50  O   UNK N   1      26.012  16.603   4.628  0.00  0.00    -0.390 OA
HETATM   51  H   UNK N   1      25.190  16.368   5.087  0.00  0.00     0.210 HD
ENDBRANCH  44  50
BRANCH  45  52
HETATM   52  O   UNK N   1      27.863  19.509   3.555  0.00  0.00    -0.390 OA
HETATM   53  H   UNK N   1      28.650  19.889   3.136  0.00  0.00     0.210 HD
ENDBRANCH  45  52
BRANCH  46  54
HETATM   54  C   UNK N   1      27.445  20.299   6.372  0.00  0.00     0.198 C 
BRANCH  54  55
HETATM   55  O   UNK N   1      26.557  21.108   5.662  0.00  0.00    -0.398 OA
HETATM   56  H   UNK N   1      26.036  21.889   5.419  0.00  0.00     0.209 HD
ENDBRANCH  54  55
ENDBRANCH  46  54
ENDBRANCH  41  42
ENDBRANCH  34  41
BRANCH  35  57
HETATM   57  C   UNK N   1      32.430  17.401   4.460  0.00  0.00     0.198 C 
BRANCH  57  58
HETATM   58  O   UNK N   1      31.363  18.177   4.018  0.00  0.00    -0.398 OA
HETATM   59  H   UNK N   1      31.512  18.912   3.404  0.00  0.00     0.209 HD
ENDBRANCH  57  58
ENDBRANCH  35  57
ENDBRANCH   1  31
TORSDOF 24
ENDMDL
MODEL 8
REMARK VINA RESULT:      -6.9      1.812      2.914
REMARK  24 active torsions:
REMARK  status: ('A' for Active; 'I' for Inactive)
REMARK    1  A    between atoms: C_5  and  C_1 
REMARK    2  A    between atoms: O_25  and  C_1 
REMARK    3  A    between atoms: C_6  and  C_2 
REMARK    4  A    between atoms: O_26  and  C_2 
REMARK    5  A    between atoms: C_7  and  C_3 
REMARK    6  A    between atoms: O_27  and  C_3 
REMARK    7  A    between atoms: C_8  and  C_4 
REMARK    8  A    between atoms: O_28  and  C_4 
REMARK    9  A    between atoms: C_9  and  O_29 
REMARK   10  A    between atoms: C_10  and  O_30 
REMARK   11  A    between atoms: C_11  and  O_31 
REMARK   12  A    between atoms: C_12  and  O_32 
REMARK   13  A    between atoms: C_13  and  O_33 
REMARK   14  A    between atoms: C_14  and  O_34 
REMARK   15  A    between atoms: C_15  and  O_35 
REMARK   16  A    between atoms: C_16  and  O_36 
REMARK   17  A    between atoms: C_17  and  O_37 
REMARK   18  A    between atoms: C_18  and  O_43 
REMARK   19  A    between atoms: C_19  and  O_44 
REMARK   20  A    between atoms: C_20  and  O_45 
REMARK   21  A    between atoms: C_21  and  O_38 
REMARK   22  A    between atoms: C_22  and  O_44 
REMARK   23  A    between atoms: C_23  and  O_43 
REMARK   24  A    between atoms: C_24  and  O_45 
ROOT
HETATM    1  O   UNK N   1      28.959  16.284   5.307  0.00  0.00    -0.348 OA
ENDROOT
BRANCH   1   2
HETATM    2  C   UNK N   1      30.113  15.815   6.050  0.00  0.00     0.187 C 
HETATM    3  C   UNK N   1      31.134  16.925   6.435  0.00  0.00     0.180 C 
HETATM    4  O   UNK N   1      32.483  16.523   6.285  0.00  0.00    -0.348 OA
HETATM    5  C   UNK N   1      32.781  15.389   7.022  0.00  0.00     0.292 C 
HETATM    6  C   UNK N   1      32.035  14.165   6.403  0.00  0.00     0.204 C 
HETATM    7  C   UNK N   1      30.872  14.615   5.444  0.00  0.00     0.183 C 
BRANCH   3   8
HETATM    8  C   UNK N   1      30.799  17.667   7.742  0.00  0.00     0.198 C 
BRANCH   8   9
HETATM    9  O   UNK N   1      29.713  17.117   8.422  0.00  0.00    -0.398 OA
HETATM   10  H   UNK N   1      29.685  16.703   9.299  0.00  0.00     0.209 HD
ENDBRANCH   8   9
ENDBRANCH   3   8
BRANCH   5  11
HETATM   11  O   UNK N   1      34.199  15.202   7.149  0.00  0.00    -0.348 OA
BRANCH  11  12
HETATM   12  C   UNK N   1      34.817  15.597   8.386  0.00  0.00     0.187 C 
HETATM   13  C   UNK N   1      34.274  16.914   9.086  0.00  0.00     0.180 C 
HETATM   14  O   UNK N   1      34.772  17.164  10.403  0.00  0.00    -0.349 OA
HETATM   15  C   UNK N   1      35.530  16.124  10.999  0.00  0.00     0.288 C 
HETATM   16  C   UNK N   1      34.798  14.795  10.859  0.00  0.00     0.204 C 
HETATM   17  C   UNK N   1      34.629  14.408   9.371  0.00  0.00     0.183 C 
BRANCH  13  18
HETATM   18  C   UNK N   1      34.575  18.206   8.340  0.00  0.00     0.198 C 
BRANCH  18  19
HETATM   19  O   UNK N   1      34.662  17.963   6.962  0.00  0.00    -0.398 OA
HETATM   20  H   UNK N   1      34.024  17.897   6.234  0.00  0.00     0.209 HD
ENDBRANCH  18  19
ENDBRANCH  13  18
BRANCH  15  21
HETATM   21  O   UNK N   1      36.824  16.081  10.476  0.00  0.00    -0.369 OA
HETATM   22  H   UNK N   1      37.297  16.222   9.639  0.00  0.00     0.212 HD
ENDBRANCH  15  21
BRANCH  16  23
HETATM   23  O   UNK N   1      33.544  14.960  11.462  0.00  0.00    -0.388 OA
HETATM   24  H   UNK N   1      32.645  14.594  11.469  0.00  0.00     0.210 HD
ENDBRANCH  16  23
BRANCH  17  25
HETATM   25  O   UNK N   1      33.374  13.812   9.193  0.00  0.00    -0.390 OA
HETATM   26  H   UNK N   1      32.517  14.262   9.137  0.00  0.00     0.210 HD
ENDBRANCH  17  25
ENDBRANCH  11  12
ENDBRANCH   5  11
BRANCH   6  27
HETATM   27  O   UNK N   1      32.909  13.340   5.694  0.00  0.00    -0.388 OA
HETATM   28  H   UNK N   1      33.626  13.269   5.044  0.00  0.00     0.210 HD
ENDBRANCH   6  27
BRANCH   7  29
HETATM   29  O   UNK N   1      30.008  13.545   5.203  0.00  0.00    -0.390 OA
HETATM   30  H   UNK N   1      30.047  13.019   4.389  0.00  0.00     0.210 HD
ENDBRANCH   7  29
ENDBRANCH   1   2
BRANCH   1  31
HETATM   31  C   UNK N   1      27.682  15.937   5.865  0.00  0.00     0.292 C 
HETATM   32  C   UNK N   1      26.808  17.174   6.215  0.00  0.00     0.204 C 
HETATM   33  C   UNK N   1      26.232  17.845   4.945  0.00  0.00     0.183 C 
HETATM   34  C   UNK N   1      25.563  16.794   4.018  0.00  0.00     0.187 C 
HETATM   35  C   UNK N   1      26.674  15.758   3.760  0.00  0.00     0.180 C 
HETATM   36  O   UNK N   1      26.915  15.106   4.996  0.00  0.00    -0.348 OA
BRANCH  32  37
HETATM   37  O   UNK N   1      27.533  18.094   6.977  0.00  0.00    -0.388 OA
HETATM   38  H   UNK N   1      27.502  19.053   6.833  0.00  0.00     0.210 HD
ENDBRANCH  32  37
BRANCH  33  39
HETATM   39  O   UNK N   1      25.311  18.837   5.293  0.00  0.00    -0.390 OA
HETATM   40  H   UNK N   1      24.764  18.833   6.094  0.00  0.00     0.210 HD
ENDBRANCH  33  39
BRANCH  34  41
HETATM   41  O   UNK N   1      24.418  16.222   4.673  0.00  0.00    -0.348 OA
BRANCH  41  42
HETATM   42  C   UNK N   1      23.178  16.748   4.197  0.00  0.00     0.292 C 
HETATM   43  C   UNK N   1      22.231  17.067   5.369  0.00  0.00     0.204 C 
HETATM   44  C   UNK N   1      20.908  17.638   4.804  0.00  0.00     0.183 C 
HETATM   45  C   UNK N   1      20.320  16.663   3.769  0.00  0.00     0.180 C 
HETATM   46  C   UNK N   1      21.407  16.338   2.723  0.00  0.00     0.179 C 
HETATM   47  O   UNK N   1      22.547  15.779   3.363  0.00  0.00    -0.348 OA
BRANCH  43  48
HETATM   48  O   UNK N   1      22.820  17.991   6.236  0.00  0.00    -0.388 OA
HETATM   49  H   UNK N   1      23.164  18.833   5.899  0.00  0.00     0.210 HD
ENDBRANCH  43  48
BRANCH  44  50
HETATM   50  O   UNK N   1      21.149  18.874   4.190  0.00  0.00    -0.390 OA
HETATM   51  H   UNK N   1      21.040  19.755   3.799  0.00  0.00     0.210 HD
ENDBRANCH  44  50
BRANCH  45  52
HETATM   52  O   UNK N   1      19.906  15.494   4.415  0.00  0.00    -0.390 OA
HETATM   53  H   UNK N   1      19.442  14.678   4.659  0.00  0.00     0.210 HD
ENDBRANCH  45  52
BRANCH  46  54
HETATM   54  C   UNK N   1      20.904  15.385   1.635  0.00  0.00     0.198 C 
BRANCH  54  55
HETATM   55  O   UNK N   1      19.514  15.419   1.521  0.00  0.00    -0.398 OA
HETATM   56  H   UNK N   1      18.627  15.240   1.171  0.00  0.00     0.209 HD
ENDBRANCH  54  55
ENDBRANCH  46  54
ENDBRANCH  41  42
ENDBRANCH  34  41
BRANCH  35  57
HETATM   57  C   UNK N   1      26.302  14.770   2.651  0.00  0.00     0.198 C 
BRANCH  57  58
HETATM   58  O   UNK N   1      25.155  15.144   1.957  0.00  0.00    -0.398 OA
HETATM   59  H   UNK N   1      24.338  15.354   2.436  0.00  0.00     0.209 HD
ENDBRANCH  57  58
ENDBRANCH  35  57
ENDBRANCH   1  31
TORSDOF 24
ENDMDL
MODEL 9
REMARK VINA RESULT:      -6.9      1.788     11.566
REMARK  24 active torsions:
REMARK  status: ('A' for Active; 'I' for Inactive)
REMARK    1  A    between atoms: C_5  and  C_1 
REMARK    2  A    between atoms: O_25  and  C_1 
REMARK    3  A    between atoms: C_6  and  C_2 
REMARK    4  A    between atoms: O_26  and  C_2 
REMARK    5  A    between atoms: C_7  and  C_3 
REMARK    6  A    between atoms: O_27  and  C_3 
REMARK    7  A    between atoms: C_8  and  C_4 
REMARK    8  A    between atoms: O_28  and  C_4 
REMARK    9  A    between atoms: C_9  and  O_29 
REMARK   10  A    between atoms: C_10  and  O_30 
REMARK   11  A    between atoms: C_11  and  O_31 
REMARK   12  A    between atoms: C_12  and  O_32 
REMARK   13  A    between atoms: C_13  and  O_33 
REMARK   14  A    between atoms: C_14  and  O_34 
REMARK   15  A    between atoms: C_15  and  O_35 
REMARK   16  A    between atoms: C_16  and  O_36 
REMARK   17  A    between atoms: C_17  and  O_37 
REMARK   18  A    between atoms: C_18  and  O_43 
REMARK   19  A    between atoms: C_19  and  O_44 
REMARK   20  A    between atoms: C_20  and  O_45 
REMARK   21  A    between atoms: C_21  and  O_38 
REMARK   22  A    between atoms: C_22  and  O_44 
REMARK   23  A    between atoms: C_23  and  O_43 
REMARK   24  A    between atoms: C_24  and  O_45 
ROOT
HETATM    1  O   UNK N   1      28.737  17.051   4.476  0.00  0.00    -0.348 OA
ENDROOT
BRANCH   1   2
HETATM    2  C   UNK N   1      27.381  17.417   4.115  0.00  0.00     0.187 C 
HETATM    3  C   UNK N   1      26.603  18.200   5.212  0.00  0.00     0.180 C 
HETATM    4  O   UNK N   1      25.254  17.792   5.342  0.00  0.00    -0.348 OA
HETATM    5  C   UNK N   1      24.551  17.904   4.154  0.00  0.00     0.292 C 
HETATM    6  C   UNK N   1      25.087  16.843   3.140  0.00  0.00     0.204 C 
HETATM    7  C   UNK N   1      26.489  16.278   3.574  0.00  0.00     0.183 C 
BRANCH   3   8
HETATM    8  C   UNK N   1      26.843  19.720   5.195  0.00  0.00     0.198 C 
BRANCH   8   9
HETATM    9  O   UNK N   1      27.402  20.174   4.000  0.00  0.00    -0.398 OA
HETATM   10  H   UNK N   1      27.061  20.094   3.095  0.00  0.00     0.209 HD
ENDBRANCH   8   9
ENDBRANCH   3   8
BRANCH   5  11
HETATM   11  O   UNK N   1      23.134  17.836   4.371  0.00  0.00    -0.348 OA
BRANCH  11  12
HETATM   12  C   UNK N   1      22.325  18.903   3.847  0.00  0.00     0.187 C 
HETATM   13  C   UNK N   1      22.962  19.813   2.712  0.00  0.00     0.180 C 
HETATM   14  O   UNK N   1      22.066  20.731   2.080  0.00  0.00    -0.349 OA
HETATM   15  C   UNK N   1      20.691  20.590   2.399  0.00  0.00     0.288 C 
HETATM   16  C   UNK N   1      20.269  19.131   2.272  0.00  0.00     0.204 C 
HETATM   17  C   UNK N   1      21.038  18.241   3.277  0.00  0.00     0.183 C 
BRANCH  13  18
HETATM   18  C   UNK N   1      24.112  20.697   3.171  0.00  0.00     0.198 C 
BRANCH  18  19
HETATM   19  O   UNK N   1      25.041  20.865   2.135  0.00  0.00    -0.398 OA
HETATM   20  H   UNK N   1      25.010  21.232   1.237  0.00  0.00     0.209 HD
ENDBRANCH  18  19
ENDBRANCH  13  18
BRANCH  15  21
HETATM   21  O   UNK N   1      20.408  21.122   3.659  0.00  0.00    -0.369 OA
HETATM   22  H   UNK N   1      20.216  20.832   4.565  0.00  0.00     0.212 HD
ENDBRANCH  15  21
BRANCH  16  23
HETATM   23  O   UNK N   1      20.561  18.740   0.958  0.00  0.00    -0.388 OA
HETATM   24  H   UNK N   1      21.266  18.762   0.292  0.00  0.00     0.210 HD
ENDBRANCH  16  23
BRANCH  17  25
HETATM   25  O   UNK N   1      21.341  17.017   2.666  0.00  0.00    -0.390 OA
HETATM   26  H   UNK N   1      21.718  16.884   1.783  0.00  0.00     0.210 HD
ENDBRANCH  17  25
ENDBRANCH  11  12
ENDBRANCH   5  11
BRANCH   6  27
HETATM   27  O   UNK N   1      24.197  15.778   2.999  0.00  0.00    -0.388 OA
HETATM   28  H   UNK N   1      23.412  15.416   2.558  0.00  0.00     0.210 HD
ENDBRANCH   6  27
BRANCH   7  29
HETATM   29  O   UNK N   1      27.099  15.631   2.498  0.00  0.00    -0.390 OA
HETATM   30  H   UNK N   1      27.655  16.101   1.857  0.00  0.00     0.210 HD
ENDBRANCH   7  29
ENDBRANCH   1   2
BRANCH   1  31
HETATM   31  C   UNK N   1      28.862  15.894   5.317  0.00  0.00     0.292 C 
HETATM   32  C   UNK N   1      29.933  14.884   4.817  0.00  0.00     0.204 C 
HETATM   33  C   UNK N   1      31.369  15.400   5.071  0.00  0.00     0.183 C 
HETATM   34  C   UNK N   1      31.534  15.879   6.538  0.00  0.00     0.187 C 
HETATM   35  C   UNK N   1      30.423  16.930   6.720  0.00  0.00     0.180 C 
HETATM   36  O   UNK N   1      29.191  16.230   6.663  0.00  0.00    -0.348 OA
BRANCH  32  37
HETATM   37  O   UNK N   1      29.743  14.589   3.463  0.00  0.00    -0.388 OA
HETATM   38  H   UNK N   1      28.979  14.894   2.949  0.00  0.00     0.210 HD
ENDBRANCH  32  37
BRANCH  33  39
HETATM   39  O   UNK N   1      32.304  14.403   4.779  0.00  0.00    -0.390 OA
HETATM   40  H   UNK N   1      32.089  13.517   4.450  0.00  0.00     0.210 HD
ENDBRANCH  33  39
BRANCH  34  41
HETATM   41  O   UNK N   1      31.390  14.764   7.435  0.00  0.00    -0.348 OA
BRANCH  41  42
HETATM   42  C   UNK N   1      32.599  14.435   8.121  0.00  0.00     0.292 C 
HETATM   43  C   UNK N   1      32.729  15.246   9.424  0.00  0.00     0.204 C 
HETATM   44  C   UNK N   1      34.048  14.850  10.131  0.00  0.00     0.183 C 
HETATM   45  C   UNK N   1      35.231  15.024   9.162  0.00  0.00     0.180 C 
HETATM   46  C   UNK N   1      34.918  14.260   7.859  0.00  0.00     0.179 C 
HETATM   47  O   UNK N   1      33.711  14.747   7.286  0.00  0.00    -0.348 OA
BRANCH  43  48
HETATM   48  O   UNK N   1      31.642  14.998  10.265  0.00  0.00    -0.388 OA
HETATM   49  H   UNK N   1      31.783  14.757  11.194  0.00  0.00     0.210 HD
ENDBRANCH  43  48
BRANCH  44  50
HETATM   50  O   UNK N   1      33.982  13.514  10.545  0.00  0.00    -0.390 OA
HETATM   51  H   UNK N   1      33.815  12.559  10.582  0.00  0.00     0.210 HD
ENDBRANCH  44  50
BRANCH  45  52
HETATM   52  O   UNK N   1      35.415  16.384   8.893  0.00  0.00    -0.390 OA
HETATM   53  H   UNK N   1      35.739  17.230   8.548  0.00  0.00     0.210 HD
ENDBRANCH  45  52
BRANCH  46  54
HETATM   54  C   UNK N   1      36.054  14.360   6.837  0.00  0.00     0.198 C 
BRANCH  54  55
HETATM   55  O   UNK N   1      35.853  15.413   5.943  0.00  0.00    -0.398 OA
HETATM   56  H   UNK N   1      35.906  16.304   5.564  0.00  0.00     0.209 HD
ENDBRANCH  54  55
ENDBRANCH  46  54
ENDBRANCH  41  42
ENDBRANCH  34  41
BRANCH  35  57
HETATM   57  C   UNK N   1      30.577  17.720   8.022  0.00  0.00     0.198 C 
BRANCH  57  58
HETATM   58  O   UNK N   1      31.881  18.154   8.240  0.00  0.00    -0.398 OA
HETATM   59  H   UNK N   1      32.621  17.734   7.776  0.00  0.00     0.209 HD
ENDBRANCH  57  58
ENDBRANCH  35  57
ENDBRANCH   1  31
TORSDOF 24
ENDMDL
