REMARK  26 active torsions:
REMARK  status: ('A' for Active; 'I' for Inactive)
REMARK    1  A    between atoms: C_8  and  C_7 
REMARK    2  A    between atoms: C_19  and  C_7 
REMARK    3  A    between atoms: C_22  and  C_8 
REMARK    4  A    between atoms: C_14  and  C_10 
REMARK    5  A    between atoms: C_30  and  C_10 
REMARK    6  A    between atoms: C_21  and  C_11 
REMARK    7  A    between atoms: N_33  and  C_11 
REMARK    8  A    between atoms: C_20  and  C_12 
REMARK    9  A    between atoms: O_53  and  C_12 
REMARK   10  A    between atoms: C_30  and  C_13 
REMARK   11  A    between atoms: N_33  and  C_13 
REMARK   12  A    between atoms: C_25  and  C_15 
REMARK   13  A    between atoms: C_30  and  C_16 
REMARK   14  A    between atoms: C_28  and  C_19 
REMARK   15  A    between atoms: C_19  and  N_34 
REMARK   16  A    between atoms: C_21  and  O_40 
REMARK   17  A    between atoms: O_42  and  C_22 
REMARK   18  A    between atoms: C_23  and  O_43 
REMARK   19  A    between atoms: C_24  and  O_44 
REMARK       I    between atoms: N_34  and  C_25 
REMARK   20  A    between atoms: O_46  and  C_26 
REMARK   21  A    between atoms: C_27  and  N_36 
REMARK   22  A    between atoms: O_48  and  C_28 
REMARK       I    between atoms: N_31  and  C_29 
REMARK   23  A    between atoms: C_30  and  O_49 
REMARK   24  A    between atoms: P_55  and  O_50 
REMARK   25  A    between atoms: P_55  and  O_51 
REMARK   26  A    between atoms: P_55  and  O_53 
ROOT
HETATM    1  C   UNK N   1      -1.405   0.738   0.541  0.00  0.00     0.104 C 
ENDROOT
BRANCH   1   2
HETATM    2  C   UNK N   1      -1.781   2.119   1.104  0.00  0.00     0.083 C 
BRANCH   2   3
HETATM    3  C   UNK N   1      -1.123   3.365   0.584  0.00  0.00    -0.054 A 
HETATM    4  C   UNK N   1       0.274   3.493   0.483  0.00  0.00     0.009 A 
HETATM    5  C   UNK N   1       0.847   4.725   0.130  0.00  0.00     0.031 A 
HETATM    6  C   UNK N   1       0.027   5.841  -0.078  0.00  0.00     0.063 A 
HETATM    7  C   UNK N   1      -1.368   5.716   0.042  0.00  0.00     0.043 A 
HETATM    8  N   UNK N   1       0.572   7.053  -0.370  0.00  0.00    -0.191 N 
HETATM    9  C   UNK N   1      -1.933   4.480   0.366  0.00  0.00     0.025 A 
HETATM   10  C   UNK N   1      -2.161   6.851  -0.142  0.00  0.00     0.167 A 
HETATM   11  N   UNK N   1      -1.571   8.042  -0.428  0.00  0.00    -0.170 N 
HETATM   12  C   UNK N   1      -0.220   8.147  -0.541  0.00  0.00     0.678 A 
ATOM     13  HN  UNK N   1      -2.152   8.871  -0.559  1.00  0.00     0.186 HD
HETATM   14  N   UNK N   1       0.309   9.283  -0.799  0.00  0.00    -0.234 N 
HETATM   15  H   UNK N   1       1.269   9.368  -0.998  0.00  0.00     0.174 HD
ATOM     16  HN  UNK N   1      -0.277  10.118  -0.799  1.00  0.00     0.174 HD
HETATM   17  H   UNK N   1       1.548   7.141  -0.458  0.00  0.00     0.184 HD
BRANCH  10  18
HETATM   18  O   UNK N   1      -3.499   6.780  -0.025  0.00  0.00    -0.345 OA
HETATM   19  H   UNK N   1      -4.007   7.563   0.056  0.00  0.00     0.219 HD
ENDBRANCH  10  18
ENDBRANCH   2   3
ENDBRANCH   1   2
BRANCH   1  20
HETATM   20  C   UNK N   1      -0.906  -0.015   1.797  0.00  0.00     0.157 C 
BRANCH  20  21
HETATM   21  N   UNK N   1      -0.951  -1.490   1.786  0.00  0.00    -0.411 N 
HETATM   22  H   UNK N   1      -1.496  -2.030   2.458  0.00  0.00     0.153 HD
BRANCH  21  23
HETATM   23  C   UNK N   1      -0.149  -2.115   0.730  0.00  0.00     0.198 C 
BRANCH  23  24
HETATM   24  C   UNK N   1       1.247  -1.606   0.642  0.00  0.00     0.131 C 
HETATM   25  N   UNK N   1       1.972  -1.984  -0.359  0.00  0.00    -0.344 N 
ATOM     26  HN  UNK N   1       1.532  -2.649  -0.995  1.00  0.00     0.164 HD
BRANCH  25  27
HETATM   27  C   UNK N   1       3.332  -1.588  -0.705  0.00  0.00     0.254 C 
HETATM   28  C   UNK N   1       4.019  -0.592   0.210  0.00  0.00     0.198 C 
HETATM   29  C   UNK N   1       5.456  -0.738  -0.205  0.00  0.00     0.182 C 
HETATM   30  C   UNK N   1       5.473  -2.161  -0.805  0.00  0.00     0.180 C 
HETATM   31  O   UNK N   1       4.175  -2.711  -0.681  0.00  0.00    -0.354 OA
BRANCH  28  32
HETATM   32  O   UNK N   1       3.541   0.714   0.061  0.00  0.00    -0.389 OA
HETATM   33  H   UNK N   1       4.160   1.454  -0.042  0.00  0.00     0.210 HD
ENDBRANCH  28  32
BRANCH  29  34
HETATM   34  O   UNK N   1       6.291  -0.582   0.909  0.00  0.00    -0.390 OA
HETATM   35  H   UNK N   1       6.674  -1.028   1.681  0.00  0.00     0.210 HD
ENDBRANCH  29  34
BRANCH  30  36
HETATM   36  C   UNK N   1       6.522  -3.072  -0.186  0.00  0.00     0.215 C 
BRANCH  36  37
HETATM   37  O   UNK N   1       6.525  -4.314  -0.827  0.00  0.00    -0.294 OA
BRANCH  37  38
HETATM   38  P   UNK N   1       6.263  -5.485   0.433  0.00  0.00     0.390 P 
HETATM   39  O   UNK N   1       7.253  -5.180   1.591  0.00  0.00    -0.632 OA
BRANCH  38  40
HETATM   40  O   UNK N   1       6.635  -7.084  -0.127  0.00  0.00    -0.307 OA
HETATM   41  H   UNK N   1       5.965  -7.712  -0.440  0.00  0.00     0.222 HD
ENDBRANCH  38  40
BRANCH  38  42
HETATM   42  O   UNK N   1       4.652  -5.406   1.076  0.00  0.00    -0.307 OA
HETATM   43  H   UNK N   1       4.240  -4.605   1.435  0.00  0.00     0.222 HD
ENDBRANCH  38  42
ENDBRANCH  37  38
ENDBRANCH  36  37
ENDBRANCH  30  36
ENDBRANCH  25  27
BRANCH  24  44
HETATM   44  O   UNK N   1       1.702  -0.751   1.577  0.00  0.00    -0.348 OA
HETATM   45  H   UNK N   1       2.375  -0.728   2.228  0.00  0.00     0.219 HD
ENDBRANCH  24  44
ENDBRANCH  23  24
ENDBRANCH  21  23
ENDBRANCH  20  21
ENDBRANCH   1  20
BRANCH   1  46
HETATM   46  C   UNK N   1      -2.590  -0.000  -0.050  0.00  0.00    -0.022 A 
HETATM   47  C   UNK N   1      -2.342  -1.182  -0.755  0.00  0.00     0.011 A 
HETATM   48  C   UNK N   1      -3.361  -2.071  -1.042  0.00  0.00     0.017 A 
HETATM   49  C   UNK N   1      -4.672  -1.782  -0.670  0.00  0.00     0.032 A 
HETATM   50  C   UNK N   1      -4.958  -0.557  -0.046  0.00  0.00     0.017 A 
HETATM   51  C   UNK N   1      -3.915   0.321   0.291  0.00  0.00     0.011 A 
BRANCH  49  52
HETATM   52  C   UNK N   1      -5.708  -2.810  -0.885  0.00  0.00     0.252 C 
HETATM   53  N   UNK N   1      -6.989  -2.460  -1.152  0.00  0.00    -0.343 N 
HETATM   54  H   UNK N   1      -7.188  -2.176  -2.074  0.00  0.00     0.163 HD
HETATM   55  O   UNK N   1      -5.363  -3.972  -1.049  0.00  0.00    -0.268 OA
BRANCH  53  56
HETATM   56  C   UNK N   1      -8.100  -2.461  -0.216  0.00  0.00     0.183 C 
BRANCH  56  57
HETATM   57  C   UNK N   1      -8.006  -1.260   0.721  0.00  0.00     0.046 C 
BRANCH  57  58
HETATM   58  C   UNK N   1      -8.224   0.047  -0.037  0.00  0.00     0.112 C 
BRANCH  58  59
HETATM   59  C   UNK N   1      -9.678   0.406  -0.084  0.00  0.00     0.139 C 
HETATM   60  O   UNK N   1     -10.485  -0.339  -0.617  0.00  0.00    -0.650 OA
BRANCH  59  61
HETATM   61  O   UNK N   1     -10.095   1.565   0.454  0.00  0.00    -0.776 OA
HETATM   62  H   UNK N   1      -9.541   2.221   0.829  0.00  0.00     0.167 HD
ENDBRANCH  59  61
ENDBRANCH  58  59
ENDBRANCH  57  58
ENDBRANCH  56  57
BRANCH  56  63
HETATM   63  C   UNK N   1      -8.276  -3.729   0.583  0.00  0.00     0.163 C 
HETATM   64  O   UNK N   1      -7.495  -4.661   0.486  0.00  0.00    -0.648 OA
BRANCH  63  65
HETATM   65  O   UNK N   1      -9.338  -3.841   1.405  0.00  0.00    -0.775 OA
HETATM   66  H   UNK N   1      -9.774  -3.240   1.977  0.00  0.00     0.167 HD
ENDBRANCH  63  65
ENDBRANCH  56  63
ENDBRANCH  53  56
ENDBRANCH  49  52
ENDBRANCH   1  46
BRANCH   1  67
HETATM   67  O   UNK N   1      -0.376   0.834  -0.402  0.00  0.00    -0.383 OA
HETATM   68  H   UNK N   1       0.039   0.250  -1.056  0.00  0.00     0.211 HD
ENDBRANCH   1  67
TORSDOF 26
