REMARK  2 active torsions:
REMARK  status: ('A' for Active; 'I' for Inactive)
REMARK    1  A    between atoms: C_2  and  N_3 
REMARK    2  A    between atoms: N_3  and  O_5 
ROOT
HETATM    1  N   UNK N   1       0.949   0.151   0.000  0.00  0.00    -0.305 N 
ATOM      2  HN  UNK N   1       1.719   0.821   0.000  1.00  0.00     0.187 HD
ENDROOT
BRANCH   1   3
HETATM    3  C   UNK N   1       1.226  -1.258  -0.000  0.00  0.00     0.141 C 
HETATM    4  C   UNK N   1       2.725  -1.461   0.000  0.00  0.00     0.028 C 
ENDBRANCH   1   3
BRANCH   1   5
HETATM    5  O   UNK N   1      -0.176   0.539  -0.000  0.00  0.00    -0.295 OA
ATOM      6  HO  UNK N   1      -0.359   1.471   0.000  1.00  0.00     0.244 HD
ENDBRANCH   1   5
TORSDOF 2
