MODEL 1
REMARK VINA RESULT:      -7.5      0.000      0.000
REMARK  7 active torsions:
REMARK  status: ('A' for Active; 'I' for Inactive)
REMARK    1  A    between atoms: C_20  and  C_15 
REMARK    2  A    between atoms: O_31  and  C_16 
REMARK    3  A    between atoms: C_21  and  C_17 
REMARK    4  A    between atoms: C_21  and  C_18 
REMARK    5  A    between atoms: S_32  and  C_19 
REMARK    6  A    between atoms: O_28  and  C_22 
REMARK    7  A    between atoms: N_26  and  C_23 
ROOT
HETATM    1  C   UNK N   1      31.674  17.484   8.324  0.00  0.00     0.050 C 
HETATM    2  C   UNK N   1      34.642  16.036   6.435  0.00  0.00     0.017 A 
HETATM    3  C   UNK N   1      34.093  15.833   5.173  0.00  0.00     0.025 A 
HETATM    4  C   UNK N   1      32.517  16.890   7.229  0.00  0.00    -0.035 A 
HETATM    5  C   UNK N   1      33.881  16.577   7.476  0.00  0.00     0.022 A 
HETATM    6  C   UNK N   1      32.756  16.136   4.906  0.00  0.00     0.070 A 
HETATM    7  C   UNK N   1      31.936  16.653   5.951  0.00  0.00     0.003 A 
ENDROOT
BRANCH   5   8
HETATM    8  C   UNK N   1      34.482  16.741   8.845  0.00  0.00     0.198 C 
HETATM    9  O   UNK N   1      34.849  17.844   9.219  0.00  0.00    -0.286 OA
BRANCH   8  10
HETATM   10  C   UNK N   1      34.511  15.648   9.840  0.00  0.00     0.084 A 
HETATM   11  C   UNK N   1      33.510  14.773  10.229  0.00  0.00     0.127 A 
HETATM   12  N   UNK N   1      33.983  14.021  11.251  0.00  0.00    -0.306 N 
HETATM   13  N   UNK N   1      35.224  14.406  11.532  0.00  0.00    -0.262 N 
ATOM     14  HN  UNK N   1      33.470  13.280  11.729  1.00  0.00     0.186 HD
HETATM   15  C   UNK N   1      35.570  15.382  10.672  0.00  0.00     0.173 A 
BRANCH  13  16
HETATM   16  C   UNK N   1      35.995  13.854  12.660  0.00  0.00     0.045 C 
HETATM   17  C   UNK N   1      35.126  12.867  13.419  0.00  0.00     0.039 C 
HETATM   18  C   UNK N   1      37.221  13.133  12.140  0.00  0.00     0.039 C 
HETATM   19  C   UNK N   1      36.452  14.913  13.652  0.00  0.00     0.039 C 
ENDBRANCH  13  16
BRANCH  15  20
HETATM   20  O   UNK N   1      36.746  16.037  10.674  0.00  0.00    -0.344 OA
HETATM   21  H   UNK N   1      37.502  15.646  10.284  0.00  0.00     0.219 HD
ENDBRANCH  15  20
ENDBRANCH   8  10
ENDBRANCH   5   8
BRANCH   7  22
HETATM   22  C   UNK N   1      30.477  16.927   5.762  0.00  0.00    -0.024 A 
HETATM   23  C   UNK N   1      29.490  16.034   6.198  0.00  0.00     0.015 A 
HETATM   24  C   UNK N   1      28.138  16.298   5.951  0.00  0.00     0.037 A 
HETATM   25  C   UNK N   1      27.755  17.463   5.275  0.00  0.00     0.068 A 
HETATM   26  C   UNK N   1      28.738  18.367   4.853  0.00  0.00     0.037 A 
HETATM   27  C   UNK N   1      30.081  18.095   5.089  0.00  0.00     0.015 A 
BRANCH  25  28
HETATM   28  O   UNK N   1      26.442  17.693   5.039  0.00  0.00    -0.356 OA
HETATM   29  C   UNK N   1      25.969  18.167   3.835  0.00  0.00     0.210 C 
ENDBRANCH  25  28
ENDBRANCH   7  22
BRANCH   6  30
HETATM   30  S   UNK N   1      32.153  15.749   3.246  0.00  0.00     0.172 S 
HETATM   31  C   UNK N   1      30.617  14.853   2.882  0.00  0.00     0.167 C 
HETATM   32  O   UNK N   1      32.115  17.038   2.410  0.00  0.00    -0.223 OA
HETATM   33  O   UNK N   1      33.273  14.996   2.513  0.00  0.00    -0.223 OA
ENDBRANCH   6  30
TORSDOF 7
ENDMDL
MODEL 2
REMARK VINA RESULT:      -7.4      5.630      9.526
REMARK  7 active torsions:
REMARK  status: ('A' for Active; 'I' for Inactive)
REMARK    1  A    between atoms: C_20  and  C_15 
REMARK    2  A    between atoms: O_31  and  C_16 
REMARK    3  A    between atoms: C_21  and  C_17 
REMARK    4  A    between atoms: C_21  and  C_18 
REMARK    5  A    between atoms: S_32  and  C_19 
REMARK    6  A    between atoms: O_28  and  C_22 
REMARK    7  A    between atoms: N_26  and  C_23 
ROOT
HETATM    1  C   UNK N   1      24.521  16.554   5.031  0.00  0.00     0.050 C 
HETATM    2  C   UNK N   1      25.178  20.001   3.563  0.00  0.00     0.017 A 
HETATM    3  C   UNK N   1      23.901  20.376   3.158  0.00  0.00     0.025 A 
HETATM    4  C   UNK N   1      24.310  17.883   4.360  0.00  0.00    -0.035 A 
HETATM    5  C   UNK N   1      25.408  18.767   4.181  0.00  0.00     0.022 A 
HETATM    6  C   UNK N   1      22.807  19.524   3.326  0.00  0.00     0.070 A 
HETATM    7  C   UNK N   1      23.006  18.242   3.916  0.00  0.00     0.003 A 
ENDROOT
BRANCH   5   8
HETATM    8  C   UNK N   1      26.805  18.364   4.566  0.00  0.00     0.198 C 
HETATM    9  O   UNK N   1      27.552  17.887   3.726  0.00  0.00    -0.286 OA
BRANCH   8  10
HETATM   10  C   UNK N   1      27.384  18.664   5.893  0.00  0.00     0.084 A 
HETATM   11  C   UNK N   1      27.501  19.873   6.559  0.00  0.00     0.127 A 
HETATM   12  N   UNK N   1      28.203  19.658   7.698  0.00  0.00    -0.306 N 
HETATM   13  N   UNK N   1      28.548  18.376   7.757  0.00  0.00    -0.262 N 
ATOM     14  HN  UNK N   1      28.429  20.365   8.396  1.00  0.00     0.186 HD
HETATM   15  C   UNK N   1      28.043  17.750   6.677  0.00  0.00     0.173 A 
BRANCH  13  16
HETATM   16  C   UNK N   1      29.403  17.828   8.825  0.00  0.00     0.045 C 
HETATM   17  C   UNK N   1      30.001  18.976   9.619  0.00  0.00     0.039 C 
HETATM   18  C   UNK N   1      28.576  16.965   9.754  0.00  0.00     0.039 C 
HETATM   19  C   UNK N   1      30.559  16.990   8.299  0.00  0.00     0.039 C 
ENDBRANCH  13  16
BRANCH  15  20
HETATM   20  O   UNK N   1      28.217  16.448   6.383  0.00  0.00    -0.344 OA
HETATM   21  H   UNK N   1      27.860  16.093   5.594  0.00  0.00     0.219 HD
ENDBRANCH  15  20
ENDBRANCH   8  10
ENDBRANCH   5   8
BRANCH   7  22
HETATM   22  C   UNK N   1      21.898  17.246   4.058  0.00  0.00    -0.024 A 
HETATM   23  C   UNK N   1      21.649  16.267   3.088  0.00  0.00     0.015 A 
HETATM   24  C   UNK N   1      20.567  15.391   3.228  0.00  0.00     0.037 A 
HETATM   25  C   UNK N   1      19.728  15.474   4.346  0.00  0.00     0.068 A 
HETATM   26  C   UNK N   1      19.984  16.441   5.326  0.00  0.00     0.037 A 
HETATM   27  C   UNK N   1      21.052  17.318   5.177  0.00  0.00     0.015 A 
BRANCH  25  28
HETATM   28  O   UNK N   1      18.682  14.622   4.456  0.00  0.00    -0.356 OA
HETATM   29  C   UNK N   1      18.830  13.252   4.478  0.00  0.00     0.210 C 
ENDBRANCH  25  28
ENDBRANCH   7  22
BRANCH   6  30
HETATM   30  S   UNK N   1      21.220  20.106   2.683  0.00  0.00     0.172 S 
HETATM   31  C   UNK N   1      20.114  19.137   1.620  0.00  0.00     0.167 C 
HETATM   32  O   UNK N   1      20.363  20.625   3.848  0.00  0.00    -0.223 OA
HETATM   33  O   UNK N   1      21.480  21.426   1.942  0.00  0.00    -0.223 OA
ENDBRANCH   6  30
TORSDOF 7
ENDMDL
MODEL 3
REMARK VINA RESULT:      -7.2      6.420     12.650
REMARK  7 active torsions:
REMARK  status: ('A' for Active; 'I' for Inactive)
REMARK    1  A    between atoms: C_20  and  C_15 
REMARK    2  A    between atoms: O_31  and  C_16 
REMARK    3  A    between atoms: C_21  and  C_17 
REMARK    4  A    between atoms: C_21  and  C_18 
REMARK    5  A    between atoms: S_32  and  C_19 
REMARK    6  A    between atoms: O_28  and  C_22 
REMARK    7  A    between atoms: N_26  and  C_23 
ROOT
HETATM    1  C   UNK N   1      34.862  12.651  16.823  0.00  0.00     0.050 C 
HETATM    2  C   UNK N   1      37.546  11.118  14.607  0.00  0.00     0.017 A 
HETATM    3  C   UNK N   1      37.784   9.911  15.256  0.00  0.00     0.025 A 
HETATM    4  C   UNK N   1      35.897  11.703  16.284  0.00  0.00    -0.035 A 
HETATM    5  C   UNK N   1      36.597  12.025  15.090  0.00  0.00     0.022 A 
HETATM    6  C   UNK N   1      37.106   9.573  16.429  0.00  0.00     0.070 A 
HETATM    7  C   UNK N   1      36.159  10.487  16.976  0.00  0.00     0.003 A 
ENDROOT
BRANCH   5   8
HETATM    8  C   UNK N   1      36.393  13.345  14.398  0.00  0.00     0.198 C 
HETATM    9  O   UNK N   1      36.985  14.336  14.793  0.00  0.00    -0.286 OA
BRANCH   8  10
HETATM   10  C   UNK N   1      35.619  13.476  13.145  0.00  0.00     0.084 A 
HETATM   11  C   UNK N   1      34.736  12.592  12.547  0.00  0.00     0.127 A 
HETATM   12  N   UNK N   1      34.363  13.112  11.354  0.00  0.00    -0.306 N 
HETATM   13  N   UNK N   1      34.992  14.268  11.171  0.00  0.00    -0.262 N 
ATOM     14  HN  UNK N   1      33.705  12.686  10.701  1.00  0.00     0.186 HD
HETATM   15  C   UNK N   1      35.747  14.517  12.258  0.00  0.00     0.173 A 
BRANCH  13  16
HETATM   16  C   UNK N   1      34.883  15.048   9.926  0.00  0.00     0.045 C 
HETATM   17  C   UNK N   1      36.009  14.649   8.990  0.00  0.00     0.039 C 
HETATM   18  C   UNK N   1      33.557  14.759   9.253  0.00  0.00     0.039 C 
HETATM   19  C   UNK N   1      34.987  16.551  10.146  0.00  0.00     0.039 C 
ENDBRANCH  13  16
BRANCH  15  20
HETATM   20  O   UNK N   1      36.551  15.585  12.417  0.00  0.00    -0.344 OA
HETATM   21  H   UNK N   1      36.296  16.419  12.075  0.00  0.00     0.219 HD
ENDBRANCH  15  20
ENDBRANCH   8  10
ENDBRANCH   5   8
BRANCH   7  22
HETATM   22  C   UNK N   1      35.452  10.229  18.269  0.00  0.00    -0.024 A 
HETATM   23  C   UNK N   1      35.901  10.764  19.483  0.00  0.00     0.015 A 
HETATM   24  C   UNK N   1      35.246  10.453  20.680  0.00  0.00     0.037 A 
HETATM   25  C   UNK N   1      34.128   9.610  20.677  0.00  0.00     0.068 A 
HETATM   26  C   UNK N   1      33.665   9.086  19.463  0.00  0.00     0.037 A 
HETATM   27  C   UNK N   1      34.326   9.389  18.278  0.00  0.00     0.015 A 
BRANCH  25  28
HETATM   28  O   UNK N   1      33.516   9.315  21.848  0.00  0.00    -0.356 OA
HETATM   29  C   UNK N   1      32.620  10.164  22.461  0.00  0.00     0.210 C 
ENDBRANCH  25  28
ENDBRANCH   7  22
BRANCH   6  30
HETATM   30  S   UNK N   1      37.570   8.010  17.212  0.00  0.00     0.172 S 
HETATM   31  C   UNK N   1      38.074   7.826  18.945  0.00  0.00     0.167 C 
HETATM   32  O   UNK N   1      36.460   6.975  16.968  0.00  0.00    -0.223 OA
HETATM   33  O   UNK N   1      38.694   7.390  16.370  0.00  0.00    -0.223 OA
ENDBRANCH   6  30
TORSDOF 7
ENDMDL
MODEL 4
REMARK VINA RESULT:      -7.1      3.246      5.145
REMARK  7 active torsions:
REMARK  status: ('A' for Active; 'I' for Inactive)
REMARK    1  A    between atoms: C_20  and  C_15 
REMARK    2  A    between atoms: O_31  and  C_16 
REMARK    3  A    between atoms: C_21  and  C_17 
REMARK    4  A    between atoms: C_21  and  C_18 
REMARK    5  A    between atoms: S_32  and  C_19 
REMARK    6  A    between atoms: O_28  and  C_22 
REMARK    7  A    between atoms: N_26  and  C_23 
ROOT
HETATM    1  C   UNK N   1      35.545  12.729   8.542  0.00  0.00     0.050 C 
HETATM    2  C   UNK N   1      36.148  15.686  10.857  0.00  0.00     0.017 A 
HETATM    3  C   UNK N   1      35.500  16.710  10.173  0.00  0.00     0.025 A 
HETATM    4  C   UNK N   1      35.546  14.123   9.105  0.00  0.00    -0.035 A 
HETATM    5  C   UNK N   1      36.173  14.382  10.354  0.00  0.00     0.022 A 
HETATM    6  C   UNK N   1      34.875  16.478   8.945  0.00  0.00     0.070 A 
HETATM    7  C   UNK N   1      34.911  15.171   8.379  0.00  0.00     0.003 A 
ENDROOT
BRANCH   5   8
HETATM    8  C   UNK N   1      36.921  13.303  11.088  0.00  0.00     0.198 C 
HETATM    9  O   UNK N   1      38.135  13.223  10.977  0.00  0.00    -0.286 OA
BRANCH   8  10
HETATM   10  C   UNK N   1      36.274  12.415  12.078  0.00  0.00     0.084 A 
HETATM   11  C   UNK N   1      35.385  11.370  11.888  0.00  0.00     0.127 A 
HETATM   12  N   UNK N   1      34.986  10.931  13.105  0.00  0.00    -0.306 N 
HETATM   13  N   UNK N   1      35.568  11.672  14.043  0.00  0.00    -0.262 N 
ATOM     14  HN  UNK N   1      34.344  10.158  13.275  1.00  0.00     0.186 HD
HETATM   15  C   UNK N   1      36.370  12.568  13.439  0.00  0.00     0.173 A 
BRANCH  13  16
HETATM   16  C   UNK N   1      35.273  11.518  15.478  0.00  0.00     0.045 C 
HETATM   17  C   UNK N   1      34.148  10.513  15.649  0.00  0.00     0.039 C 
HETATM   18  C   UNK N   1      36.501  11.011  16.204  0.00  0.00     0.039 C 
HETATM   19  C   UNK N   1      34.828  12.813  16.143  0.00  0.00     0.039 C 
ENDBRANCH  13  16
BRANCH  15  20
HETATM   20  O   UNK N   1      37.098  13.508  14.070  0.00  0.00    -0.344 OA
HETATM   21  H   UNK N   1      37.129  14.382  13.735  0.00  0.00     0.219 HD
ENDBRANCH  15  20
ENDBRANCH   8  10
ENDBRANCH   5   8
BRANCH   7  22
HETATM   22  C   UNK N   1      34.333  14.865   7.034  0.00  0.00    -0.024 A 
HETATM   23  C   UNK N   1      35.122  14.817   5.877  0.00  0.00     0.015 A 
HETATM   24  C   UNK N   1      34.536  14.585   4.629  0.00  0.00     0.037 A 
HETATM   25  C   UNK N   1      33.153  14.388   4.521  0.00  0.00     0.068 A 
HETATM   26  C   UNK N   1      32.363  14.419   5.676  0.00  0.00     0.037 A 
HETATM   27  C   UNK N   1      32.948  14.662   6.914  0.00  0.00     0.015 A 
BRANCH  25  28
HETATM   28  O   UNK N   1      32.606  14.175   3.301  0.00  0.00    -0.356 OA
HETATM   29  C   UNK N   1      31.307  14.515   2.992  0.00  0.00     0.210 C 
ENDBRANCH  25  28
ENDBRANCH   7  22
BRANCH   6  30
HETATM   30  S   UNK N   1      34.140  17.914   8.127  0.00  0.00     0.172 S 
HETATM   31  C   UNK N   1      32.378  18.344   8.172  0.00  0.00     0.167 C 
HETATM   32  O   UNK N   1      34.909  19.179   8.540  0.00  0.00    -0.223 OA
HETATM   33  O   UNK N   1      34.527  17.846   6.642  0.00  0.00    -0.223 OA
ENDBRANCH   6  30
TORSDOF 7
ENDMDL
MODEL 5
REMARK VINA RESULT:      -6.9      2.303      3.595
REMARK  7 active torsions:
REMARK  status: ('A' for Active; 'I' for Inactive)
REMARK    1  A    between atoms: C_20  and  C_15 
REMARK    2  A    between atoms: O_31  and  C_16 
REMARK    3  A    between atoms: C_21  and  C_17 
REMARK    4  A    between atoms: C_21  and  C_18 
REMARK    5  A    between atoms: S_32  and  C_19 
REMARK    6  A    between atoms: O_28  and  C_22 
REMARK    7  A    between atoms: N_26  and  C_23 
ROOT
HETATM    1  C   UNK N   1      32.710  15.916   5.582  0.00  0.00     0.050 C 
HETATM    2  C   UNK N   1      32.030  18.068   8.644  0.00  0.00     0.017 A 
HETATM    3  C   UNK N   1      30.647  18.205   8.584  0.00  0.00     0.025 A 
HETATM    4  C   UNK N   1      31.994  16.732   6.622  0.00  0.00    -0.035 A 
HETATM    5  C   UNK N   1      32.726  17.324   7.686  0.00  0.00     0.022 A 
HETATM    6  C   UNK N   1      29.906  17.630   7.548  0.00  0.00     0.070 A 
HETATM    7  C   UNK N   1      30.582  16.896   6.531  0.00  0.00     0.003 A 
ENDROOT
BRANCH   5   8
HETATM    8  C   UNK N   1      34.227  17.231   7.746  0.00  0.00     0.198 C 
HETATM    9  O   UNK N   1      34.909  18.172   7.374  0.00  0.00    -0.286 OA
BRANCH   8  10
HETATM   10  C   UNK N   1      34.930  16.100   8.388  0.00  0.00     0.084 A 
HETATM   11  C   UNK N   1      35.419  14.927   7.836  0.00  0.00     0.127 A 
HETATM   12  N   UNK N   1      35.885  14.151   8.843  0.00  0.00    -0.306 N 
HETATM   13  N   UNK N   1      35.687  14.778   9.998  0.00  0.00    -0.262 N 
ATOM     14  HN  UNK N   1      36.318  13.235   8.733  1.00  0.00     0.186 HD
HETATM   15  C   UNK N   1      35.124  15.974   9.741  0.00  0.00     0.173 A 
BRANCH  13  16
HETATM   16  C   UNK N   1      35.994  14.164  11.302  0.00  0.00     0.045 C 
HETATM   17  C   UNK N   1      34.862  13.230  11.690  0.00  0.00     0.039 C 
HETATM   18  C   UNK N   1      37.279  13.367  11.205  0.00  0.00     0.039 C 
HETATM   19  C   UNK N   1      36.149  15.180  12.424  0.00  0.00     0.039 C 
ENDBRANCH  13  16
BRANCH  15  20
HETATM   20  O   UNK N   1      34.750  16.871  10.672  0.00  0.00    -0.344 OA
HETATM   21  H   UNK N   1      34.793  17.788  10.484  0.00  0.00     0.219 HD
ENDBRANCH  15  20
ENDBRANCH   8  10
ENDBRANCH   5   8
BRANCH   7  22
HETATM   22  C   UNK N   1      29.866  16.319   5.351  0.00  0.00    -0.024 A 
HETATM   23  C   UNK N   1      29.348  15.017   5.358  0.00  0.00     0.015 A 
HETATM   24  C   UNK N   1      28.736  14.492   4.215  0.00  0.00     0.037 A 
HETATM   25  C   UNK N   1      28.624  15.265   3.053  0.00  0.00     0.068 A 
HETATM   26  C   UNK N   1      29.126  16.573   3.047  0.00  0.00     0.037 A 
HETATM   27  C   UNK N   1      29.744  17.087   4.181  0.00  0.00     0.015 A 
BRANCH  25  28
HETATM   28  O   UNK N   1      28.037  14.734   1.955  0.00  0.00    -0.356 OA
HETATM   29  C   UNK N   1      26.670  14.677   1.789  0.00  0.00     0.210 C 
ENDBRANCH  25  28
ENDBRANCH   7  22
BRANCH   6  30
HETATM   30  S   UNK N   1      28.127  17.954   7.549  0.00  0.00     0.172 S 
HETATM   31  C   UNK N   1      27.237  18.861   6.254  0.00  0.00     0.167 C 
HETATM   32  O   UNK N   1      27.373  16.630   7.751  0.00  0.00    -0.223 OA
HETATM   33  O   UNK N   1      27.786  18.652   8.873  0.00  0.00    -0.223 OA
ENDBRANCH   6  30
TORSDOF 7
ENDMDL
MODEL 6
REMARK VINA RESULT:      -6.8      2.935      3.894
REMARK  7 active torsions:
REMARK  status: ('A' for Active; 'I' for Inactive)
REMARK    1  A    between atoms: C_20  and  C_15 
REMARK    2  A    between atoms: O_31  and  C_16 
REMARK    3  A    between atoms: C_21  and  C_17 
REMARK    4  A    between atoms: C_21  and  C_18 
REMARK    5  A    between atoms: S_32  and  C_19 
REMARK    6  A    between atoms: O_28  and  C_22 
REMARK    7  A    between atoms: N_26  and  C_23 
ROOT
HETATM    1  C   UNK N   1      34.710  15.431  10.656  0.00  0.00     0.050 C 
HETATM    2  C   UNK N   1      36.444  13.582   7.820  0.00  0.00     0.017 A 
HETATM    3  C   UNK N   1      35.738  14.048   6.715  0.00  0.00     0.025 A 
HETATM    4  C   UNK N   1      35.059  14.932   9.281  0.00  0.00    -0.035 A 
HETATM    5  C   UNK N   1      36.136  14.020   9.112  0.00  0.00     0.022 A 
HETATM    6  C   UNK N   1      34.678  14.946   6.858  0.00  0.00     0.070 A 
HETATM    7  C   UNK N   1      34.307  15.387   8.161  0.00  0.00     0.003 A 
ENDROOT
BRANCH   5   8
HETATM    8  C   UNK N   1      36.881  13.465  10.295  0.00  0.00     0.198 C 
HETATM    9  O   UNK N   1      38.016  13.849  10.531  0.00  0.00    -0.286 OA
BRANCH   8  10
HETATM   10  C   UNK N   1      36.245  12.581  11.295  0.00  0.00     0.084 A 
HETATM   11  C   UNK N   1      35.340  11.547  11.121  0.00  0.00     0.127 A 
HETATM   12  N   UNK N   1      34.963  11.108  12.345  0.00  0.00    -0.306 N 
HETATM   13  N   UNK N   1      35.573  11.839  13.273  0.00  0.00    -0.262 N 
ATOM     14  HN  UNK N   1      34.315  10.342  12.526  1.00  0.00     0.186 HD
HETATM   15  C   UNK N   1      36.372  12.728  12.654  0.00  0.00     0.173 A 
BRANCH  13  16
HETATM   16  C   UNK N   1      35.307  11.684  14.713  0.00  0.00     0.045 C 
HETATM   17  C   UNK N   1      34.146  10.723  14.903  0.00  0.00     0.039 C 
HETATM   18  C   UNK N   1      36.531  11.119  15.404  0.00  0.00     0.039 C 
HETATM   19  C   UNK N   1      34.932  12.989  15.401  0.00  0.00     0.039 C 
ENDBRANCH  13  16
BRANCH  15  20
HETATM   20  O   UNK N   1      37.124  13.658  13.273  0.00  0.00    -0.344 OA
HETATM   21  H   UNK N   1      36.770  14.147  13.989  0.00  0.00     0.219 HD
ENDBRANCH  15  20
ENDBRANCH   8  10
ENDBRANCH   5   8
BRANCH   7  22
HETATM   22  C   UNK N   1      33.136  16.286   8.399  0.00  0.00    -0.024 A 
HETATM   23  C   UNK N   1      31.847  15.786   8.625  0.00  0.00     0.015 A 
HETATM   24  C   UNK N   1      30.766  16.660   8.785  0.00  0.00     0.037 A 
HETATM   25  C   UNK N   1      30.961  18.046   8.732  0.00  0.00     0.068 A 
HETATM   26  C   UNK N   1      32.251  18.550   8.523  0.00  0.00     0.037 A 
HETATM   27  C   UNK N   1      33.320  17.678   8.352  0.00  0.00     0.015 A 
BRANCH  25  28
HETATM   28  O   UNK N   1      29.899  18.872   8.881  0.00  0.00    -0.356 OA
HETATM   29  C   UNK N   1      28.624  18.416   9.135  0.00  0.00     0.210 C 
ENDBRANCH  25  28
ENDBRANCH   7  22
BRANCH   6  30
HETATM   30  S   UNK N   1      33.797  15.407   5.346  0.00  0.00     0.172 S 
HETATM   31  C   UNK N   1      33.403  17.108   4.852  0.00  0.00     0.167 C 
HETATM   32  O   UNK N   1      34.488  14.750   4.140  0.00  0.00    -0.223 OA
HETATM   33  O   UNK N   1      32.468  14.638   5.336  0.00  0.00    -0.223 OA
ENDBRANCH   6  30
TORSDOF 7
ENDMDL
MODEL 7
REMARK VINA RESULT:      -6.7     13.171     16.412
REMARK  7 active torsions:
REMARK  status: ('A' for Active; 'I' for Inactive)
REMARK    1  A    between atoms: C_20  and  C_15 
REMARK    2  A    between atoms: O_31  and  C_16 
REMARK    3  A    between atoms: C_21  and  C_17 
REMARK    4  A    between atoms: C_21  and  C_18 
REMARK    5  A    between atoms: S_32  and  C_19 
REMARK    6  A    between atoms: O_28  and  C_22 
REMARK    7  A    between atoms: N_26  and  C_23 
ROOT
HETATM    1  C   UNK N   1      28.987  22.501  -5.926  0.00  0.00     0.050 C 
HETATM    2  C   UNK N   1      31.008  22.356  -2.706  0.00  0.00     0.017 A 
HETATM    3  C   UNK N   1      32.061  21.526  -3.078  0.00  0.00     0.025 A 
HETATM    4  C   UNK N   1      30.051  22.147  -4.923  0.00  0.00    -0.035 A 
HETATM    5  C   UNK N   1      29.999  22.695  -3.613  0.00  0.00     0.022 A 
HETATM    6  C   UNK N   1      32.134  20.978  -4.361  0.00  0.00     0.070 A 
HETATM    7  C   UNK N   1      31.105  21.268  -5.303  0.00  0.00     0.003 A 
ENDROOT
BRANCH   5   8
HETATM    8  C   UNK N   1      28.846  23.555  -3.173  0.00  0.00     0.198 C 
HETATM    9  O   UNK N   1      28.193  23.238  -2.191  0.00  0.00    -0.286 OA
BRANCH   8  10
HETATM   10  C   UNK N   1      28.553  24.870  -3.783  0.00  0.00     0.084 A 
HETATM   11  C   UNK N   1      29.414  25.886  -4.161  0.00  0.00     0.127 A 
HETATM   12  N   UNK N   1      28.667  26.940  -4.570  0.00  0.00    -0.306 N 
HETATM   13  N   UNK N   1      27.381  26.633  -4.440  0.00  0.00    -0.262 N 
ATOM     14  HN  UNK N   1      29.033  27.824  -4.920  1.00  0.00     0.186 HD
HETATM   15  C   UNK N   1      27.290  25.371  -3.980  0.00  0.00     0.173 A 
BRANCH  13  16
HETATM   16  C   UNK N   1      26.299  27.597  -4.707  0.00  0.00     0.045 C 
HETATM   17  C   UNK N   1      25.649  27.990  -3.392  0.00  0.00     0.039 C 
HETATM   18  C   UNK N   1      26.868  28.837  -5.365  0.00  0.00     0.039 C 
HETATM   19  C   UNK N   1      25.205  27.041  -5.606  0.00  0.00     0.039 C 
ENDBRANCH  13  16
BRANCH  15  20
HETATM   20  O   UNK N   1      26.141  24.729  -3.696  0.00  0.00    -0.344 OA
HETATM   21  H   UNK N   1      25.987  23.870  -4.035  0.00  0.00     0.219 HD
ENDBRANCH  15  20
ENDBRANCH   8  10
ENDBRANCH   5   8
BRANCH   7  22
HETATM   22  C   UNK N   1      31.073  20.656  -6.668  0.00  0.00    -0.024 A 
HETATM   23  C   UNK N   1      31.731  21.237  -7.759  0.00  0.00     0.015 A 
HETATM   24  C   UNK N   1      31.630  20.666  -9.033  0.00  0.00     0.037 A 
HETATM   25  C   UNK N   1      30.879  19.500  -9.229  0.00  0.00     0.068 A 
HETATM   26  C   UNK N   1      30.233  18.907  -8.137  0.00  0.00     0.037 A 
HETATM   27  C   UNK N   1      30.326  19.485  -6.876  0.00  0.00     0.015 A 
BRANCH  25  28
HETATM   28  O   UNK N   1      30.787  18.971 -10.472  0.00  0.00    -0.356 OA
HETATM   29  C   UNK N   1      30.530  17.636 -10.701  0.00  0.00     0.210 C 
ENDBRANCH  25  28
ENDBRANCH   7  22
BRANCH   6  30
HETATM   30  S   UNK N   1      33.513  19.853  -4.685  0.00  0.00     0.172 S 
HETATM   31  C   UNK N   1      34.341  19.661  -6.288  0.00  0.00     0.167 C 
HETATM   32  O   UNK N   1      34.620  20.102  -3.648  0.00  0.00    -0.223 OA
HETATM   33  O   UNK N   1      33.068  18.446  -4.259  0.00  0.00    -0.223 OA
ENDBRANCH   6  30
TORSDOF 7
ENDMDL
MODEL 8
REMARK VINA RESULT:      -6.7     13.753     16.950
REMARK  7 active torsions:
REMARK  status: ('A' for Active; 'I' for Inactive)
REMARK    1  A    between atoms: C_20  and  C_15 
REMARK    2  A    between atoms: O_31  and  C_16 
REMARK    3  A    between atoms: C_21  and  C_17 
REMARK    4  A    between atoms: C_21  and  C_18 
REMARK    5  A    between atoms: S_32  and  C_19 
REMARK    6  A    between atoms: O_28  and  C_22 
REMARK    7  A    between atoms: N_26  and  C_23 
ROOT
HETATM    1  C   UNK N   1      29.757  23.624  -3.512  0.00  0.00     0.050 C 
HETATM    2  C   UNK N   1      26.944  23.780  -6.067  0.00  0.00     0.017 A 
HETATM    3  C   UNK N   1      27.341  22.803  -6.974  0.00  0.00     0.025 A 
HETATM    4  C   UNK N   1      28.920  23.352  -4.730  0.00  0.00    -0.035 A 
HETATM    5  C   UNK N   1      27.706  24.063  -4.929  0.00  0.00     0.022 A 
HETATM    6  C   UNK N   1      28.529  22.089  -6.798  0.00  0.00     0.070 A 
HETATM    7  C   UNK N   1      29.354  22.375  -5.672  0.00  0.00     0.003 A 
ENDROOT
BRANCH   5   8
HETATM    8  C   UNK N   1      27.281  25.157  -3.988  0.00  0.00     0.198 C 
HETATM    9  O   UNK N   1      26.610  24.886  -3.005  0.00  0.00    -0.286 OA
BRANCH   8  10
HETATM   10  C   UNK N   1      27.772  26.547  -4.107  0.00  0.00     0.084 A 
HETATM   11  C   UNK N   1      28.904  27.039  -4.737  0.00  0.00     0.127 A 
HETATM   12  N   UNK N   1      28.984  28.366  -4.479  0.00  0.00    -0.306 N 
HETATM   13  N   UNK N   1      27.967  28.716  -3.698  0.00  0.00    -0.262 N 
ATOM     14  HN  UNK N   1      29.707  28.995  -4.828  1.00  0.00     0.186 HD
HETATM   15  C   UNK N   1      27.208  27.627  -3.476  0.00  0.00     0.173 A 
BRANCH  13  16
HETATM   16  C   UNK N   1      27.812  30.076  -3.151  0.00  0.00     0.045 C 
HETATM   17  C   UNK N   1      28.886  30.973  -3.740  0.00  0.00     0.039 C 
HETATM   18  C   UNK N   1      26.451  30.627  -3.523  0.00  0.00     0.039 C 
HETATM   19  C   UNK N   1      27.951  30.135  -1.637  0.00  0.00     0.039 C 
ENDBRANCH  13  16
BRANCH  15  20
HETATM   20  O   UNK N   1      26.108  27.593  -2.701  0.00  0.00    -0.344 OA
HETATM   21  H   UNK N   1      26.138  27.927  -1.827  0.00  0.00     0.219 HD
ENDBRANCH  15  20
ENDBRANCH   8  10
ENDBRANCH   5   8
BRANCH   7  22
HETATM   22  C   UNK N   1      30.676  21.709  -5.459  0.00  0.00    -0.024 A 
HETATM   23  C   UNK N   1      30.802  20.521  -4.727  0.00  0.00     0.015 A 
HETATM   24  C   UNK N   1      32.063  19.959  -4.500  0.00  0.00     0.037 A 
HETATM   25  C   UNK N   1      33.214  20.572  -5.011  0.00  0.00     0.068 A 
HETATM   26  C   UNK N   1      33.091  21.750  -5.757  0.00  0.00     0.037 A 
HETATM   27  C   UNK N   1      31.837  22.312  -5.970  0.00  0.00     0.015 A 
BRANCH  25  28
HETATM   28  O   UNK N   1      34.424  20.015  -4.771  0.00  0.00    -0.356 OA
HETATM   29  C   UNK N   1      34.594  18.673  -4.508  0.00  0.00     0.210 C 
ENDBRANCH  25  28
ENDBRANCH   7  22
BRANCH   6  30
HETATM   30  S   UNK N   1      28.963  20.905  -8.095  0.00  0.00     0.172 S 
HETATM   31  C   UNK N   1      30.448  21.002  -9.133  0.00  0.00     0.167 C 
HETATM   32  O   UNK N   1      28.930  19.484  -7.511  0.00  0.00    -0.223 OA
HETATM   33  O   UNK N   1      27.770  20.820  -9.058  0.00  0.00    -0.223 OA
ENDBRANCH   6  30
TORSDOF 7
ENDMDL
MODEL 9
REMARK VINA RESULT:      -6.6      2.302      2.786
REMARK  7 active torsions:
REMARK  status: ('A' for Active; 'I' for Inactive)
REMARK    1  A    between atoms: C_20  and  C_15 
REMARK    2  A    between atoms: O_31  and  C_16 
REMARK    3  A    between atoms: C_21  and  C_17 
REMARK    4  A    between atoms: C_21  and  C_18 
REMARK    5  A    between atoms: S_32  and  C_19 
REMARK    6  A    between atoms: O_28  and  C_22 
REMARK    7  A    between atoms: N_26  and  C_23 
ROOT
HETATM    1  C   UNK N   1      32.322  17.723   7.204  0.00  0.00     0.050 C 
HETATM    2  C   UNK N   1      32.632  14.097   6.097  0.00  0.00     0.017 A 
HETATM    3  C   UNK N   1      31.369  13.863   5.563  0.00  0.00     0.025 A 
HETATM    4  C   UNK N   1      31.986  16.368   6.647  0.00  0.00    -0.035 A 
HETATM    5  C   UNK N   1      32.971  15.344   6.632  0.00  0.00     0.022 A 
HETATM    6  C   UNK N   1      30.385  14.855   5.565  0.00  0.00     0.070 A 
HETATM    7  C   UNK N   1      30.678  16.127   6.135  0.00  0.00     0.003 A 
ENDROOT
BRANCH   5   8
HETATM    8  C   UNK N   1      34.327  15.558   7.248  0.00  0.00     0.198 C 
HETATM    9  O   UNK N   1      35.250  15.961   6.558  0.00  0.00    -0.286 OA
BRANCH   8  10
HETATM   10  C   UNK N   1      34.567  15.454   8.703  0.00  0.00     0.084 A 
HETATM   11  C   UNK N   1      34.454  16.416   9.694  0.00  0.00     0.127 A 
HETATM   12  N   UNK N   1      34.887  15.873  10.857  0.00  0.00    -0.306 N 
HETATM   13  N   UNK N   1      35.285  14.626  10.629  0.00  0.00    -0.262 N 
ATOM     14  HN  UNK N   1      34.904  16.345  11.761  1.00  0.00     0.186 HD
HETATM   15  C   UNK N   1      35.081  14.346   9.328  0.00  0.00     0.173 A 
BRANCH  13  16
HETATM   16  C   UNK N   1      35.904  13.783  11.668  0.00  0.00     0.045 C 
HETATM   17  C   UNK N   1      36.033  14.589  12.948  0.00  0.00     0.039 C 
HETATM   18  C   UNK N   1      35.034  12.573  11.933  0.00  0.00     0.039 C 
HETATM   19  C   UNK N   1      37.297  13.296  11.297  0.00  0.00     0.039 C 
ENDBRANCH  13  16
BRANCH  15  20
HETATM   20  O   UNK N   1      35.396  13.184   8.726  0.00  0.00    -0.344 OA
HETATM   21  H   UNK N   1      35.642  13.175   7.822  0.00  0.00     0.219 HD
ENDBRANCH  15  20
ENDBRANCH   8  10
ENDBRANCH   5   8
BRANCH   7  22
HETATM   22  C   UNK N   1      29.653  17.211   6.245  0.00  0.00    -0.024 A 
HETATM   23  C   UNK N   1      29.279  17.995   5.146  0.00  0.00     0.015 A 
HETATM   24  C   UNK N   1      28.359  19.038   5.301  0.00  0.00     0.037 A 
HETATM   25  C   UNK N   1      27.793  19.303   6.554  0.00  0.00     0.068 A 
HETATM   26  C   UNK N   1      28.151  18.510   7.651  0.00  0.00     0.037 A 
HETATM   27  C   UNK N   1      29.075  17.483   7.496  0.00  0.00     0.015 A 
BRANCH  25  28
HETATM   28  O   UNK N   1      26.912  20.323   6.683  0.00  0.00    -0.356 OA
HETATM   29  C   UNK N   1      27.087  21.546   6.071  0.00  0.00     0.210 C 
ENDBRANCH  25  28
ENDBRANCH   7  22
BRANCH   6  30
HETATM   30  S   UNK N   1      28.764  14.390   4.911  0.00  0.00     0.172 S 
HETATM   31  C   UNK N   1      27.178  14.751   5.714  0.00  0.00     0.167 C 
HETATM   32  O   UNK N   1      28.644  14.888   3.462  0.00  0.00    -0.223 OA
HETATM   33  O   UNK N   1      28.785  12.874   4.664  0.00  0.00    -0.223 OA
ENDBRANCH   6  30
TORSDOF 7
ENDMDL
