REMARK  9 active torsions:
REMARK  status: ('A' for Active; 'I' for Inactive)
REMARK    1  A    between atoms: C_1  and  C_10 
REMARK    2  A    between atoms: C_3  and  O_12 
REMARK    3  A    between atoms: C_4  and  O_7 
REMARK    4  A    between atoms: C_5  and  O_8 
REMARK    5  A    between atoms: C_6  and  O_9 
REMARK    6  A    between atoms: C_10  and  O_11 
REMARK    7  A    between atoms: P_15  and  O_12 
REMARK    8  A    between atoms: P_15  and  O_14 
REMARK    9  A    between atoms: P_15  and  O_16 
ROOT
HETATM    1  C   UNK N   1      -1.296   1.048   0.130  0.00  0.00     0.179 C 
HETATM    2  O   UNK N   1      -0.104   1.300  -0.580  0.00  0.00    -0.348 OA
HETATM    3  C   UNK N   1       0.935   0.570   0.031  0.00  0.00     0.303 C 
HETATM    4  C   UNK N   1       0.711  -0.933  -0.203  0.00  0.00     0.205 C 
HETATM    5  C   UNK N   1      -0.636  -1.328   0.392  0.00  0.00     0.183 C 
HETATM    6  C   UNK N   1      -1.733  -0.405  -0.126  0.00  0.00     0.180 C 
ENDROOT
BRANCH   3   7
HETATM    7  O   UNK N   1       2.155   0.959  -0.544  0.00  0.00    -0.263 OA
BRANCH   7   8
HETATM    8  P   UNK N   1       3.278   1.138   0.774  0.00  0.00     0.393 P 
HETATM    9  O   UNK N   1       3.976   0.086  -0.131  0.00  0.00    -0.631 OA
BRANCH   8  10
HETATM   10  O   UNK N   1       3.141   2.650  -0.068  0.00  0.00    -0.307 OA
HETATM   11  H   UNK N   1       3.835   3.139  -0.538  0.00  0.00     0.222 HD
ENDBRANCH   8  10
BRANCH   8  12
HETATM   12  O   UNK N   1       4.849   1.822   0.495  0.00  0.00    -0.307 OA
HETATM   13  H   UNK N   1       5.619   1.253   0.339  0.00  0.00     0.222 HD
ENDBRANCH   8  12
ENDBRANCH   7   8
ENDBRANCH   3   7
BRANCH   4  14
HETATM   14  O   UNK N   1       1.720  -1.678   0.410  0.00  0.00    -0.388 OA
HETATM   15  H   UNK N   1       1.622  -2.544   0.836  0.00  0.00     0.210 HD
ENDBRANCH   4  14
BRANCH   1  16
HETATM   16  C   UNK N   1      -2.352   2.039  -0.345  0.00  0.00     0.198 C 
BRANCH  16  17
HETATM   17  O   UNK N   1      -3.486   1.982   0.466  0.00  0.00    -0.398 OA
HETATM   18  H   UNK N   1      -3.915   2.645   1.030  0.00  0.00     0.209 HD
ENDBRANCH  16  17
ENDBRANCH   1  16
BRANCH   5  19
HETATM   19  O   UNK N   1      -0.929  -2.654   0.070  0.00  0.00    -0.390 OA
HETATM   20  H   UNK N   1      -1.829  -2.938  -0.153  0.00  0.00     0.210 HD
ENDBRANCH   5  19
BRANCH   6  21
HETATM   21  O   UNK N   1      -2.927  -0.695   0.540  0.00  0.00    -0.390 OA
HETATM   22  H   UNK N   1      -3.516  -0.078   1.003  0.00  0.00     0.210 HD
ENDBRANCH   6  21
TORSDOF 9
