MODEL 1
REMARK VINA RESULT:      -3.6      0.000      0.000
REMARK  4 active torsions:
REMARK  status: ('A' for Active; 'I' for Inactive)
REMARK    1  A    between atoms: O_1  and  C_2 
REMARK    2  A    between atoms: C_2  and  C_3 
REMARK    3  A    between atoms: C_3  and  O_4 
REMARK    4  A    between atoms: C_3  and  C_5 
ROOT
HETATM    1  C   UNK N   1      21.080  20.894   2.272  0.00  0.00     0.202 C 
ENDROOT
BRANCH   1   2
HETATM    2  C   UNK N   1      20.652  21.048   0.823  0.00  0.00     0.203 C 
BRANCH   2   3
HETATM    3  O   UNK N   1      20.648  19.808   0.182  0.00  0.00    -0.398 OA
HETATM    4  H   UNK N   1      21.111  19.054   0.582  0.00  0.00     0.209 HD
ENDBRANCH   2   3
ENDBRANCH   1   2
BRANCH   1   5
HETATM    5  O   UNK N   1      22.109  21.694   2.772  0.00  0.00    -0.387 OA
HETATM    6  H   UNK N   1      22.182  22.621   2.494  0.00  0.00     0.210 HD
ENDBRANCH   1   5
BRANCH   1   7
HETATM    7  C   UNK N   1      20.436  19.909   3.192  0.00  0.00     0.264 C 
HETATM    8  O   UNK N   1      20.726  19.893   4.375  0.00  0.00    -0.304 OA
ENDBRANCH   1   7
TORSDOF 4
ENDMDL
MODEL 2
REMARK VINA RESULT:      -3.6     15.136     15.728
REMARK  4 active torsions:
REMARK  status: ('A' for Active; 'I' for Inactive)
REMARK    1  A    between atoms: O_1  and  C_2 
REMARK    2  A    between atoms: C_2  and  C_3 
REMARK    3  A    between atoms: C_3  and  O_4 
REMARK    4  A    between atoms: C_3  and  C_5 
ROOT
HETATM    1  C   UNK N   1      34.068  17.272   9.038  0.00  0.00     0.202 C 
ENDROOT
BRANCH   1   2
HETATM    2  C   UNK N   1      34.457  18.305   7.995  0.00  0.00     0.203 C 
BRANCH   2   3
HETATM    3  O   UNK N   1      35.319  19.253   8.548  0.00  0.00    -0.398 OA
HETATM    4  H   UNK N   1      36.146  18.969   8.971  0.00  0.00     0.209 HD
ENDBRANCH   2   3
ENDBRANCH   1   2
BRANCH   1   5
HETATM    5  O   UNK N   1      32.733  16.877   9.148  0.00  0.00    -0.387 OA
HETATM    6  H   UNK N   1      32.252  16.569   8.363  0.00  0.00     0.210 HD
ENDBRANCH   1   5
BRANCH   1   7
HETATM    7  C   UNK N   1      35.068  16.656   9.961  0.00  0.00     0.264 C 
HETATM    8  O   UNK N   1      35.890  17.353  10.529  0.00  0.00    -0.304 OA
ENDBRANCH   1   7
TORSDOF 4
ENDMDL
MODEL 3
REMARK VINA RESULT:      -3.6      1.385      2.227
REMARK  4 active torsions:
REMARK  status: ('A' for Active; 'I' for Inactive)
REMARK    1  A    between atoms: O_1  and  C_2 
REMARK    2  A    between atoms: C_2  and  C_3 
REMARK    3  A    between atoms: C_3  and  O_4 
REMARK    4  A    between atoms: C_3  and  C_5 
ROOT
HETATM    1  C   UNK N   1      20.806  20.148   1.291  0.00  0.00     0.202 C 
ENDROOT
BRANCH   1   2
HETATM    2  C   UNK N   1      20.466  18.670   1.387  0.00  0.00     0.203 C 
BRANCH   2   3
HETATM    3  O   UNK N   1      20.265  18.134   0.113  0.00  0.00    -0.398 OA
HETATM    4  H   UNK N   1      20.111  17.181   0.007  0.00  0.00     0.209 HD
ENDBRANCH   2   3
ENDBRANCH   1   2
BRANCH   1   5
HETATM    5  O   UNK N   1      20.820  20.769   0.041  0.00  0.00    -0.387 OA
HETATM    6  H   UNK N   1      20.479  21.673  -0.055  0.00  0.00     0.210 HD
ENDBRANCH   1   5
BRANCH   1   7
HETATM    7  C   UNK N   1      21.130  20.969   2.496  0.00  0.00     0.264 C 
HETATM    8  O   UNK N   1      22.279  21.305   2.720  0.00  0.00    -0.304 OA
ENDBRANCH   1   7
TORSDOF 4
ENDMDL
MODEL 4
REMARK VINA RESULT:      -3.6     14.758     15.484
REMARK  4 active torsions:
REMARK  status: ('A' for Active; 'I' for Inactive)
REMARK    1  A    between atoms: O_1  and  C_2 
REMARK    2  A    between atoms: C_2  and  C_3 
REMARK    3  A    between atoms: C_3  and  O_4 
REMARK    4  A    between atoms: C_3  and  C_5 
ROOT
HETATM    1  C   UNK N   1      34.608  18.017   8.374  0.00  0.00     0.202 C 
ENDROOT
BRANCH   1   2
HETATM    2  C   UNK N   1      34.785  16.874   9.359  0.00  0.00     0.203 C 
BRANCH   2   3
HETATM    3  O   UNK N   1      35.049  17.369  10.637  0.00  0.00    -0.398 OA
HETATM    4  H   UNK N   1      34.803  16.849  11.419  0.00  0.00     0.209 HD
ENDBRANCH   2   3
ENDBRANCH   1   2
BRANCH   1   5
HETATM    5  O   UNK N   1      35.313  19.206   8.569  0.00  0.00    -0.387 OA
HETATM    6  H   UNK N   1      36.159  19.196   9.044  0.00  0.00     0.210 HD
ENDBRANCH   1   5
BRANCH   1   7
HETATM    7  C   UNK N   1      33.699  17.916   7.193  0.00  0.00     0.264 C 
HETATM    8  O   UNK N   1      34.159  17.874   6.065  0.00  0.00    -0.304 OA
ENDBRANCH   1   7
TORSDOF 4
ENDMDL
MODEL 5
REMARK VINA RESULT:      -3.6     15.100     15.842
REMARK  4 active torsions:
REMARK  status: ('A' for Active; 'I' for Inactive)
REMARK    1  A    between atoms: O_1  and  C_2 
REMARK    2  A    between atoms: C_2  and  C_3 
REMARK    3  A    between atoms: C_3  and  O_4 
REMARK    4  A    between atoms: C_3  and  C_5 
ROOT
HETATM    1  C   UNK N   1      34.025  17.309   9.020  0.00  0.00     0.202 C 
ENDROOT
BRANCH   1   2
HETATM    2  C   UNK N   1      34.970  16.484   9.877  0.00  0.00     0.203 C 
BRANCH   2   3
HETATM    3  O   UNK N   1      35.888  17.312  10.525  0.00  0.00    -0.398 OA
HETATM    4  H   UNK N   1      35.636  18.217  10.769  0.00  0.00     0.209 HD
ENDBRANCH   2   3
ENDBRANCH   1   2
BRANCH   1   5
HETATM    5  O   UNK N   1      32.652  17.064   9.082  0.00  0.00    -0.387 OA
HETATM    6  H   UNK N   1      32.265  16.332   8.575  0.00  0.00     0.210 HD
ENDBRANCH   1   5
BRANCH   1   7
HETATM    7  C   UNK N   1      34.514  18.382   8.103  0.00  0.00     0.264 C 
HETATM    8  O   UNK N   1      35.288  19.231   8.510  0.00  0.00    -0.304 OA
ENDBRANCH   1   7
TORSDOF 4
ENDMDL
MODEL 6
REMARK VINA RESULT:      -3.6      1.227      2.987
REMARK  4 active torsions:
REMARK  status: ('A' for Active; 'I' for Inactive)
REMARK    1  A    between atoms: O_1  and  C_2 
REMARK    2  A    between atoms: C_2  and  C_3 
REMARK    3  A    between atoms: C_3  and  O_4 
REMARK    4  A    between atoms: C_3  and  C_5 
ROOT
HETATM    1  C   UNK N   1      21.173  20.508   2.711  0.00  0.00     0.202 C 
ENDROOT
BRANCH   1   2
HETATM    2  C   UNK N   1      22.617  20.141   3.010  0.00  0.00     0.203 C 
BRANCH   2   3
HETATM    3  O   UNK N   1      23.448  21.247   2.826  0.00  0.00    -0.398 OA
HETATM    4  H   UNK N   1      23.296  22.059   3.336  0.00  0.00     0.209 HD
ENDBRANCH   2   3
ENDBRANCH   1   2
BRANCH   1   5
HETATM    5  O   UNK N   1      20.274  20.673   3.766  0.00  0.00    -0.387 OA
HETATM    6  H   UNK N   1      20.576  20.563   4.683  0.00  0.00     0.210 HD
ENDBRANCH   1   5
BRANCH   1   7
HETATM    7  C   UNK N   1      20.674  20.701   1.316  0.00  0.00     0.264 C 
HETATM    8  O   UNK N   1      21.460  20.788   0.389  0.00  0.00    -0.304 OA
ENDBRANCH   1   7
TORSDOF 4
ENDMDL
MODEL 7
REMARK VINA RESULT:      -3.5      1.638      2.853
REMARK  4 active torsions:
REMARK  status: ('A' for Active; 'I' for Inactive)
REMARK    1  A    between atoms: O_1  and  C_2 
REMARK    2  A    between atoms: C_2  and  C_3 
REMARK    3  A    between atoms: C_3  and  O_4 
REMARK    4  A    between atoms: C_3  and  C_5 
ROOT
HETATM    1  C   UNK N   1      20.293  20.019   2.527  0.00  0.00     0.202 C 
ENDROOT
BRANCH   1   2
HETATM    2  C   UNK N   1      19.723  18.613   2.449  0.00  0.00     0.203 C 
BRANCH   2   3
HETATM    3  O   UNK N   1      18.329  18.657   2.374  0.00  0.00    -0.398 OA
HETATM    4  H   UNK N   1      17.898  19.043   1.595  0.00  0.00     0.209 HD
ENDBRANCH   2   3
ENDBRANCH   1   2
BRANCH   1   5
HETATM    5  O   UNK N   1      20.394  20.651   3.768  0.00  0.00    -0.387 OA
HETATM    6  H   UNK N   1      20.801  20.187   4.517  0.00  0.00     0.210 HD
ENDBRANCH   1   5
BRANCH   1   7
HETATM    7  C   UNK N   1      20.754  20.759   1.314  0.00  0.00     0.264 C 
HETATM    8  O   UNK N   1      20.900  20.172   0.256  0.00  0.00    -0.304 OA
ENDBRANCH   1   7
TORSDOF 4
ENDMDL
MODEL 8
REMARK VINA RESULT:      -3.4     22.232     23.058
REMARK  4 active torsions:
REMARK  status: ('A' for Active; 'I' for Inactive)
REMARK    1  A    between atoms: O_1  and  C_2 
REMARK    2  A    between atoms: C_2  and  C_3 
REMARK    3  A    between atoms: C_3  and  O_4 
REMARK    4  A    between atoms: C_3  and  C_5 
ROOT
HETATM    1  C   UNK N   1      43.573  22.943   3.630  0.00  0.00     0.202 C 
ENDROOT
BRANCH   1   2
HETATM    2  C   UNK N   1      44.487  21.831   4.115  0.00  0.00     0.203 C 
BRANCH   2   3
HETATM    3  O   UNK N   1      45.803  22.289   4.211  0.00  0.00    -0.398 OA
HETATM    4  H   UNK N   1      45.978  23.231   4.370  0.00  0.00     0.209 HD
ENDBRANCH   2   3
ENDBRANCH   1   2
BRANCH   1   5
HETATM    5  O   UNK N   1      43.537  24.153   4.326  0.00  0.00    -0.387 OA
HETATM    6  H   UNK N   1      43.390  24.985   3.846  0.00  0.00     0.210 HD
ENDBRANCH   1   5
BRANCH   1   7
HETATM    7  C   UNK N   1      42.703  22.790   2.426  0.00  0.00     0.264 C 
HETATM    8  O   UNK N   1      41.968  23.698   2.079  0.00  0.00    -0.304 OA
ENDBRANCH   1   7
TORSDOF 4
ENDMDL
MODEL 9
REMARK VINA RESULT:      -3.3      1.584      3.084
REMARK  4 active torsions:
REMARK  status: ('A' for Active; 'I' for Inactive)
REMARK    1  A    between atoms: O_1  and  C_2 
REMARK    2  A    between atoms: C_2  and  C_3 
REMARK    3  A    between atoms: C_3  and  O_4 
REMARK    4  A    between atoms: C_3  and  C_5 
ROOT
HETATM    1  C   UNK N   1      20.689  19.705   1.257  0.00  0.00     0.202 C 
ENDROOT
BRANCH   1   2
HETATM    2  C   UNK N   1      21.038  20.321   2.602  0.00  0.00     0.203 C 
BRANCH   2   3
HETATM    3  O   UNK N   1      21.406  21.658   2.444  0.00  0.00    -0.398 OA
HETATM    4  H   UNK N   1      21.454  22.046   1.555  0.00  0.00     0.209 HD
ENDBRANCH   2   3
ENDBRANCH   1   2
BRANCH   1   5
HETATM    5  O   UNK N   1      20.660  20.514   0.119  0.00  0.00    -0.387 OA
HETATM    6  H   UNK N   1      20.626  20.110  -0.763  0.00  0.00     0.210 HD
ENDBRANCH   1   5
BRANCH   1   7
HETATM    7  C   UNK N   1      20.373  18.253   1.105  0.00  0.00     0.264 C 
HETATM    8  O   UNK N   1      20.409  17.729   0.006  0.00  0.00    -0.304 OA
ENDBRANCH   1   7
TORSDOF 4
ENDMDL
