REMARK  9 active torsions:
REMARK  status: ('A' for Active; 'I' for Inactive)
REMARK    1  A    between atoms: C_10  and  C_4 
REMARK    2  A    between atoms: C_10  and  C_5 
REMARK    3  A    between atoms: O_18  and  C_8 
REMARK    4  A    between atoms: C_14  and  C_9 
REMARK    5  A    between atoms: O_21  and  C_10 
REMARK    6  A    between atoms: C_11  and  N_15 
REMARK    7  A    between atoms: C_12  and  O_21 
REMARK    8  A    between atoms: C_13  and  N_16 
REMARK    9  A    between atoms: O_20  and  C_14 
ROOT
HETATM    1  C   UNK N   1       0.726  -1.363   0.266  0.00  0.00     0.072 C 
HETATM    2  C   UNK N   1       2.152   0.649  -0.081  0.00  0.00     0.021 C 
HETATM    3  C   UNK N   1       2.057  -0.680   0.045  0.00  0.00     0.016 C 
HETATM    4  C   UNK N   1      -0.478  -0.429   0.437  0.00  0.00     0.103 C 
HETATM    5  C   UNK N   1       0.993   1.609  -0.004  0.00  0.00     0.170 C 
HETATM    6  C   UNK N   1      -0.321   0.878  -0.381  0.00  0.00     0.138 C 
ENDROOT
BRANCH   5   7
HETATM    7  O   UNK N   1       1.202   2.663  -0.934  0.00  0.00    -0.375 OA
BRANCH   7   8
HETATM    8  C   UNK N   1       2.121   3.670  -0.511  0.00  0.00     0.121 C 
BRANCH   8   9
HETATM    9  C   UNK N   1       1.455   4.924   0.021  0.00  0.00     0.027 C 
HETATM   10  C   UNK N   1       2.344   6.121  -0.282  0.00  0.00     0.007 C 
ENDBRANCH   8   9
BRANCH   8  11
HETATM   11  C   UNK N   1       3.372   3.256   0.273  0.00  0.00     0.027 C 
HETATM   12  C   UNK N   1       4.411   2.678  -0.668  0.00  0.00     0.007 C 
ENDBRANCH   8  11
ENDBRANCH   7   8
ENDBRANCH   5   7
BRANCH   6  13
HETATM   13  N   UNK N   1      -1.445   1.775  -0.158  0.00  0.00    -0.365 N 
HETATM   14  C   UNK N   1      -2.664   1.515  -0.493  0.00  0.00     0.107 C 
HETATM   15  C   UNK N   1      -3.736   2.498  -0.175  0.00  0.00     0.097 C 
ATOM     16  HN  UNK N   1      -1.257   2.670   0.294  1.00  0.00     0.161 HD
BRANCH  14  17
HETATM   17  O   UNK N   1      -2.986   0.371  -1.131  0.00  0.00    -0.350 OA
HETATM   18  H   UNK N   1      -3.786   0.168  -1.574  0.00  0.00     0.219 HD
ENDBRANCH  14  17
ENDBRANCH   6  13
BRANCH   3  19
HETATM   19  C   UNK N   1       3.277  -1.506  -0.079  0.00  0.00     0.171 C 
HETATM   20  O   UNK N   1       4.349  -0.984  -0.369  0.00  0.00    -0.646 OA
BRANCH  19  21
HETATM   21  O   UNK N   1       3.222  -2.833   0.118  0.00  0.00    -0.773 OA
HETATM   22  H   UNK N   1       2.401  -3.263   0.256  0.00  0.00     0.167 HD
ENDBRANCH  19  21
ENDBRANCH   3  19
BRANCH   4  23
HETATM   23  N   UNK N   1      -0.677  -0.136   1.847  0.00  0.00    -0.424 N 
HETATM   24  H   UNK N   1      -0.569   0.088   2.837  0.00  0.00     0.150 HD
HETATM   25  H   UNK N   1      -1.694  -0.211   1.847  0.00  0.00     0.150 HD
ENDBRANCH   4  23
TORSDOF 9
