REMARK  11 active torsions:
REMARK  status: ('A' for Active; 'I' for Inactive)
REMARK    1  A    between atoms: C_3  and  C_2 
REMARK    2  A    between atoms: C_4  and  C_2 
REMARK    3  A    between atoms: C_5  and  C_3 
REMARK    4  A    between atoms: C_8  and  C_4 
REMARK    5  A    between atoms: C_9  and  C_5 
REMARK    6  A    between atoms: C_17  and  C_8 
REMARK    7  A    between atoms: C_18  and  C_9 
REMARK    8  A    between atoms: N_33  and  C_17 
REMARK    9  A    between atoms: N_34  and  C_18 
REMARK   10  A    between atoms: C_23  and  O_35 
REMARK   11  A    between atoms: O_38  and  C_26 
ROOT
HETATM    1  C   UNK N   1      14.605  -6.487   0.771  0.00  0.00     0.016 C 
HETATM    2  C   UNK N   1      15.897  -6.131   0.621  0.00  0.00     0.040 C 
HETATM    3  C   UNK N   1      11.598  -1.174   0.797  0.00  0.00     0.002 C 
HETATM    4  C   UNK N   1      11.934  -2.493   0.808  0.00  0.00    -0.011 C 
HETATM    5  C   UNK N   1      12.350  -3.177  -1.514  0.00  0.00     0.041 C 
HETATM    6  C   UNK N   1      11.709  -4.553  -1.771  0.00  0.00     0.123 C 
HETATM    7  C   UNK N   1      13.598  -0.640  -0.812  0.00  0.00     0.069 C 
HETATM    8  C   UNK N   1      12.316  -6.045   0.107  0.00  0.00     0.097 C 
HETATM    9  C   UNK N   1      13.527  -5.549   0.383  0.00  0.00    -0.011 C 
HETATM   10  C   UNK N   1      12.361  -0.111  -0.026  0.00  0.00     0.143 C 
HETATM   11  C   UNK N   1      16.261  -4.789   0.088  0.00  0.00     0.102 C 
HETATM   12  C   UNK N   1      14.096  -1.874  -0.087  0.00  0.00     0.148 C 
HETATM   13  C   UNK N   1      13.893  -4.142   0.122  0.00  0.00     0.005 C 
HETATM   14  C   UNK N   1      15.153  -3.797  -0.076  0.00  0.00     0.111 C 
HETATM   15  C   UNK N   1      13.001  -2.971  -0.141  0.00  0.00     0.036 C 
HETATM   16  N   UNK N   1      11.306  -5.329  -0.608  0.00  0.00    -0.389 N 
HETATM   17  O   UNK N   1      15.265  -2.505  -0.436  0.00  0.00    -0.341 OA
ENDROOT
BRANCH  16  18
HETATM   18  C   UNK N   1      10.015  -5.965  -0.726  0.00  0.00     0.122 C 
BRANCH  18  19
HETATM   19  C   UNK N   1       9.509  -6.485   0.611  0.00  0.00     0.020 C 
BRANCH  19  20
HETATM   20  C   UNK N   1       8.141  -5.913   0.915  0.00  0.00     0.002 C 
BRANCH  20  21
HETATM   21  C   UNK N   1       8.228  -4.420   1.176  0.00  0.00     0.000 C 
BRANCH  21  22
HETATM   22  C   UNK N   1       7.978  -3.649  -0.109  0.00  0.00     0.000 C 
BRANCH  22  23
HETATM   23  C   UNK N   1       7.232  -2.365   0.207  0.00  0.00     0.002 C 
BRANCH  23  24
HETATM   24  C   UNK N   1       5.819  -2.686   0.666  0.00  0.00     0.020 C 
BRANCH  24  25
HETATM   25  C   UNK N   1       4.904  -2.846  -0.535  0.00  0.00     0.135 C 
BRANCH  25  26
HETATM   26  N   UNK N   1       3.936  -3.894  -0.308  0.00  0.00    -0.280 N 
HETATM   27  C   UNK N   1       2.606  -3.710  -0.150  0.00  0.00     0.261 A 
HETATM   28  C   UNK N   1       1.951  -5.006   0.017  0.00  0.00     0.048 A 
HETATM   29  O   UNK N   1       2.057  -2.618  -0.158  0.00  0.00    -0.267 OA
HETATM   30  C   UNK N   1       0.617  -5.358   0.195  0.00  0.00     0.018 A 
HETATM   31  C   UNK N   1       2.949  -5.955  -0.049  0.00  0.00     0.048 A 
HETATM   32  C   UNK N   1       0.310  -6.727   0.308  0.00  0.00     0.001 A 
HETATM   33  C   UNK N   1       1.334  -7.700   0.240  0.00  0.00     0.001 A 
HETATM   34  C   UNK N   1       2.675  -7.315   0.058  0.00  0.00     0.018 A 
HETATM   35  C   UNK N   1       4.197  -5.223  -0.254  0.00  0.00     0.261 A 
HETATM   36  O   UNK N   1       5.308  -5.713  -0.380  0.00  0.00    -0.267 OA
ENDBRANCH  25  26
ENDBRANCH  24  25
ENDBRANCH  23  24
ENDBRANCH  22  23
ENDBRANCH  21  22
ENDBRANCH  20  21
ENDBRANCH  19  20
ENDBRANCH  18  19
ENDBRANCH  16  18
BRANCH  11  37
HETATM   37  O   UNK N   1      17.442  -4.551  -0.168  0.00  0.00    -0.353 OA
HETATM   38  C   UNK N   1      17.907  -3.355  -0.666  0.00  0.00     0.210 C 
ENDBRANCH  11  37
BRANCH  10  39
HETATM   39  O   UNK N   1      12.803   0.884   0.848  0.00  0.00    -0.392 OA
HETATM   40  H   UNK N   1      13.555   0.964   1.455  0.00  0.00     0.210 HD
ENDBRANCH  10  39
TORSDOF 11
