MODEL 1
REMARK VINA RESULT:      -3.2      0.000      0.000
REMARK  0 active torsions:
REMARK  status: ('A' for Active; 'I' for Inactive)
ROOT
HETATM    1  N   UNK N   1      17.861  19.428  11.017  0.00  0.00    -0.312 N 
HETATM    2  C   UNK N   1      17.356  18.303  10.480  0.00  0.00     0.108 A 
HETATM    3  C   UNK N   1      18.283  17.783   9.598  0.00  0.00     0.037 A 
HETATM    4  C   UNK N   1      19.353  18.656   9.643  0.00  0.00     0.108 A 
HETATM    5  N   UNK N   1      19.064  19.640  10.512  0.00  0.00    -0.312 N 
ATOM      6  HN  UNK N   1      19.674  20.424  10.745  1.00  0.00     0.186 HD
HETATM    7  H   UNK N   1      17.408  20.000  11.678  0.00  0.00     0.186 HD
ENDROOT
TORSDOF 0
ENDMDL
MODEL 2
REMARK VINA RESULT:      -3.1     25.773     26.026
REMARK  0 active torsions:
REMARK  status: ('A' for Active; 'I' for Inactive)
ROOT
HETATM    1  N   UNK N   1      43.573  23.595   4.082  0.00  0.00    -0.312 N 
HETATM    2  C   UNK N   1      43.791  22.348   4.539  0.00  0.00     0.108 A 
HETATM    3  C   UNK N   1      43.193  21.453   3.674  0.00  0.00     0.037 A 
HETATM    4  C   UNK N   1      42.615  22.234   2.691  0.00  0.00     0.108 A 
HETATM    5  N   UNK N   1      42.865  23.525   2.969  0.00  0.00    -0.312 N 
ATOM      6  HN  UNK N   1      42.558  24.322   2.412  1.00  0.00     0.186 HD
HETATM    7  H   UNK N   1      43.890  24.424   4.509  0.00  0.00     0.186 HD
ENDROOT
TORSDOF 0
ENDMDL
MODEL 3
REMARK VINA RESULT:      -3.1      7.737      7.924
REMARK  0 active torsions:
REMARK  status: ('A' for Active; 'I' for Inactive)
ROOT
HETATM    1  N   UNK N   1      21.207  11.807  11.821  0.00  0.00    -0.312 N 
HETATM    2  C   UNK N   1      21.457  12.463  10.674  0.00  0.00     0.108 A 
HETATM    3  C   UNK N   1      22.824  12.601  10.536  0.00  0.00     0.037 A 
HETATM    4  C   UNK N   1      23.362  11.996  11.655  0.00  0.00     0.108 A 
HETATM    5  N   UNK N   1      22.354  11.526  12.412  0.00  0.00    -0.312 N 
ATOM      6  HN  UNK N   1      22.459  11.032  13.298  1.00  0.00     0.186 HD
HETATM    7  H   UNK N   1      20.314  11.574  12.164  0.00  0.00     0.186 HD
ENDROOT
TORSDOF 0
ENDMDL
MODEL 4
REMARK VINA RESULT:      -3.0     27.067     27.445
REMARK  0 active torsions:
REMARK  status: ('A' for Active; 'I' for Inactive)
ROOT
HETATM    1  N   UNK N   1      45.526  23.329   3.194  0.00  0.00    -0.312 N 
HETATM    2  C   UNK N   1      44.244  23.414   2.795  0.00  0.00     0.108 A 
HETATM    3  C   UNK N   1      43.505  22.475   3.487  0.00  0.00     0.037 A 
HETATM    4  C   UNK N   1      44.414  21.836   4.309  0.00  0.00     0.108 A 
HETATM    5  N   UNK N   1      45.627  22.378   4.106  0.00  0.00    -0.312 N 
ATOM      6  HN  UNK N   1      46.487  22.100   4.579  1.00  0.00     0.186 HD
HETATM    7  H   UNK N   1      46.267  23.884   2.861  0.00  0.00     0.186 HD
ENDROOT
TORSDOF 0
ENDMDL
MODEL 5
REMARK VINA RESULT:      -3.0      8.052      8.368
REMARK  0 active torsions:
REMARK  status: ('A' for Active; 'I' for Inactive)
ROOT
HETATM    1  N   UNK N   1      24.830  12.403  11.267  0.00  0.00    -0.312 N 
HETATM    2  C   UNK N   1      23.683  11.901  11.758  0.00  0.00     0.108 A 
HETATM    3  C   UNK N   1      22.640  12.322  10.956  0.00  0.00     0.037 A 
HETATM    4  C   UNK N   1      23.231  13.094   9.974  0.00  0.00     0.108 A 
HETATM    5  N   UNK N   1      24.557  13.121  10.192  0.00  0.00    -0.312 N 
ATOM      6  HN  UNK N   1      25.242  13.616   9.621  1.00  0.00     0.186 HD
HETATM    7  H   UNK N   1      25.727  12.259  11.647  0.00  0.00     0.186 HD
ENDROOT
TORSDOF 0
ENDMDL
MODEL 6
REMARK VINA RESULT:      -2.9      8.941      9.428
REMARK  0 active torsions:
REMARK  status: ('A' for Active; 'I' for Inactive)
ROOT
HETATM    1  N   UNK N   1      26.215  20.863   7.898  0.00  0.00    -0.312 N 
HETATM    2  C   UNK N   1      26.354  21.547   6.748  0.00  0.00     0.108 A 
HETATM    3  C   UNK N   1      27.354  20.954   6.002  0.00  0.00     0.037 A 
HETATM    4  C   UNK N   1      27.793  19.891   6.769  0.00  0.00     0.108 A 
HETATM    5  N   UNK N   1      27.082  19.866   7.910  0.00  0.00    -0.312 N 
ATOM      6  HN  UNK N   1      27.193  19.187   8.663  1.00  0.00     0.186 HD
HETATM    7  H   UNK N   1      25.572  21.072   8.613  0.00  0.00     0.186 HD
ENDROOT
TORSDOF 0
ENDMDL
MODEL 7
REMARK VINA RESULT:      -2.8      9.874     10.059
REMARK  0 active torsions:
REMARK  status: ('A' for Active; 'I' for Inactive)
ROOT
HETATM    1  N   UNK N   1      27.405  19.299   8.255  0.00  0.00    -0.312 N 
HETATM    2  C   UNK N   1      28.099  19.015   7.138  0.00  0.00     0.108 A 
HETATM    3  C   UNK N   1      28.827  17.861   7.354  0.00  0.00     0.037 A 
HETATM    4  C   UNK N   1      28.525  17.484   8.649  0.00  0.00     0.108 A 
HETATM    5  N   UNK N   1      27.662  18.376   9.164  0.00  0.00    -0.312 N 
ATOM      6  HN  UNK N   1      27.269  18.346  10.105  1.00  0.00     0.186 HD
HETATM    7  H   UNK N   1      26.803  20.069   8.374  0.00  0.00     0.186 HD
ENDROOT
TORSDOF 0
ENDMDL
MODEL 8
REMARK VINA RESULT:      -2.7      8.429      8.766
REMARK  0 active torsions:
REMARK  status: ('A' for Active; 'I' for Inactive)
ROOT
HETATM    1  N   UNK N   1      20.172  18.988   1.203  0.00  0.00    -0.312 N 
HETATM    2  C   UNK N   1      20.070  18.870   2.539  0.00  0.00     0.108 A 
HETATM    3  C   UNK N   1      20.508  20.045   3.119  0.00  0.00     0.037 A 
HETATM    4  C   UNK N   1      20.870  20.855   2.059  0.00  0.00     0.108 A 
HETATM    5  N   UNK N   1      20.654  20.184   0.915  0.00  0.00    -0.312 N 
ATOM      6  HN  UNK N   1      20.833  20.539  -0.024  1.00  0.00     0.186 HD
HETATM    7  H   UNK N   1      19.927  18.295   0.548  0.00  0.00     0.186 HD
ENDROOT
TORSDOF 0
ENDMDL
MODEL 9
REMARK VINA RESULT:      -2.7     14.602     15.483
REMARK  0 active torsions:
REMARK  status: ('A' for Active; 'I' for Inactive)
ROOT
HETATM    1  N   UNK N   1      33.645  16.706   9.590  0.00  0.00    -0.312 N 
HETATM    2  C   UNK N   1      34.719  17.320   9.064  0.00  0.00     0.108 A 
HETATM    3  C   UNK N   1      34.288  18.217   8.106  0.00  0.00     0.037 A 
HETATM    4  C   UNK N   1      32.911  18.098   8.096  0.00  0.00     0.108 A 
HETATM    5  N   UNK N   1      32.556  17.174   9.007  0.00  0.00    -0.312 N 
ATOM      6  HN  UNK N   1      31.601  16.883   9.214  1.00  0.00     0.186 HD
HETATM    7  H   UNK N   1      33.667  16.019  10.295  0.00  0.00     0.186 HD
ENDROOT
TORSDOF 0
ENDMDL
