REMARK  0 active torsions:
REMARK  status: ('A' for Active; 'I' for Inactive)
ROOT
HETATM    1  C   UNK N   1      14.116  -8.274   0.000  0.00  0.00     0.060 A 
HETATM    2  C   UNK N   1      14.243  -6.926  -0.000  0.00  0.00     0.060 A 
HETATM    3  C   UNK N   1      12.878  -8.903   0.000  0.00  0.00     0.039 A 
HETATM    4  C   UNK N   1      13.141  -6.077   0.000  0.00  0.00     0.039 A 
HETATM    5  C   UNK N   1      11.730  -8.088   0.000  0.00  0.00    -0.054 A 
HETATM    6  C   UNK N   1      11.861  -6.668   0.000  0.00  0.00    -0.054 A 
HETATM    7  N   UNK N   1      15.542  -6.597  -0.000  0.00  0.00    -0.350 N 
ATOM      8  HN  UNK N   1      15.951  -5.662  -0.000  1.00  0.00     0.166 HD
HETATM    9  C   UNK N   1      16.191  -7.792  -0.000  0.00  0.00     0.181 A 
HETATM   10  N   UNK N   1      15.328  -8.842  -0.000  0.00  0.00    -0.350 N 
HETATM   11  C   UNK N   1      10.659  -5.785   0.000  0.00  0.00     0.049 C 
HETATM   12  C   UNK N   1      10.391  -8.742   0.000  0.00  0.00     0.049 C 
HETATM   13  H   UNK N   1      15.546  -9.802  -0.000  0.00  0.00     0.166 HD
ENDROOT
TORSDOF 0
