MODEL 1
REMARK VINA RESULT:      -6.0      0.000      0.000
REMARK  18 active torsions:
REMARK  status: ('A' for Active; 'I' for Inactive)
REMARK    1  A    between atoms: C_4  and  C_3 
REMARK    2  A    between atoms: C_5  and  C_3 
REMARK    3  A    between atoms: C_6  and  C_4 
REMARK    4  A    between atoms: C_10  and  C_5 
REMARK    5  A    between atoms: C_11  and  C_6 
REMARK    6  A    between atoms: C_12  and  C_7 
REMARK    7  A    between atoms: N_16  and  C_7 
REMARK    8  A    between atoms: C_13  and  C_8 
REMARK    9  A    between atoms: N_17  and  C_8 
REMARK   10  A    between atoms: C_14  and  C_9 
REMARK   11  A    between atoms: N_19  and  C_9 
REMARK   12  A    between atoms: C_15  and  C_10 
REMARK   13  A    between atoms: C_10  and  N_21 
REMARK   14  A    between atoms: C_11  and  O_23 
REMARK   15  A    between atoms: C_12  and  O_24 
REMARK   16  A    between atoms: C_13  and  O_25 
REMARK   17  A    between atoms: O_27  and  C_14 
REMARK   18  A    between atoms: O_29  and  C_15 
ROOT
HETATM    1  C   UNK N   1      22.221  16.185   4.602  0.00  0.00     0.083 C 
ENDROOT
BRANCH   1   2
HETATM    2  C   UNK N   1      22.652  17.492   5.269  0.00  0.00     0.008 C 
BRANCH   2   3
HETATM    3  C   UNK N   1      21.801  18.679   4.814  0.00  0.00     0.003 C 
BRANCH   3   4
HETATM    4  C   UNK N   1      22.061  18.976   3.344  0.00  0.00     0.036 C 
BRANCH   4   5
HETATM    5  C   UNK N   1      20.822  19.447   2.574  0.00  0.00     0.181 C 
BRANCH   5   6
HETATM    6  C   UNK N   1      21.018  20.838   2.014  0.00  0.00     0.163 C 
HETATM    7  O   UNK N   1      20.644  21.103   0.882  0.00  0.00    -0.648 OA
BRANCH   6   8
HETATM    8  O   UNK N   1      21.623  21.793   2.748  0.00  0.00    -0.775 OA
HETATM    9  H   UNK N   1      22.381  21.779   3.298  0.00  0.00     0.167 HD
ENDBRANCH   6   8
ENDBRANCH   5   6
BRANCH   5  10
HETATM   10  N   UNK N   1      20.559  18.528   1.481  0.00  0.00    -0.359 N 
HETATM   11  C   UNK N   1      19.896  17.428   1.609  0.00  0.00     0.129 C 
ATOM     12  HN  UNK N   1      20.920  18.766   0.557  1.00  0.00     0.162 HD
BRANCH  11  13
HETATM   13  C   UNK N   1      19.683  16.562   0.413  0.00  0.00     0.195 C 
BRANCH  13  14
HETATM   14  N   UNK N   1      18.295  16.642  -0.008  0.00  0.00    -0.423 N 
HETATM   15  H   UNK N   1      17.671  17.445  -0.076  0.00  0.00     0.150 HD
HETATM   16  H   UNK N   1      17.879  15.752  -0.280  0.00  0.00     0.150 HD
ENDBRANCH  13  14
ENDBRANCH  11  13
BRANCH  11  17
HETATM   17  O   UNK N   1      19.396  17.049   2.804  0.00  0.00    -0.348 OA
HETATM   18  H   UNK N   1      19.520  17.465   3.634  0.00  0.00     0.219 HD
ENDBRANCH  11  17
ENDBRANCH   5  10
ENDBRANCH   4   5
ENDBRANCH   3   4
ENDBRANCH   2   3
ENDBRANCH   1   2
BRANCH   1  19
HETATM   19  C   UNK N   1      21.326  15.412   5.511  0.00  0.00     0.111 C 
HETATM   20  N   UNK N   1      21.632  15.323   6.766  0.00  0.00    -0.363 N 
ATOM     21  HN  UNK N   1      22.517  15.753   7.035  1.00  0.00     0.162 HD
BRANCH  20  22
HETATM   22  C   UNK N   1      20.885  14.691   7.847  0.00  0.00     0.153 C 
HETATM   23  C   UNK N   1      20.655  15.707   8.950  0.00  0.00     0.041 C 
BRANCH  22  24
HETATM   24  C   UNK N   1      21.510  13.454   8.438  0.00  0.00     0.135 C 
HETATM   25  N   UNK N   1      22.343  13.572   9.419  0.00  0.00    -0.359 N 
ATOM     26  HN  UNK N   1      22.546  14.510   9.767  1.00  0.00     0.162 HD
BRANCH  25  27
HETATM   27  C   UNK N   1      23.006  12.452  10.052  0.00  0.00     0.177 C 
HETATM   28  C   UNK N   1      22.278  12.148  11.354  0.00  0.00     0.043 C 
BRANCH  27  29
HETATM   29  C   UNK N   1      24.463  12.771  10.298  0.00  0.00     0.163 C 
HETATM   30  O   UNK N   1      25.114  13.395   9.474  0.00  0.00    -0.648 OA
BRANCH  29  31
HETATM   31  O   UNK N   1      25.055  12.370  11.439  0.00  0.00    -0.775 OA
HETATM   32  H   UNK N   1      25.666  12.705  12.065  0.00  0.00     0.167 HD
ENDBRANCH  29  31
ENDBRANCH  27  29
ENDBRANCH  25  27
BRANCH  24  33
HETATM   33  O   UNK N   1      21.179  12.236   7.954  0.00  0.00    -0.348 OA
HETATM   34  H   UNK N   1      20.932  11.347   7.789  0.00  0.00     0.219 HD
ENDBRANCH  24  33
ENDBRANCH  22  24
ENDBRANCH  20  22
BRANCH  19  35
HETATM   35  O   UNK N   1      20.190  14.891   5.006  0.00  0.00    -0.350 OA
HETATM   36  H   UNK N   1      19.774  14.121   5.342  0.00  0.00     0.219 HD
ENDBRANCH  19  35
ENDBRANCH   1  19
TORSDOF 18
ENDMDL
MODEL 2
REMARK VINA RESULT:      -6.0      9.723     11.983
REMARK  18 active torsions:
REMARK  status: ('A' for Active; 'I' for Inactive)
REMARK    1  A    between atoms: C_4  and  C_3 
REMARK    2  A    between atoms: C_5  and  C_3 
REMARK    3  A    between atoms: C_6  and  C_4 
REMARK    4  A    between atoms: C_10  and  C_5 
REMARK    5  A    between atoms: C_11  and  C_6 
REMARK    6  A    between atoms: C_12  and  C_7 
REMARK    7  A    between atoms: N_16  and  C_7 
REMARK    8  A    between atoms: C_13  and  C_8 
REMARK    9  A    between atoms: N_17  and  C_8 
REMARK   10  A    between atoms: C_14  and  C_9 
REMARK   11  A    between atoms: N_19  and  C_9 
REMARK   12  A    between atoms: C_15  and  C_10 
REMARK   13  A    between atoms: C_10  and  N_21 
REMARK   14  A    between atoms: C_11  and  O_23 
REMARK   15  A    between atoms: C_12  and  O_24 
REMARK   16  A    between atoms: C_13  and  O_25 
REMARK   17  A    between atoms: O_27  and  C_14 
REMARK   18  A    between atoms: O_29  and  C_15 
ROOT
HETATM    1  C   UNK N   1      32.975  18.431   8.371  0.00  0.00     0.083 C 
ENDROOT
BRANCH   1   2
HETATM    2  C   UNK N   1      31.622  17.719   8.388  0.00  0.00     0.008 C 
BRANCH   2   3
HETATM    3  C   UNK N   1      30.528  18.574   9.029  0.00  0.00     0.003 C 
BRANCH   3   4
HETATM    4  C   UNK N   1      29.169  17.915   8.837  0.00  0.00     0.036 C 
BRANCH   4   5
HETATM    5  C   UNK N   1      28.551  18.150   7.455  0.00  0.00     0.181 C 
BRANCH   5   6
HETATM    6  C   UNK N   1      27.830  16.918   6.957  0.00  0.00     0.163 C 
HETATM    7  O   UNK N   1      28.188  16.372   5.924  0.00  0.00    -0.648 OA
BRANCH   6   8
HETATM    8  O   UNK N   1      26.777  16.420   7.634  0.00  0.00    -0.775 OA
HETATM    9  H   UNK N   1      26.692  15.694   8.221  0.00  0.00     0.167 HD
ENDBRANCH   6   8
ENDBRANCH   5   6
BRANCH   5  10
HETATM   10  N   UNK N   1      27.609  19.252   7.533  0.00  0.00    -0.359 N 
HETATM   11  C   UNK N   1      27.384  20.079   6.567  0.00  0.00     0.129 C 
ATOM     12  HN  UNK N   1      27.093  19.381   8.404  1.00  0.00     0.162 HD
BRANCH  11  13
HETATM   13  C   UNK N   1      26.389  21.172   6.759  0.00  0.00     0.195 C 
BRANCH  13  14
HETATM   14  N   UNK N   1      25.865  21.126   8.114  0.00  0.00    -0.423 N 
HETATM   15  H   UNK N   1      26.110  20.518   8.895  0.00  0.00     0.150 HD
HETATM   16  H   UNK N   1      25.137  21.810   8.314  0.00  0.00     0.150 HD
ENDBRANCH  13  14
ENDBRANCH  11  13
BRANCH  11  17
HETATM   17  O   UNK N   1      28.037  19.970   5.391  0.00  0.00    -0.348 OA
HETATM   18  H   UNK N   1      27.753  20.265   4.549  0.00  0.00     0.219 HD
ENDBRANCH  11  17
ENDBRANCH   5  10
ENDBRANCH   4   5
ENDBRANCH   3   4
ENDBRANCH   2   3
ENDBRANCH   1   2
BRANCH   1  19
HETATM   19  C   UNK N   1      34.066  17.461   8.068  0.00  0.00     0.111 C 
HETATM   20  N   UNK N   1      34.372  16.564   8.952  0.00  0.00    -0.363 N 
ATOM     21  HN  UNK N   1      33.868  16.627   9.836  1.00  0.00     0.162 HD
BRANCH  20  22
HETATM   22  C   UNK N   1      35.340  15.478   8.855  0.00  0.00     0.153 C 
HETATM   23  C   UNK N   1      34.627  14.220   8.395  0.00  0.00     0.041 C 
BRANCH  22  24
HETATM   24  C   UNK N   1      36.112  15.176  10.113  0.00  0.00     0.135 C 
HETATM   25  N   UNK N   1      36.123  13.969  10.575  0.00  0.00    -0.359 N 
ATOM     26  HN  UNK N   1      35.608  13.253  10.062  1.00  0.00     0.162 HD
BRANCH  25  27
HETATM   27  C   UNK N   1      36.824  13.573  11.779  0.00  0.00     0.177 C 
HETATM   28  C   UNK N   1      36.883  12.053  11.812  0.00  0.00     0.043 C 
BRANCH  27  29
HETATM   29  C   UNK N   1      36.124  14.124  13.001  0.00  0.00     0.163 C 
HETATM   30  O   UNK N   1      35.021  13.715  13.327  0.00  0.00    -0.648 OA
BRANCH  29  31
HETATM   31  O   UNK N   1      36.721  15.073  13.745  0.00  0.00    -0.775 OA
HETATM   32  H   UNK N   1      37.332  15.774  13.625  0.00  0.00     0.167 HD
ENDBRANCH  29  31
ENDBRANCH  27  29
ENDBRANCH  25  27
BRANCH  24  33
HETATM   33  O   UNK N   1      36.800  16.160  10.733  0.00  0.00    -0.348 OA
HETATM   34  H   UNK N   1      37.142  16.841  11.279  0.00  0.00     0.219 HD
ENDBRANCH  24  33
ENDBRANCH  22  24
ENDBRANCH  20  22
BRANCH  19  35
HETATM   35  O   UNK N   1      34.649  17.505   6.854  0.00  0.00    -0.350 OA
HETATM   36  H   UNK N   1      34.770  16.756   6.304  0.00  0.00     0.219 HD
ENDBRANCH  19  35
ENDBRANCH   1  19
TORSDOF 18
ENDMDL
MODEL 3
REMARK VINA RESULT:      -6.0      9.978     12.836
REMARK  18 active torsions:
REMARK  status: ('A' for Active; 'I' for Inactive)
REMARK    1  A    between atoms: C_4  and  C_3 
REMARK    2  A    between atoms: C_5  and  C_3 
REMARK    3  A    between atoms: C_6  and  C_4 
REMARK    4  A    between atoms: C_10  and  C_5 
REMARK    5  A    between atoms: C_11  and  C_6 
REMARK    6  A    between atoms: C_12  and  C_7 
REMARK    7  A    between atoms: N_16  and  C_7 
REMARK    8  A    between atoms: C_13  and  C_8 
REMARK    9  A    between atoms: N_17  and  C_8 
REMARK   10  A    between atoms: C_14  and  C_9 
REMARK   11  A    between atoms: N_19  and  C_9 
REMARK   12  A    between atoms: C_15  and  C_10 
REMARK   13  A    between atoms: C_10  and  N_21 
REMARK   14  A    between atoms: C_11  and  O_23 
REMARK   15  A    between atoms: C_12  and  O_24 
REMARK   16  A    between atoms: C_13  and  O_25 
REMARK   17  A    between atoms: O_27  and  C_14 
REMARK   18  A    between atoms: O_29  and  C_15 
ROOT
HETATM    1  C   UNK N   1      33.883  18.149   8.044  0.00  0.00     0.083 C 
ENDROOT
BRANCH   1   2
HETATM    2  C   UNK N   1      33.943  17.552   6.638  0.00  0.00     0.008 C 
BRANCH   2   3
HETATM    3  C   UNK N   1      32.564  17.489   5.979  0.00  0.00     0.003 C 
BRANCH   3   4
HETATM    4  C   UNK N   1      32.040  16.061   6.000  0.00  0.00     0.036 C 
BRANCH   4   5
HETATM    5  C   UNK N   1      31.033  15.782   7.123  0.00  0.00     0.181 C 
BRANCH   5   6
HETATM    6  C   UNK N   1      31.711  15.174   8.331  0.00  0.00     0.163 C 
HETATM    7  O   UNK N   1      32.302  14.110   8.233  0.00  0.00    -0.648 OA
BRANCH   6   8
HETATM    8  O   UNK N   1      31.654  15.788   9.529  0.00  0.00    -0.775 OA
HETATM    9  H   UNK N   1      31.989  16.608   9.833  0.00  0.00     0.167 HD
ENDBRANCH   6   8
ENDBRANCH   5   6
BRANCH   5  10
HETATM   10  N   UNK N   1      30.394  17.026   7.513  0.00  0.00    -0.359 N 
HETATM   11  C   UNK N   1      29.161  17.312   7.264  0.00  0.00     0.129 C 
ATOM     12  HN  UNK N   1      30.955  17.717   8.014  1.00  0.00     0.162 HD
BRANCH  11  13
HETATM   13  C   UNK N   1      28.609  18.622   7.717  0.00  0.00     0.195 C 
BRANCH  13  14
HETATM   14  N   UNK N   1      27.825  18.431   8.925  0.00  0.00    -0.423 N 
HETATM   15  H   UNK N   1      27.650  19.063   9.705  0.00  0.00     0.150 HD
HETATM   16  H   UNK N   1      27.378  17.518   9.005  0.00  0.00     0.150 HD
ENDBRANCH  13  14
ENDBRANCH  11  13
BRANCH  11  17
HETATM   17  O   UNK N   1      28.365  16.448   6.600  0.00  0.00    -0.348 OA
HETATM   18  H   UNK N   1      28.144  15.571   6.842  0.00  0.00     0.219 HD
ENDBRANCH  11  17
ENDBRANCH   5  10
ENDBRANCH   4   5
ENDBRANCH   3   4
ENDBRANCH   2   3
ENDBRANCH   1   2
BRANCH   1  19
HETATM   19  C   UNK N   1      34.758  17.376   8.972  0.00  0.00     0.111 C 
HETATM   20  N   UNK N   1      34.735  16.082   8.924  0.00  0.00    -0.363 N 
ATOM     21  HN  UNK N   1      34.059  15.677   8.276  1.00  0.00     0.162 HD
BRANCH  20  22
HETATM   22  C   UNK N   1      35.543  15.125   9.670  0.00  0.00     0.153 C 
HETATM   23  C   UNK N   1      35.778  13.898   8.810  0.00  0.00     0.041 C 
BRANCH  22  24
HETATM   24  C   UNK N   1      34.982  14.694  11.001  0.00  0.00     0.135 C 
HETATM   25  N   UNK N   1      35.760  14.124  11.861  0.00  0.00    -0.359 N 
ATOM     26  HN  UNK N   1      36.740  13.989  11.609  1.00  0.00     0.162 HD
BRANCH  25  27
HETATM   27  C   UNK N   1      35.322  13.663  13.162  0.00  0.00     0.177 C 
HETATM   28  C   UNK N   1      36.358  14.097  14.189  0.00  0.00     0.043 C 
BRANCH  27  29
HETATM   29  C   UNK N   1      35.146  12.162  13.158  0.00  0.00     0.163 C 
HETATM   30  O   UNK N   1      35.861  11.446  13.843  0.00  0.00    -0.648 OA
BRANCH  29  31
HETATM   31  O   UNK N   1      34.188  11.600  12.396  0.00  0.00    -0.775 OA
HETATM   32  H   UNK N   1      33.252  11.568  12.361  0.00  0.00     0.167 HD
ENDBRANCH  29  31
ENDBRANCH  27  29
ENDBRANCH  25  27
BRANCH  24  33
HETATM   33  O   UNK N   1      33.682  14.925  11.290  0.00  0.00    -0.348 OA
HETATM   34  H   UNK N   1      32.844  15.151  11.643  0.00  0.00     0.219 HD
ENDBRANCH  24  33
ENDBRANCH  22  24
ENDBRANCH  20  22
BRANCH  19  35
HETATM   35  O   UNK N   1      35.597  18.053   9.781  0.00  0.00    -0.350 OA
HETATM   36  H   UNK N   1      35.329  18.754  10.343  0.00  0.00     0.219 HD
ENDBRANCH  19  35
ENDBRANCH   1  19
TORSDOF 18
ENDMDL
MODEL 4
REMARK VINA RESULT:      -5.9     12.938     17.146
REMARK  18 active torsions:
REMARK  status: ('A' for Active; 'I' for Inactive)
REMARK    1  A    between atoms: C_4  and  C_3 
REMARK    2  A    between atoms: C_5  and  C_3 
REMARK    3  A    between atoms: C_6  and  C_4 
REMARK    4  A    between atoms: C_10  and  C_5 
REMARK    5  A    between atoms: C_11  and  C_6 
REMARK    6  A    between atoms: C_12  and  C_7 
REMARK    7  A    between atoms: N_16  and  C_7 
REMARK    8  A    between atoms: C_13  and  C_8 
REMARK    9  A    between atoms: N_17  and  C_8 
REMARK   10  A    between atoms: C_14  and  C_9 
REMARK   11  A    between atoms: N_19  and  C_9 
REMARK   12  A    between atoms: C_15  and  C_10 
REMARK   13  A    between atoms: C_10  and  N_21 
REMARK   14  A    between atoms: C_11  and  O_23 
REMARK   15  A    between atoms: C_12  and  O_24 
REMARK   16  A    between atoms: C_13  and  O_25 
REMARK   17  A    between atoms: O_27  and  C_14 
REMARK   18  A    between atoms: O_29  and  C_15 
ROOT
HETATM    1  C   UNK N   1      36.138  13.613  14.420  0.00  0.00     0.083 C 
ENDROOT
BRANCH   1   2
HETATM    2  C   UNK N   1      37.370  12.709  14.366  0.00  0.00     0.008 C 
BRANCH   2   3
HETATM    3  C   UNK N   1      37.139  11.469  13.500  0.00  0.00     0.003 C 
BRANCH   3   4
HETATM    4  C   UNK N   1      36.644  10.316  14.361  0.00  0.00     0.036 C 
BRANCH   4   5
HETATM    5  C   UNK N   1      35.232   9.834  14.009  0.00  0.00     0.181 C 
BRANCH   5   6
HETATM    6  C   UNK N   1      34.205  10.394  14.967  0.00  0.00     0.163 C 
HETATM    7  O   UNK N   1      33.149  10.839  14.545  0.00  0.00    -0.648 OA
BRANCH   6   8
HETATM    8  O   UNK N   1      34.450  10.425  16.292  0.00  0.00    -0.775 OA
HETATM    9  H   UNK N   1      34.564  11.132  16.895  0.00  0.00     0.167 HD
ENDBRANCH   6   8
ENDBRANCH   5   6
BRANCH   5  10
HETATM   10  N   UNK N   1      34.904  10.260  12.660  0.00  0.00    -0.359 N 
HETATM   11  C   UNK N   1      34.565   9.452  11.712  0.00  0.00     0.129 C 
ATOM     12  HN  UNK N   1      34.944  11.257  12.449  1.00  0.00     0.162 HD
BRANCH  11  13
HETATM   13  C   UNK N   1      34.245  10.003  10.364  0.00  0.00     0.195 C 
BRANCH  13  14
HETATM   14  N   UNK N   1      33.664  11.327  10.501  0.00  0.00    -0.423 N 
HETATM   15  H   UNK N   1      33.683  12.126   9.868  0.00  0.00     0.150 HD
HETATM   16  H   UNK N   1      33.154  11.482  11.371  0.00  0.00     0.150 HD
ENDBRANCH  13  14
ENDBRANCH  11  13
BRANCH  11  17
HETATM   17  O   UNK N   1      34.499   8.120  11.921  0.00  0.00    -0.348 OA
HETATM   18  H   UNK N   1      33.958   7.497  11.478  0.00  0.00     0.219 HD
ENDBRANCH  11  17
ENDBRANCH   5  10
ENDBRANCH   4   5
ENDBRANCH   3   4
ENDBRANCH   2   3
ENDBRANCH   1   2
BRANCH   1  19
HETATM   19  C   UNK N   1      35.564  13.787  13.055  0.00  0.00     0.111 C 
HETATM   20  N   UNK N   1      36.222  14.483  12.182  0.00  0.00    -0.363 N 
ATOM     21  HN  UNK N   1      37.080  14.918  12.522  1.00  0.00     0.162 HD
BRANCH  20  22
HETATM   22  C   UNK N   1      35.903  14.729  10.781  0.00  0.00     0.153 C 
HETATM   23  C   UNK N   1      37.189  14.746   9.976  0.00  0.00     0.041 C 
BRANCH  22  24
HETATM   24  C   UNK N   1      35.128  15.990  10.499  0.00  0.00     0.135 C 
HETATM   25  N   UNK N   1      34.530  16.124   9.361  0.00  0.00    -0.359 N 
ATOM     26  HN  UNK N   1      34.599  15.360   8.688  1.00  0.00     0.162 HD
BRANCH  25  27
HETATM   27  C   UNK N   1      33.767  17.297   8.985  0.00  0.00     0.177 C 
HETATM   28  C   UNK N   1      32.465  16.829   8.352  0.00  0.00     0.043 C 
BRANCH  27  29
HETATM   29  C   UNK N   1      34.563  18.160   8.033  0.00  0.00     0.163 C 
HETATM   30  O   UNK N   1      34.556  17.937   6.832  0.00  0.00    -0.648 OA
BRANCH  29  31
HETATM   31  O   UNK N   1      35.287  19.191   8.507  0.00  0.00    -0.775 OA
HETATM   32  H   UNK N   1      35.458  20.086   8.286  0.00  0.00     0.167 HD
ENDBRANCH  29  31
ENDBRANCH  27  29
ENDBRANCH  25  27
BRANCH  24  33
HETATM   33  O   UNK N   1      35.047  16.955  11.442  0.00  0.00    -0.348 OA
HETATM   34  H   UNK N   1      34.979  17.489  12.209  0.00  0.00     0.219 HD
ENDBRANCH  24  33
ENDBRANCH  22  24
ENDBRANCH  20  22
BRANCH  19  35
HETATM   35  O   UNK N   1      34.413  13.155  12.754  0.00  0.00    -0.350 OA
HETATM   36  H   UNK N   1      34.211  12.280  13.024  0.00  0.00     0.219 HD
ENDBRANCH  19  35
ENDBRANCH   1  19
TORSDOF 18
ENDMDL
MODEL 5
REMARK VINA RESULT:      -5.9      4.761      7.784
REMARK  18 active torsions:
REMARK  status: ('A' for Active; 'I' for Inactive)
REMARK    1  A    between atoms: C_4  and  C_3 
REMARK    2  A    between atoms: C_5  and  C_3 
REMARK    3  A    between atoms: C_6  and  C_4 
REMARK    4  A    between atoms: C_10  and  C_5 
REMARK    5  A    between atoms: C_11  and  C_6 
REMARK    6  A    between atoms: C_12  and  C_7 
REMARK    7  A    between atoms: N_16  and  C_7 
REMARK    8  A    between atoms: C_13  and  C_8 
REMARK    9  A    between atoms: N_17  and  C_8 
REMARK   10  A    between atoms: C_14  and  C_9 
REMARK   11  A    between atoms: N_19  and  C_9 
REMARK   12  A    between atoms: C_15  and  C_10 
REMARK   13  A    between atoms: C_10  and  N_21 
REMARK   14  A    between atoms: C_11  and  O_23 
REMARK   15  A    between atoms: C_12  and  O_24 
REMARK   16  A    between atoms: C_13  and  O_25 
REMARK   17  A    between atoms: O_27  and  C_14 
REMARK   18  A    between atoms: O_29  and  C_15 
ROOT
HETATM    1  C   UNK N   1      24.493  19.480   4.110  0.00  0.00     0.083 C 
ENDROOT
BRANCH   1   2
HETATM    2  C   UNK N   1      25.761  19.769   4.915  0.00  0.00     0.008 C 
BRANCH   2   3
HETATM    3  C   UNK N   1      27.031  19.445   4.126  0.00  0.00     0.003 C 
BRANCH   3   4
HETATM    4  C   UNK N   1      28.171  19.122   5.081  0.00  0.00     0.036 C 
BRANCH   4   5
HETATM    5  C   UNK N   1      27.727  18.415   6.367  0.00  0.00     0.181 C 
BRANCH   5   6
HETATM    6  C   UNK N   1      27.455  16.948   6.122  0.00  0.00     0.163 C 
HETATM    7  O   UNK N   1      28.096  16.337   5.281  0.00  0.00    -0.648 OA
BRANCH   6   8
HETATM    8  O   UNK N   1      26.493  16.305   6.812  0.00  0.00    -0.775 OA
HETATM    9  H   UNK N   1      26.258  16.311   7.719  0.00  0.00     0.167 HD
ENDBRANCH   6   8
ENDBRANCH   5   6
BRANCH   5  10
HETATM   10  N   UNK N   1      28.769  18.544   7.369  0.00  0.00    -0.359 N 
HETATM   11  C   UNK N   1      28.558  18.474   8.641  0.00  0.00     0.129 C 
ATOM     12  HN  UNK N   1      29.725  18.701   7.049  1.00  0.00     0.162 HD
BRANCH  11  13
HETATM   13  C   UNK N   1      29.708  18.617   9.579  0.00  0.00     0.195 C 
BRANCH  13  14
HETATM   14  N   UNK N   1      30.315  17.318   9.811  0.00  0.00    -0.423 N 
HETATM   15  H   UNK N   1      30.433  16.523   9.185  0.00  0.00     0.150 HD
HETATM   16  H   UNK N   1      30.682  17.179  10.753  0.00  0.00     0.150 HD
ENDBRANCH  13  14
ENDBRANCH  11  13
BRANCH  11  17
HETATM   17  O   UNK N   1      27.317  18.276   9.132  0.00  0.00    -0.348 OA
HETATM   18  H   UNK N   1      26.517  18.192   8.651  0.00  0.00     0.219 HD
ENDBRANCH  11  17
ENDBRANCH   5  10
ENDBRANCH   4   5
ENDBRANCH   3   4
ENDBRANCH   2   3
ENDBRANCH   1   2
BRANCH   1  19
HETATM   19  C   UNK N   1      23.688  18.416   4.776  0.00  0.00     0.111 C 
HETATM   20  N   UNK N   1      22.406  18.395   4.597  0.00  0.00    -0.363 N 
ATOM     21  HN  UNK N   1      22.025  19.162   4.044  1.00  0.00     0.162 HD
BRANCH  20  22
HETATM   22  C   UNK N   1      21.432  17.423   5.080  0.00  0.00     0.153 C 
HETATM   23  C   UNK N   1      20.185  17.502   4.219  0.00  0.00     0.041 C 
BRANCH  22  24
HETATM   24  C   UNK N   1      21.039  17.555   6.529  0.00  0.00     0.135 C 
HETATM   25  N   UNK N   1      20.763  16.492   7.209  0.00  0.00    -0.359 N 
ATOM     26  HN  UNK N   1      20.827  15.589   6.738  1.00  0.00     0.162 HD
BRANCH  25  27
HETATM   27  C   UNK N   1      20.367  16.507   8.602  0.00  0.00     0.177 C 
HETATM   28  C   UNK N   1      20.465  15.085   9.136  0.00  0.00     0.043 C 
BRANCH  27  29
HETATM   29  C   UNK N   1      18.964  17.053   8.745  0.00  0.00     0.163 C 
HETATM   30  O   UNK N   1      17.996  16.384   8.417  0.00  0.00    -0.648 OA
BRANCH  29  31
HETATM   31  O   UNK N   1      18.772  18.289   9.243  0.00  0.00    -0.775 OA
HETATM   32  H   UNK N   1      18.821  18.724  10.072  0.00  0.00     0.167 HD
ENDBRANCH  29  31
ENDBRANCH  27  29
ENDBRANCH  25  27
BRANCH  24  33
HETATM   33  O   UNK N   1      21.000  18.776   7.107  0.00  0.00    -0.348 OA
HETATM   34  H   UNK N   1      21.016  19.535   7.656  0.00  0.00     0.219 HD
ENDBRANCH  24  33
ENDBRANCH  22  24
ENDBRANCH  20  22
BRANCH  19  35
HETATM   35  O   UNK N   1      24.334  17.470   5.486  0.00  0.00    -0.350 OA
HETATM   36  H   UNK N   1      23.981  16.621   5.667  0.00  0.00     0.219 HD
ENDBRANCH  19  35
ENDBRANCH   1  19
TORSDOF 18
ENDMDL
MODEL 6
REMARK VINA RESULT:      -5.8      9.215     13.498
REMARK  18 active torsions:
REMARK  status: ('A' for Active; 'I' for Inactive)
REMARK    1  A    between atoms: C_4  and  C_3 
REMARK    2  A    between atoms: C_5  and  C_3 
REMARK    3  A    between atoms: C_6  and  C_4 
REMARK    4  A    between atoms: C_10  and  C_5 
REMARK    5  A    between atoms: C_11  and  C_6 
REMARK    6  A    between atoms: C_12  and  C_7 
REMARK    7  A    between atoms: N_16  and  C_7 
REMARK    8  A    between atoms: C_13  and  C_8 
REMARK    9  A    between atoms: N_17  and  C_8 
REMARK   10  A    between atoms: C_14  and  C_9 
REMARK   11  A    between atoms: N_19  and  C_9 
REMARK   12  A    between atoms: C_15  and  C_10 
REMARK   13  A    between atoms: C_10  and  N_21 
REMARK   14  A    between atoms: C_11  and  O_23 
REMARK   15  A    between atoms: C_12  and  O_24 
REMARK   16  A    between atoms: C_13  and  O_25 
REMARK   17  A    between atoms: O_27  and  C_14 
REMARK   18  A    between atoms: O_29  and  C_15 
ROOT
HETATM    1  C   UNK N   1      31.835  16.806   7.026  0.00  0.00     0.083 C 
ENDROOT
BRANCH   1   2
HETATM    2  C   UNK N   1      33.208  17.479   7.003  0.00  0.00     0.008 C 
BRANCH   2   3
HETATM    3  C   UNK N   1      34.303  16.572   7.567  0.00  0.00     0.003 C 
BRANCH   3   4
HETATM    4  C   UNK N   1      34.517  16.869   9.044  0.00  0.00     0.036 C 
BRANCH   4   5
HETATM    5  C   UNK N   1      34.490  15.625   9.941  0.00  0.00     0.181 C 
BRANCH   5   6
HETATM    6  C   UNK N   1      33.219  14.830   9.739  0.00  0.00     0.163 C 
HETATM    7  O   UNK N   1      33.232  13.813   9.063  0.00  0.00    -0.648 OA
BRANCH   6   8
HETATM    8  O   UNK N   1      32.059  15.243  10.286  0.00  0.00    -0.775 OA
HETATM    9  H   UNK N   1      31.227  14.825  10.389  0.00  0.00     0.167 HD
ENDBRANCH   6   8
ENDBRANCH   5   6
BRANCH   5  10
HETATM   10  N   UNK N   1      35.631  14.784   9.628  0.00  0.00    -0.359 N 
HETATM   11  C   UNK N   1      36.814  14.964  10.112  0.00  0.00     0.129 C 
ATOM     12  HN  UNK N   1      35.489  14.003   8.986  1.00  0.00     0.162 HD
BRANCH  11  13
HETATM   13  C   UNK N   1      37.911  14.032   9.723  0.00  0.00     0.195 C 
BRANCH  13  14
HETATM   14  N   UNK N   1      38.447  13.385  10.907  0.00  0.00    -0.423 N 
HETATM   15  H   UNK N   1      38.020  13.215  11.817  0.00  0.00     0.150 HD
HETATM   16  H   UNK N   1      39.405  13.048  10.814  0.00  0.00     0.150 HD
ENDBRANCH  13  14
ENDBRANCH  11  13
BRANCH  11  17
HETATM   17  O   UNK N   1      37.072  15.982  10.960  0.00  0.00    -0.348 OA
HETATM   18  H   UNK N   1      36.924  16.896  10.821  0.00  0.00     0.219 HD
ENDBRANCH  11  17
ENDBRANCH   5  10
ENDBRANCH   4   5
ENDBRANCH   3   4
ENDBRANCH   2   3
ENDBRANCH   1   2
BRANCH   1  19
HETATM   19  C   UNK N   1      30.911  17.549   7.930  0.00  0.00     0.111 C 
HETATM   20  N   UNK N   1      29.705  17.798   7.529  0.00  0.00    -0.363 N 
ATOM     21  HN  UNK N   1      29.490  17.509   6.574  1.00  0.00     0.162 HD
BRANCH  20  22
HETATM   22  C   UNK N   1      28.613  18.436   8.254  0.00  0.00     0.153 C 
HETATM   23  C   UNK N   1      27.931  17.404   9.132  0.00  0.00     0.041 C 
BRANCH  22  24
HETATM   24  C   UNK N   1      27.575  19.122   7.403  0.00  0.00     0.135 C 
HETATM   25  N   UNK N   1      27.373  18.709   6.196  0.00  0.00    -0.359 N 
ATOM     26  HN  UNK N   1      27.925  17.920   5.858  1.00  0.00     0.162 HD
BRANCH  25  27
HETATM   27  C   UNK N   1      26.408  19.302   5.293  0.00  0.00     0.177 C 
HETATM   28  C   UNK N   1      25.458  18.206   4.833  0.00  0.00     0.043 C 
BRANCH  27  29
HETATM   29  C   UNK N   1      27.112  19.948   4.120  0.00  0.00     0.163 C 
HETATM   30  O   UNK N   1      26.486  20.596   3.296  0.00  0.00    -0.648 OA
BRANCH  29  31
HETATM   31  O   UNK N   1      28.444  19.814   3.980  0.00  0.00    -0.775 OA
HETATM   32  H   UNK N   1      29.222  20.279   4.219  0.00  0.00     0.167 HD
ENDBRANCH  29  31
ENDBRANCH  27  29
ENDBRANCH  25  27
BRANCH  24  33
HETATM   33  O   UNK N   1      26.854  20.144   7.915  0.00  0.00    -0.348 OA
HETATM   34  H   UNK N   1      26.511  20.935   8.283  0.00  0.00     0.219 HD
ENDBRANCH  24  33
ENDBRANCH  22  24
ENDBRANCH  20  22
BRANCH  19  35
HETATM   35  O   UNK N   1      31.341  17.874   9.165  0.00  0.00    -0.350 OA
HETATM   36  H   UNK N   1      30.776  17.974   9.906  0.00  0.00     0.219 HD
ENDBRANCH  19  35
ENDBRANCH   1  19
TORSDOF 18
ENDMDL
MODEL 7
REMARK VINA RESULT:      -5.7     11.620     14.758
REMARK  18 active torsions:
REMARK  status: ('A' for Active; 'I' for Inactive)
REMARK    1  A    between atoms: C_4  and  C_3 
REMARK    2  A    between atoms: C_5  and  C_3 
REMARK    3  A    between atoms: C_6  and  C_4 
REMARK    4  A    between atoms: C_10  and  C_5 
REMARK    5  A    between atoms: C_11  and  C_6 
REMARK    6  A    between atoms: C_12  and  C_7 
REMARK    7  A    between atoms: N_16  and  C_7 
REMARK    8  A    between atoms: C_13  and  C_8 
REMARK    9  A    between atoms: N_17  and  C_8 
REMARK   10  A    between atoms: C_14  and  C_9 
REMARK   11  A    between atoms: N_19  and  C_9 
REMARK   12  A    between atoms: C_15  and  C_10 
REMARK   13  A    between atoms: C_10  and  N_21 
REMARK   14  A    between atoms: C_11  and  O_23 
REMARK   15  A    between atoms: C_12  and  O_24 
REMARK   16  A    between atoms: C_13  and  O_25 
REMARK   17  A    between atoms: O_27  and  C_14 
REMARK   18  A    between atoms: O_29  and  C_15 
ROOT
HETATM    1  C   UNK N   1      36.055  15.318  11.925  0.00  0.00     0.083 C 
ENDROOT
BRANCH   1   2
HETATM    2  C   UNK N   1      35.777  15.022  10.451  0.00  0.00     0.008 C 
BRANCH   2   3
HETATM    3  C   UNK N   1      35.345  16.273   9.683  0.00  0.00     0.003 C 
BRANCH   3   4
HETATM    4  C   UNK N   1      33.882  16.160   9.281  0.00  0.00     0.036 C 
BRANCH   4   5
HETATM    5  C   UNK N   1      33.284  17.460   8.728  0.00  0.00     0.181 C 
BRANCH   5   6
HETATM    6  C   UNK N   1      34.282  18.201   7.868  0.00  0.00     0.163 C 
HETATM    7  O   UNK N   1      34.907  19.145   8.327  0.00  0.00    -0.648 OA
BRANCH   6   8
HETATM    8  O   UNK N   1      34.480  17.843   6.584  0.00  0.00    -0.775 OA
HETATM    9  H   UNK N   1      34.347  17.036   6.128  0.00  0.00     0.167 HD
ENDBRANCH   6   8
ENDBRANCH   5   6
BRANCH   5  10
HETATM   10  N   UNK N   1      32.111  17.147   7.933  0.00  0.00    -0.359 N 
HETATM   11  C   UNK N   1      30.913  17.520   8.237  0.00  0.00     0.129 C 
ATOM     12  HN  UNK N   1      32.241  16.600   7.081  1.00  0.00     0.162 HD
BRANCH  11  13
HETATM   13  C   UNK N   1      29.782  17.144   7.341  0.00  0.00     0.195 C 
BRANCH  13  14
HETATM   14  N   UNK N   1      30.124  17.456   5.964  0.00  0.00    -0.423 N 
HETATM   15  H   UNK N   1      31.028  17.660   5.538  0.00  0.00     0.150 HD
HETATM   16  H   UNK N   1      29.333  17.474   5.320  0.00  0.00     0.150 HD
ENDBRANCH  13  14
ENDBRANCH  11  13
BRANCH  11  17
HETATM   17  O   UNK N   1      30.670  18.239   9.353  0.00  0.00    -0.348 OA
HETATM   18  H   UNK N   1      31.070  18.145  10.194  0.00  0.00     0.219 HD
ENDBRANCH  11  17
ENDBRANCH   5  10
ENDBRANCH   4   5
ENDBRANCH   3   4
ENDBRANCH   2   3
ENDBRANCH   1   2
BRANCH   1  19
HETATM   19  C   UNK N   1      35.706  14.136  12.764  0.00  0.00     0.111 C 
HETATM   20  N   UNK N   1      36.584  13.679  13.600  0.00  0.00    -0.363 N 
ATOM     21  HN  UNK N   1      37.493  14.140  13.580  1.00  0.00     0.162 HD
BRANCH  20  22
HETATM   22  C   UNK N   1      36.450  12.594  14.565  0.00  0.00     0.153 C 
HETATM   23  C   UNK N   1      36.077  11.321  13.829  0.00  0.00     0.041 C 
BRANCH  22  24
HETATM   24  C   UNK N   1      35.461  12.828  15.678  0.00  0.00     0.135 C 
HETATM   25  N   UNK N   1      35.896  13.047  16.875  0.00  0.00    -0.359 N 
ATOM     26  HN  UNK N   1      36.905  13.060  17.025  1.00  0.00     0.162 HD
BRANCH  25  27
HETATM   27  C   UNK N   1      35.034  13.274  18.016  0.00  0.00     0.177 C 
HETATM   28  C   UNK N   1      35.235  14.709  18.481  0.00  0.00     0.043 C 
BRANCH  27  29
HETATM   29  C   UNK N   1      35.349  12.289  19.119  0.00  0.00     0.163 C 
HETATM   30  O   UNK N   1      35.227  11.087  18.939  0.00  0.00    -0.648 OA
BRANCH  29  31
HETATM   31  O   UNK N   1      35.774  12.736  20.316  0.00  0.00    -0.775 OA
HETATM   32  H   UNK N   1      35.515  13.366  20.960  0.00  0.00     0.167 HD
ENDBRANCH  29  31
ENDBRANCH  27  29
ENDBRANCH  25  27
BRANCH  24  33
HETATM   33  O   UNK N   1      34.136  12.827  15.412  0.00  0.00    -0.348 OA
HETATM   34  H   UNK N   1      33.204  12.735  15.379  0.00  0.00     0.219 HD
ENDBRANCH  24  33
ENDBRANCH  22  24
ENDBRANCH  20  22
BRANCH  19  35
HETATM   35  O   UNK N   1      34.462  13.626  12.674  0.00  0.00    -0.350 OA
HETATM   36  H   UNK N   1      34.240  12.876  12.157  0.00  0.00     0.219 HD
ENDBRANCH  19  35
ENDBRANCH   1  19
TORSDOF 18
ENDMDL
MODEL 8
REMARK VINA RESULT:      -5.7      8.015     11.532
REMARK  18 active torsions:
REMARK  status: ('A' for Active; 'I' for Inactive)
REMARK    1  A    between atoms: C_4  and  C_3 
REMARK    2  A    between atoms: C_5  and  C_3 
REMARK    3  A    between atoms: C_6  and  C_4 
REMARK    4  A    between atoms: C_10  and  C_5 
REMARK    5  A    between atoms: C_11  and  C_6 
REMARK    6  A    between atoms: C_12  and  C_7 
REMARK    7  A    between atoms: N_16  and  C_7 
REMARK    8  A    between atoms: C_13  and  C_8 
REMARK    9  A    between atoms: N_17  and  C_8 
REMARK   10  A    between atoms: C_14  and  C_9 
REMARK   11  A    between atoms: N_19  and  C_9 
REMARK   12  A    between atoms: C_15  and  C_10 
REMARK   13  A    between atoms: C_10  and  N_21 
REMARK   14  A    between atoms: C_11  and  O_23 
REMARK   15  A    between atoms: C_12  and  O_24 
REMARK   16  A    between atoms: C_13  and  O_25 
REMARK   17  A    between atoms: O_27  and  C_14 
REMARK   18  A    between atoms: O_29  and  C_15 
ROOT
HETATM    1  C   UNK N   1      31.664  17.408   4.702  0.00  0.00     0.083 C 
ENDROOT
BRANCH   1   2
HETATM    2  C   UNK N   1      32.386  16.390   5.585  0.00  0.00     0.008 C 
BRANCH   2   3
HETATM    3  C   UNK N   1      33.851  16.761   5.815  0.00  0.00     0.003 C 
BRANCH   3   4
HETATM    4  C   UNK N   1      33.969  17.719   6.992  0.00  0.00     0.036 C 
BRANCH   4   5
HETATM    5  C   UNK N   1      33.309  17.209   8.279  0.00  0.00     0.181 C 
BRANCH   5   6
HETATM    6  C   UNK N   1      34.312  17.101   9.406  0.00  0.00     0.163 C 
HETATM    7  O   UNK N   1      35.264  17.865   9.456  0.00  0.00    -0.648 OA
BRANCH   6   8
HETATM    8  O   UNK N   1      34.179  16.152  10.353  0.00  0.00    -0.775 OA
HETATM    9  H   UNK N   1      34.806  15.662  10.847  0.00  0.00     0.167 HD
ENDBRANCH   6   8
ENDBRANCH   5   6
BRANCH   5  10
HETATM   10  N   UNK N   1      32.252  18.124   8.671  0.00  0.00    -0.359 N 
HETATM   11  C   UNK N   1      31.033  17.763   8.895  0.00  0.00     0.129 C 
ATOM     12  HN  UNK N   1      32.487  19.111   8.775  1.00  0.00     0.162 HD
BRANCH  11  13
HETATM   13  C   UNK N   1      30.030  18.791   9.296  0.00  0.00     0.195 C 
BRANCH  13  14
HETATM   14  N   UNK N   1      28.748  18.155   9.541  0.00  0.00    -0.423 N 
HETATM   15  H   UNK N   1      28.168  18.139  10.380  0.00  0.00     0.150 HD
HETATM   16  H   UNK N   1      28.366  17.642   8.747  0.00  0.00     0.150 HD
ENDBRANCH  13  14
ENDBRANCH  11  13
BRANCH  11  17
HETATM   17  O   UNK N   1      30.653  16.474   8.768  0.00  0.00    -0.348 OA
HETATM   18  H   UNK N   1      30.056  15.998   9.310  0.00  0.00     0.219 HD
ENDBRANCH  11  17
ENDBRANCH   5  10
ENDBRANCH   4   5
ENDBRANCH   3   4
ENDBRANCH   2   3
ENDBRANCH   1   2
BRANCH   1  19
HETATM   19  C   UNK N   1      30.188  17.219   4.794  0.00  0.00     0.111 C 
HETATM   20  N   UNK N   1      29.678  16.800   5.908  0.00  0.00    -0.363 N 
ATOM     21  HN  UNK N   1      30.349  16.570   6.641  1.00  0.00     0.162 HD
BRANCH  20  22
HETATM   22  C   UNK N   1      28.275  16.611   6.257  0.00  0.00     0.153 C 
HETATM   23  C   UNK N   1      27.722  15.440   5.467  0.00  0.00     0.041 C 
BRANCH  22  24
HETATM   24  C   UNK N   1      27.383  17.808   6.054  0.00  0.00     0.135 C 
HETATM   25  N   UNK N   1      26.654  17.882   4.990  0.00  0.00    -0.359 N 
ATOM     26  HN  UNK N   1      26.703  17.114   4.319  1.00  0.00     0.162 HD
BRANCH  25  27
HETATM   27  C   UNK N   1      25.771  18.990   4.693  0.00  0.00     0.177 C 
HETATM   28  C   UNK N   1      24.417  18.421   4.293  0.00  0.00     0.043 C 
BRANCH  27  29
HETATM   29  C   UNK N   1      26.354  19.849   3.594  0.00  0.00     0.163 C 
HETATM   30  O   UNK N   1      25.628  20.413   2.790  0.00  0.00    -0.648 OA
BRANCH  29  31
HETATM   31  O   UNK N   1      27.688  19.999   3.496  0.00  0.00    -0.775 OA
HETATM   32  H   UNK N   1      28.425  20.091   4.068  0.00  0.00     0.167 HD
ENDBRANCH  29  31
ENDBRANCH  27  29
ENDBRANCH  25  27
BRANCH  24  33
HETATM   33  O   UNK N   1      27.338  18.780   6.993  0.00  0.00    -0.348 OA
HETATM   34  H   UNK N   1      27.228  19.330   7.744  0.00  0.00     0.219 HD
ENDBRANCH  24  33
ENDBRANCH  22  24
ENDBRANCH  20  22
BRANCH  19  35
HETATM   35  O   UNK N   1      29.427  17.560   3.735  0.00  0.00    -0.350 OA
HETATM   36  H   UNK N   1      29.480  18.388   3.298  0.00  0.00     0.219 HD
ENDBRANCH  19  35
ENDBRANCH   1  19
TORSDOF 18
ENDMDL
MODEL 9
REMARK VINA RESULT:      -5.7      8.421     11.557
REMARK  18 active torsions:
REMARK  status: ('A' for Active; 'I' for Inactive)
REMARK    1  A    between atoms: C_4  and  C_3 
REMARK    2  A    between atoms: C_5  and  C_3 
REMARK    3  A    between atoms: C_6  and  C_4 
REMARK    4  A    between atoms: C_10  and  C_5 
REMARK    5  A    between atoms: C_11  and  C_6 
REMARK    6  A    between atoms: C_12  and  C_7 
REMARK    7  A    between atoms: N_16  and  C_7 
REMARK    8  A    between atoms: C_13  and  C_8 
REMARK    9  A    between atoms: N_17  and  C_8 
REMARK   10  A    between atoms: C_14  and  C_9 
REMARK   11  A    between atoms: N_19  and  C_9 
REMARK   12  A    between atoms: C_15  and  C_10 
REMARK   13  A    between atoms: C_10  and  N_21 
REMARK   14  A    between atoms: C_11  and  O_23 
REMARK   15  A    between atoms: C_12  and  O_24 
REMARK   16  A    between atoms: C_13  and  O_25 
REMARK   17  A    between atoms: O_27  and  C_14 
REMARK   18  A    between atoms: O_29  and  C_15 
ROOT
HETATM    1  C   UNK N   1      28.250  19.166   7.669  0.00  0.00     0.083 C 
ENDROOT
BRANCH   1   2
HETATM    2  C   UNK N   1      28.253  18.123   8.788  0.00  0.00     0.008 C 
BRANCH   2   3
HETATM    3  C   UNK N   1      29.473  18.260   9.701  0.00  0.00     0.003 C 
BRANCH   3   4
HETATM    4  C   UNK N   1      30.749  18.255   8.871  0.00  0.00     0.036 C 
BRANCH   4   5
HETATM    5  C   UNK N   1      31.314  16.855   8.606  0.00  0.00     0.181 C 
BRANCH   5   6
HETATM    6  C   UNK N   1      31.194  16.481   7.145  0.00  0.00     0.163 C 
HETATM    7  O   UNK N   1      30.980  15.322   6.823  0.00  0.00    -0.648 OA
BRANCH   6   8
HETATM    8  O   UNK N   1      31.339  17.415   6.185  0.00  0.00    -0.775 OA
HETATM    9  H   UNK N   1      31.445  17.353   5.257  0.00  0.00     0.167 HD
ENDBRANCH   6   8
ENDBRANCH   5   6
BRANCH   5  10
HETATM   10  N   UNK N   1      32.714  16.822   8.991  0.00  0.00    -0.359 N 
HETATM   11  C   UNK N   1      33.314  15.770   9.436  0.00  0.00     0.129 C 
ATOM     12  HN  UNK N   1      33.255  17.683   8.904  1.00  0.00     0.162 HD
BRANCH  11  13
HETATM   13  C   UNK N   1      34.759  15.852   9.797  0.00  0.00     0.195 C 
BRANCH  13  14
HETATM   14  N   UNK N   1      34.964  16.926  10.753  0.00  0.00    -0.423 N 
HETATM   15  H   UNK N   1      35.538  17.767  10.689  0.00  0.00     0.150 HD
HETATM   16  H   UNK N   1      34.452  16.823  11.629  0.00  0.00     0.150 HD
ENDBRANCH  13  14
ENDBRANCH  11  13
BRANCH  11  17
HETATM   17  O   UNK N   1      32.656  14.600   9.582  0.00  0.00    -0.348 OA
HETATM   18  H   UNK N   1      31.922  14.421  10.135  0.00  0.00     0.219 HD
ENDBRANCH  11  17
ENDBRANCH   5  10
ENDBRANCH   4   5
ENDBRANCH   3   4
ENDBRANCH   2   3
ENDBRANCH   1   2
BRANCH   1  19
HETATM   19  C   UNK N   1      28.015  18.510   6.351  0.00  0.00     0.111 C 
HETATM   20  N   UNK N   1      28.138  17.224   6.260  0.00  0.00    -0.363 N 
ATOM     21  HN  UNK N   1      28.452  16.750   7.106  1.00  0.00     0.162 HD
BRANCH  20  22
HETATM   22  C   UNK N   1      27.892  16.361   5.110  0.00  0.00     0.153 C 
HETATM   23  C   UNK N   1      27.651  14.945   5.597  0.00  0.00     0.041 C 
BRANCH  22  24
HETATM   24  C   UNK N   1      28.973  16.345   4.061  0.00  0.00     0.135 C 
HETATM   25  N   UNK N   1      29.799  15.353   4.018  0.00  0.00    -0.359 N 
ATOM     26  HN  UNK N   1      29.685  14.602   4.700  1.00  0.00     0.162 HD
BRANCH  25  27
HETATM   27  C   UNK N   1      30.877  15.243   3.057  0.00  0.00     0.177 C 
HETATM   28  C   UNK N   1      31.215  13.768   2.894  0.00  0.00     0.043 C 
BRANCH  27  29
HETATM   29  C   UNK N   1      32.079  16.035   3.522  0.00  0.00     0.163 C 
HETATM   30  O   UNK N   1      32.252  17.185   3.149  0.00  0.00    -0.648 OA
BRANCH  29  31
HETATM   31  O   UNK N   1      32.971  15.472   4.358  0.00  0.00    -0.775 OA
HETATM   32  H   UNK N   1      33.539  14.727   4.376  0.00  0.00     0.167 HD
ENDBRANCH  29  31
ENDBRANCH  27  29
ENDBRANCH  25  27
BRANCH  24  33
HETATM   33  O   UNK N   1      29.055  17.354   3.164  0.00  0.00    -0.348 OA
HETATM   34  H   UNK N   1      29.085  18.158   2.684  0.00  0.00     0.219 HD
ENDBRANCH  24  33
ENDBRANCH  22  24
ENDBRANCH  20  22
BRANCH  19  35
HETATM   35  O   UNK N   1      27.611  19.272   5.315  0.00  0.00    -0.350 OA
HETATM   36  H   UNK N   1      26.714  19.382   5.065  0.00  0.00     0.219 HD
ENDBRANCH  19  35
ENDBRANCH   1  19
TORSDOF 18
ENDMDL
