MODEL 1
REMARK VINA RESULT:      -5.0      0.000      0.000
REMARK  9 active torsions:
REMARK  status: ('A' for Active; 'I' for Inactive)
REMARK    1  A    between atoms: C_2  and  C_4 
REMARK    2  A    between atoms: C_4  and  O_5 
REMARK    3  A    between atoms: C_4  and  C_6 
REMARK    4  A    between atoms: C_6  and  O_7 
REMARK    5  A    between atoms: C_6  and  C_8 
REMARK    6  A    between atoms: C_8  and  O_9 
REMARK    7  A    between atoms: O_9  and  P_10 
REMARK    8  A    between atoms: P_10  and  O_11 
REMARK    9  A    between atoms: P_10  and  O_12 
ROOT
HETATM    1  C   UNK N   1      34.579  14.952  10.529  0.00  0.00     0.178 C 
ENDROOT
BRANCH   1   2
HETATM    2  C   UNK N   1      35.731  14.200  11.213  0.00  0.00     0.217 C 
BRANCH   2   3
HETATM    3  C   UNK N   1      35.501  13.927  12.675  0.00  0.00     0.154 C 
HETATM    4  C   UNK N   1      36.371  14.589  13.688  0.00  0.00     0.093 C 
HETATM    5  O   UNK N   1      34.619  13.167  13.045  0.00  0.00    -0.295 OA
ENDBRANCH   2   3
BRANCH   2   6
HETATM    6  O   UNK N   1      36.933  14.897  11.059  0.00  0.00    -0.385 OA
HETATM    7  H   UNK N   1      37.404  15.560  11.587  0.00  0.00     0.210 HD
ENDBRANCH   2   6
ENDBRANCH   1   2
BRANCH   1   8
HETATM    8  O   UNK N   1      33.417  14.906  11.306  0.00  0.00    -0.390 OA
HETATM    9  H   UNK N   1      32.719  15.178  11.921  0.00  0.00     0.210 HD
ENDBRANCH   1   8
BRANCH   1  10
HETATM   10  C   UNK N   1      34.955  16.401  10.226  0.00  0.00     0.215 C 
BRANCH  10  11
HETATM   11  O   UNK N   1      35.358  16.531   8.894  0.00  0.00    -0.294 OA
BRANCH  11  12
HETATM   12  P   UNK N   1      34.472  17.875   8.239  0.00  0.00     0.390 P 
HETATM   13  O   UNK N   1      34.440  17.717   6.696  0.00  0.00    -0.632 OA
BRANCH  12  14
HETATM   14  O   UNK N   1      35.305  19.360   8.577  0.00  0.00    -0.307 OA
HETATM   15  H   UNK N   1      35.349  20.282   8.278  0.00  0.00     0.222 HD
ENDBRANCH  12  14
BRANCH  12  16
HETATM   16  O   UNK N   1      32.832  17.947   8.805  0.00  0.00    -0.307 OA
HETATM   17  H   UNK N   1      32.178  18.492   8.340  0.00  0.00     0.222 HD
ENDBRANCH  12  16
ENDBRANCH  11  12
ENDBRANCH  10  11
ENDBRANCH   1  10
TORSDOF 9
ENDMDL
MODEL 2
REMARK VINA RESULT:      -4.9      1.221      2.555
REMARK  9 active torsions:
REMARK  status: ('A' for Active; 'I' for Inactive)
REMARK    1  A    between atoms: C_2  and  C_4 
REMARK    2  A    between atoms: C_4  and  O_5 
REMARK    3  A    between atoms: C_4  and  C_6 
REMARK    4  A    between atoms: C_6  and  O_7 
REMARK    5  A    between atoms: C_6  and  C_8 
REMARK    6  A    between atoms: C_8  and  O_9 
REMARK    7  A    between atoms: O_9  and  P_10 
REMARK    8  A    between atoms: P_10  and  O_11 
REMARK    9  A    between atoms: P_10  and  O_12 
ROOT
HETATM    1  C   UNK N   1      35.848  15.888  11.178  0.00  0.00     0.178 C 
ENDROOT
BRANCH   1   2
HETATM    2  C   UNK N   1      34.935  14.695  11.504  0.00  0.00     0.217 C 
BRANCH   2   3
HETATM    3  C   UNK N   1      35.294  13.431  10.770  0.00  0.00     0.154 C 
HETATM    4  C   UNK N   1      34.466  13.001   9.607  0.00  0.00     0.093 C 
HETATM    5  O   UNK N   1      36.246  12.748  11.115  0.00  0.00    -0.295 OA
ENDBRANCH   2   3
BRANCH   2   6
HETATM    6  O   UNK N   1      33.599  15.014  11.245  0.00  0.00    -0.385 OA
HETATM    7  H   UNK N   1      33.030  14.962  10.462  0.00  0.00     0.210 HD
ENDBRANCH   2   6
ENDBRANCH   1   2
BRANCH   1   8
HETATM    8  O   UNK N   1      36.995  15.471  10.497  0.00  0.00    -0.390 OA
HETATM    9  H   UNK N   1      37.662  14.887  10.102  0.00  0.00     0.210 HD
ENDBRANCH   1   8
BRANCH   1  10
HETATM   10  C   UNK N   1      35.112  16.955  10.370  0.00  0.00     0.215 C 
BRANCH  10  11
HETATM   11  O   UNK N   1      34.884  16.506   9.066  0.00  0.00    -0.294 OA
BRANCH  11  12
HETATM   12  P   UNK N   1      34.408  17.898   8.141  0.00  0.00     0.390 P 
HETATM   13  O   UNK N   1      32.912  18.180   8.442  0.00  0.00    -0.632 OA
BRANCH  12  14
HETATM   14  O   UNK N   1      34.526  17.555   6.443  0.00  0.00    -0.307 OA
HETATM   15  H   UNK N   1      33.973  17.498   5.648  0.00  0.00     0.222 HD
ENDBRANCH  12  14
BRANCH  12  16
HETATM   16  O   UNK N   1      35.315  19.323   8.545  0.00  0.00    -0.307 OA
HETATM   17  H   UNK N   1      35.094  19.832   9.341  0.00  0.00     0.222 HD
ENDBRANCH  12  16
ENDBRANCH  11  12
ENDBRANCH  10  11
ENDBRANCH   1  10
TORSDOF 9
ENDMDL
MODEL 3
REMARK VINA RESULT:      -4.6      2.560      5.292
REMARK  9 active torsions:
REMARK  status: ('A' for Active; 'I' for Inactive)
REMARK    1  A    between atoms: C_2  and  C_4 
REMARK    2  A    between atoms: C_4  and  O_5 
REMARK    3  A    between atoms: C_4  and  C_6 
REMARK    4  A    between atoms: C_6  and  O_7 
REMARK    5  A    between atoms: C_6  and  C_8 
REMARK    6  A    between atoms: C_8  and  O_9 
REMARK    7  A    between atoms: O_9  and  P_10 
REMARK    8  A    between atoms: P_10  and  O_11 
REMARK    9  A    between atoms: P_10  and  O_12 
ROOT
HETATM    1  C   UNK N   1      34.922  15.970   9.763  0.00  0.00     0.178 C 
ENDROOT
BRANCH   1   2
HETATM    2  C   UNK N   1      33.681  15.063   9.759  0.00  0.00     0.217 C 
BRANCH   2   3
HETATM    3  C   UNK N   1      32.648  15.445   8.733  0.00  0.00     0.154 C 
HETATM    4  C   UNK N   1      32.347  14.506   7.615  0.00  0.00     0.093 C 
HETATM    5  O   UNK N   1      32.059  16.513   8.796  0.00  0.00    -0.295 OA
ENDBRANCH   2   3
BRANCH   2   6
HETATM    6  O   UNK N   1      33.086  15.040  11.025  0.00  0.00    -0.385 OA
HETATM    7  H   UNK N   1      32.964  15.697  11.728  0.00  0.00     0.210 HD
ENDBRANCH   2   6
ENDBRANCH   1   2
BRANCH   1   8
HETATM    8  O   UNK N   1      34.607  17.252  10.223  0.00  0.00    -0.390 OA
HETATM    9  H   UNK N   1      34.200  18.131  10.270  0.00  0.00     0.210 HD
ENDBRANCH   1   8
BRANCH   1  10
HETATM   10  C   UNK N   1      36.053  15.371  10.599  0.00  0.00     0.215 C 
BRANCH  10  11
HETATM   11  O   UNK N   1      35.886  15.698  11.948  0.00  0.00    -0.294 OA
BRANCH  11  12
HETATM   12  P   UNK N   1      36.078  14.221  12.841  0.00  0.00     0.390 P 
HETATM   13  O   UNK N   1      36.444  14.593  14.303  0.00  0.00    -0.632 OA
BRANCH  12  14
HETATM   14  O   UNK N   1      37.409  13.306  12.204  0.00  0.00    -0.307 OA
HETATM   15  H   UNK N   1      37.592  12.499  11.699  0.00  0.00     0.222 HD
ENDBRANCH  12  14
BRANCH  12  16
HETATM   16  O   UNK N   1      34.633  13.258  12.879  0.00  0.00    -0.307 OA
HETATM   17  H   UNK N   1      34.498  12.608  13.585  0.00  0.00     0.222 HD
ENDBRANCH  12  16
ENDBRANCH  11  12
ENDBRANCH  10  11
ENDBRANCH   1  10
TORSDOF 9
ENDMDL
MODEL 4
REMARK VINA RESULT:      -4.6      2.727      5.328
REMARK  9 active torsions:
REMARK  status: ('A' for Active; 'I' for Inactive)
REMARK    1  A    between atoms: C_2  and  C_4 
REMARK    2  A    between atoms: C_4  and  O_5 
REMARK    3  A    between atoms: C_4  and  C_6 
REMARK    4  A    between atoms: C_6  and  O_7 
REMARK    5  A    between atoms: C_6  and  C_8 
REMARK    6  A    between atoms: C_8  and  O_9 
REMARK    7  A    between atoms: O_9  and  P_10 
REMARK    8  A    between atoms: P_10  and  O_11 
REMARK    9  A    between atoms: P_10  and  O_12 
ROOT
HETATM    1  C   UNK N   1      32.983  15.441   8.081  0.00  0.00     0.178 C 
ENDROOT
BRANCH   1   2
HETATM    2  C   UNK N   1      32.609  16.884   7.708  0.00  0.00     0.217 C 
BRANCH   2   3
HETATM    3  C   UNK N   1      33.548  17.524   6.722  0.00  0.00     0.154 C 
HETATM    4  C   UNK N   1      33.164  17.588   5.283  0.00  0.00     0.093 C 
HETATM    5  O   UNK N   1      34.622  17.983   7.078  0.00  0.00    -0.295 OA
ENDBRANCH   2   3
BRANCH   2   6
HETATM    6  O   UNK N   1      32.530  17.682   8.853  0.00  0.00    -0.385 OA
HETATM    7  H   UNK N   1      32.465  18.637   9.011  0.00  0.00     0.210 HD
ENDBRANCH   2   6
ENDBRANCH   1   2
BRANCH   1   8
HETATM    8  O   UNK N   1      33.973  14.942   7.229  0.00  0.00    -0.390 OA
HETATM    9  H   UNK N   1      34.830  14.839   6.787  0.00  0.00     0.210 HD
ENDBRANCH   1   8
BRANCH   1  10
HETATM   10  C   UNK N   1      33.435  15.335   9.537  0.00  0.00     0.215 C 
BRANCH  10  11
HETATM   11  O   UNK N   1      34.765  14.911   9.603  0.00  0.00    -0.294 OA
BRANCH  11  12
HETATM   12  P   UNK N   1      35.615  16.095  10.549  0.00  0.00     0.390 P 
HETATM   13  O   UNK N   1      35.033  16.060  11.987  0.00  0.00    -0.632 OA
BRANCH  12  14
HETATM   14  O   UNK N   1      35.316  17.686   9.921  0.00  0.00    -0.307 OA
HETATM   15  H   UNK N   1      34.868  18.131   9.185  0.00  0.00     0.222 HD
ENDBRANCH  12  14
BRANCH  12  16
HETATM   16  O   UNK N   1      37.320  15.784  10.651  0.00  0.00    -0.307 OA
HETATM   17  H   UNK N   1      37.768  15.282   9.952  0.00  0.00     0.222 HD
ENDBRANCH  12  16
ENDBRANCH  11  12
ENDBRANCH  10  11
ENDBRANCH   1  10
TORSDOF 9
ENDMDL
MODEL 5
REMARK VINA RESULT:      -4.6     14.379     16.361
REMARK  9 active torsions:
REMARK  status: ('A' for Active; 'I' for Inactive)
REMARK    1  A    between atoms: C_2  and  C_4 
REMARK    2  A    between atoms: C_4  and  O_5 
REMARK    3  A    between atoms: C_4  and  C_6 
REMARK    4  A    between atoms: C_6  and  O_7 
REMARK    5  A    between atoms: C_6  and  C_8 
REMARK    6  A    between atoms: C_8  and  O_9 
REMARK    7  A    between atoms: O_9  and  P_10 
REMARK    8  A    between atoms: P_10  and  O_11 
REMARK    9  A    between atoms: P_10  and  O_12 
ROOT
HETATM    1  C   UNK N   1      21.451  19.467   3.367  0.00  0.00     0.178 C 
ENDROOT
BRANCH   1   2
HETATM    2  C   UNK N   1      22.330  20.449   2.577  0.00  0.00     0.217 C 
BRANCH   2   3
HETATM    3  C   UNK N   1      23.802  20.318   2.863  0.00  0.00     0.154 C 
HETATM    4  C   UNK N   1      24.260  19.364   3.913  0.00  0.00     0.093 C 
HETATM    5  O   UNK N   1      24.625  20.987   2.258  0.00  0.00    -0.295 OA
ENDBRANCH   2   3
BRANCH   2   6
HETATM    6  O   UNK N   1      21.930  21.767   2.814  0.00  0.00    -0.385 OA
HETATM    7  H   UNK N   1      21.285  22.364   2.403  0.00  0.00     0.210 HD
ENDBRANCH   2   6
ENDBRANCH   1   2
BRANCH   1   8
HETATM    8  O   UNK N   1      20.544  20.150   4.183  0.00  0.00    -0.390 OA
HETATM    9  H   UNK N   1      20.158  20.848   4.735  0.00  0.00     0.210 HD
ENDBRANCH   1   8
BRANCH   1  10
HETATM   10  C   UNK N   1      20.708  18.506   2.440  0.00  0.00     0.215 C 
BRANCH  10  11
HETATM   11  O   UNK N   1      21.055  17.184   2.732  0.00  0.00    -0.294 OA
BRANCH  11  12
HETATM   12  P   UNK N   1      20.179  16.185   1.611  0.00  0.00     0.390 P 
HETATM   13  O   UNK N   1      21.211  15.518   0.663  0.00  0.00    -0.632 OA
BRANCH  12  14
HETATM   14  O   UNK N   1      19.143  17.165   0.621  0.00  0.00    -0.307 OA
HETATM   15  H   UNK N   1      18.404  17.086  -0.001  0.00  0.00     0.222 HD
ENDBRANCH  12  14
BRANCH  12  16
HETATM   16  O   UNK N   1      19.273  14.925   2.391  0.00  0.00    -0.307 OA
HETATM   17  H   UNK N   1      18.304  14.923   2.348  0.00  0.00     0.222 HD
ENDBRANCH  12  16
ENDBRANCH  11  12
ENDBRANCH  10  11
ENDBRANCH   1  10
TORSDOF 9
ENDMDL
MODEL 6
REMARK VINA RESULT:      -4.6      2.951      6.056
REMARK  9 active torsions:
REMARK  status: ('A' for Active; 'I' for Inactive)
REMARK    1  A    between atoms: C_2  and  C_4 
REMARK    2  A    between atoms: C_4  and  O_5 
REMARK    3  A    between atoms: C_4  and  C_6 
REMARK    4  A    between atoms: C_6  and  O_7 
REMARK    5  A    between atoms: C_6  and  C_8 
REMARK    6  A    between atoms: C_8  and  O_9 
REMARK    7  A    between atoms: O_9  and  P_10 
REMARK    8  A    between atoms: P_10  and  O_11 
REMARK    9  A    between atoms: P_10  and  O_12 
ROOT
HETATM    1  C   UNK N   1      36.056  14.508  11.399  0.00  0.00     0.178 C 
ENDROOT
BRANCH   1   2
HETATM    2  C   UNK N   1      34.823  14.983  10.614  0.00  0.00     0.217 C 
BRANCH   2   3
HETATM    3  C   UNK N   1      34.985  16.340   9.983  0.00  0.00     0.154 C 
HETATM    4  C   UNK N   1      34.421  16.586   8.625  0.00  0.00     0.093 C 
HETATM    5  O   UNK N   1      35.577  17.239  10.560  0.00  0.00    -0.295 OA
ENDBRANCH   2   3
BRANCH   2   6
HETATM    6  O   UNK N   1      33.691  14.989  11.434  0.00  0.00    -0.385 OA
HETATM    7  H   UNK N   1      32.762  14.741  11.309  0.00  0.00     0.210 HD
ENDBRANCH   2   6
ENDBRANCH   1   2
BRANCH   1   8
HETATM    8  O   UNK N   1      37.235  14.985  10.819  0.00  0.00    -0.390 OA
HETATM    9  H   UNK N   1      37.840  15.380  10.171  0.00  0.00     0.210 HD
ENDBRANCH   1   8
BRANCH   1  10
HETATM   10  C   UNK N   1      35.983  14.927  12.867  0.00  0.00     0.215 C 
BRANCH  10  11
HETATM   11  O   UNK N   1      35.374  13.925  13.628  0.00  0.00    -0.294 OA
BRANCH  11  12
HETATM   12  P   UNK N   1      36.593  13.311  14.703  0.00  0.00     0.390 P 
HETATM   13  O   UNK N   1      35.876  12.559  15.856  0.00  0.00    -0.632 OA
BRANCH  12  14
HETATM   14  O   UNK N   1      37.470  14.624  15.424  0.00  0.00    -0.307 OA
HETATM   15  H   UNK N   1      38.154  15.277  15.211  0.00  0.00     0.222 HD
ENDBRANCH  12  14
BRANCH  12  16
HETATM   16  O   UNK N   1      37.679  12.197  13.930  0.00  0.00    -0.307 OA
HETATM   17  H   UNK N   1      37.399  11.711  13.139  0.00  0.00     0.222 HD
ENDBRANCH  12  16
ENDBRANCH  11  12
ENDBRANCH  10  11
ENDBRANCH   1  10
TORSDOF 9
ENDMDL
MODEL 7
REMARK VINA RESULT:      -4.6      2.314      3.472
REMARK  9 active torsions:
REMARK  status: ('A' for Active; 'I' for Inactive)
REMARK    1  A    between atoms: C_2  and  C_4 
REMARK    2  A    between atoms: C_4  and  O_5 
REMARK    3  A    between atoms: C_4  and  C_6 
REMARK    4  A    between atoms: C_6  and  O_7 
REMARK    5  A    between atoms: C_6  and  C_8 
REMARK    6  A    between atoms: C_8  and  O_9 
REMARK    7  A    between atoms: O_9  and  P_10 
REMARK    8  A    between atoms: P_10  and  O_11 
REMARK    9  A    between atoms: P_10  and  O_12 
ROOT
HETATM    1  C   UNK N   1      35.785  13.258  13.273  0.00  0.00     0.178 C 
ENDROOT
BRANCH   1   2
HETATM    2  C   UNK N   1      36.521  12.951  14.587  0.00  0.00     0.217 C 
BRANCH   2   3
HETATM    3  C   UNK N   1      35.624  12.447  15.686  0.00  0.00     0.154 C 
HETATM    4  C   UNK N   1      35.327  13.330  16.850  0.00  0.00     0.093 C 
HETATM    5  O   UNK N   1      35.144  11.324  15.645  0.00  0.00    -0.295 OA
ENDBRANCH   2   3
BRANCH   2   6
HETATM    6  O   UNK N   1      37.212  14.080  15.038  0.00  0.00    -0.385 OA
HETATM    7  H   UNK N   1      37.923  14.227  15.680  0.00  0.00     0.210 HD
ENDBRANCH   2   6
ENDBRANCH   1   2
BRANCH   1   8
HETATM    8  O   UNK N   1      34.418  12.993  13.389  0.00  0.00    -0.390 OA
HETATM    9  H   UNK N   1      33.471  13.129  13.551  0.00  0.00     0.210 HD
ENDBRANCH   1   8
BRANCH   1  10
HETATM   10  C   UNK N   1      36.008  14.703  12.828  0.00  0.00     0.215 C 
BRANCH  10  11
HETATM   11  O   UNK N   1      36.322  14.750  11.467  0.00  0.00    -0.294 OA
BRANCH  11  12
HETATM   12  P   UNK N   1      34.973  15.504  10.674  0.00  0.00     0.390 P 
HETATM   13  O   UNK N   1      35.079  15.194   9.157  0.00  0.00    -0.632 OA
BRANCH  12  14
HETATM   14  O   UNK N   1      35.068  17.229  10.845  0.00  0.00    -0.307 OA
HETATM   15  H   UNK N   1      35.567  17.910  11.322  0.00  0.00     0.222 HD
ENDBRANCH  12  14
BRANCH  12  16
HETATM   16  O   UNK N   1      33.439  14.914  11.237  0.00  0.00    -0.307 OA
HETATM   17  H   UNK N   1      33.398  14.307  11.992  0.00  0.00     0.222 HD
ENDBRANCH  12  16
ENDBRANCH  11  12
ENDBRANCH  10  11
ENDBRANCH   1  10
TORSDOF 9
ENDMDL
MODEL 8
REMARK VINA RESULT:      -4.6      2.593      5.712
REMARK  9 active torsions:
REMARK  status: ('A' for Active; 'I' for Inactive)
REMARK    1  A    between atoms: C_2  and  C_4 
REMARK    2  A    between atoms: C_4  and  O_5 
REMARK    3  A    between atoms: C_4  and  C_6 
REMARK    4  A    between atoms: C_6  and  O_7 
REMARK    5  A    between atoms: C_6  and  C_8 
REMARK    6  A    between atoms: C_8  and  O_9 
REMARK    7  A    between atoms: O_9  and  P_10 
REMARK    8  A    between atoms: P_10  and  O_11 
REMARK    9  A    between atoms: P_10  and  O_12 
ROOT
HETATM    1  C   UNK N   1      35.385  16.277  10.248  0.00  0.00     0.178 C 
ENDROOT
BRANCH   1   2
HETATM    2  C   UNK N   1      34.352  16.418   9.119  0.00  0.00     0.217 C 
BRANCH   2   3
HETATM    3  C   UNK N   1      34.463  17.704   8.346  0.00  0.00     0.154 C 
HETATM    4  C   UNK N   1      33.757  17.835   7.039  0.00  0.00     0.093 C 
HETATM    5  O   UNK N   1      35.127  18.639   8.766  0.00  0.00    -0.295 OA
ENDBRANCH   2   3
BRANCH   2   6
HETATM    6  O   UNK N   1      33.054  16.295   9.624  0.00  0.00    -0.385 OA
HETATM    7  H   UNK N   1      32.664  15.839  10.385  0.00  0.00     0.210 HD
ENDBRANCH   2   6
ENDBRANCH   1   2
BRANCH   1   8
HETATM    8  O   UNK N   1      35.064  17.103  11.329  0.00  0.00    -0.390 OA
HETATM    9  H   UNK N   1      35.162  17.750  12.045  0.00  0.00     0.210 HD
ENDBRANCH   1   8
BRANCH   1  10
HETATM   10  C   UNK N   1      35.518  14.827  10.711  0.00  0.00     0.215 C 
BRANCH  10  11
HETATM   11  O   UNK N   1      34.668  14.583  11.794  0.00  0.00    -0.294 OA
BRANCH  11  12
HETATM   12  P   UNK N   1      35.619  13.761  12.993  0.00  0.00     0.390 P 
HETATM   13  O   UNK N   1      36.394  12.619  12.283  0.00  0.00    -0.632 OA
BRANCH  12  14
HETATM   14  O   UNK N   1      34.582  13.014  14.168  0.00  0.00    -0.307 OA
HETATM   15  H   UNK N   1      34.093  12.191  14.323  0.00  0.00     0.222 HD
ENDBRANCH  12  14
BRANCH  12  16
HETATM   16  O   UNK N   1      36.779  14.797  13.766  0.00  0.00    -0.307 OA
HETATM   17  H   UNK N   1      37.577  15.076  13.290  0.00  0.00     0.222 HD
ENDBRANCH  12  16
ENDBRANCH  11  12
ENDBRANCH  10  11
ENDBRANCH   1  10
TORSDOF 9
ENDMDL
MODEL 9
REMARK VINA RESULT:      -4.5      2.553      5.389
REMARK  9 active torsions:
REMARK  status: ('A' for Active; 'I' for Inactive)
REMARK    1  A    between atoms: C_2  and  C_4 
REMARK    2  A    between atoms: C_4  and  O_5 
REMARK    3  A    between atoms: C_4  and  C_6 
REMARK    4  A    between atoms: C_6  and  O_7 
REMARK    5  A    between atoms: C_6  and  C_8 
REMARK    6  A    between atoms: C_8  and  O_9 
REMARK    7  A    between atoms: O_9  and  P_10 
REMARK    8  A    between atoms: P_10  and  O_11 
REMARK    9  A    between atoms: P_10  and  O_12 
ROOT
HETATM    1  C   UNK N   1      34.911  15.505   9.026  0.00  0.00     0.178 C 
ENDROOT
BRANCH   1   2
HETATM    2  C   UNK N   1      34.522  16.907   9.521  0.00  0.00     0.217 C 
BRANCH   2   3
HETATM    3  C   UNK N   1      34.047  17.830   8.431  0.00  0.00     0.154 C 
HETATM    4  C   UNK N   1      32.584  17.980   8.186  0.00  0.00     0.093 C 
HETATM    5  O   UNK N   1      34.839  18.452   7.739  0.00  0.00    -0.295 OA
ENDBRANCH   2   3
BRANCH   2   6
HETATM    6  O   UNK N   1      35.592  17.503  10.195  0.00  0.00    -0.385 OA
HETATM    7  H   UNK N   1      35.914  17.480  11.110  0.00  0.00     0.210 HD
ENDBRANCH   2   6
ENDBRANCH   1   2
BRANCH   1   8
HETATM    8  O   UNK N   1      35.120  15.500   7.644  0.00  0.00    -0.390 OA
HETATM    9  H   UNK N   1      35.436  15.225   6.769  0.00  0.00     0.210 HD
ENDBRANCH   1   8
BRANCH   1  10
HETATM   10  C   UNK N   1      36.147  14.975   9.750  0.00  0.00     0.215 C 
BRANCH  10  11
HETATM   11  O   UNK N   1      35.868  13.746  10.354  0.00  0.00    -0.294 OA
BRANCH  11  12
HETATM   12  P   UNK N   1      36.067  13.979  12.064  0.00  0.00     0.390 P 
HETATM   13  O   UNK N   1      34.721  13.623  12.751  0.00  0.00    -0.632 OA
BRANCH  12  14
HETATM   14  O   UNK N   1      36.382  15.651  12.406  0.00  0.00    -0.307 OA
HETATM   15  H   UNK N   1      37.076  16.321  12.302  0.00  0.00     0.222 HD
ENDBRANCH  12  14
BRANCH  12  16
HETATM   16  O   UNK N   1      37.302  12.967  12.747  0.00  0.00    -0.307 OA
HETATM   17  H   UNK N   1      38.234  13.117  12.524  0.00  0.00     0.222 HD
ENDBRANCH  12  16
ENDBRANCH  11  12
ENDBRANCH  10  11
ENDBRANCH   1  10
TORSDOF 9
ENDMDL
