MODEL 1
REMARK VINA RESULT:      -4.3      0.000      0.000
REMARK  12 active torsions:
REMARK  status: ('A' for Active; 'I' for Inactive)
REMARK    1  A    between atoms: O_1  and  C_2 
REMARK    2  A    between atoms: C_2  and  C_3 
REMARK    3  A    between atoms: C_3  and  C_4 
REMARK    4  A    between atoms: C_4  and  C_5 
REMARK    5  A    between atoms: C_5  and  C_6 
REMARK    6  A    between atoms: C_6  and  C_7 
REMARK    7  A    between atoms: C_7  and  C_8 
REMARK    8  A    between atoms: C_8  and  C_9 
REMARK    9  A    between atoms: C_9  and  C_10 
REMARK   10  A    between atoms: C_10  and  C_11 
REMARK   11  A    between atoms: C_11  and  C_12 
REMARK   12  A    between atoms: C_12  and  C_13 
ROOT
HETATM    1  C   UNK N   1      30.512  17.301   8.892  0.00  0.00     0.000 C 
ENDROOT
BRANCH   1   2
HETATM    2  C   UNK N   1      31.728  18.025   8.374  0.00  0.00     0.000 C 
BRANCH   2   3
HETATM    3  C   UNK N   1      32.195  17.339   7.115  0.00  0.00     0.000 C 
BRANCH   3   4
HETATM    4  C   UNK N   1      33.699  17.426   7.038  0.00  0.00     0.002 C 
BRANCH   4   5
HETATM    5  C   UNK N   1      34.218  18.064   8.304  0.00  0.00     0.026 C 
BRANCH   5   6
HETATM    6  C   UNK N   1      34.873  17.004   9.160  0.00  0.00     0.164 C 
BRANCH   6   7
HETATM    7  O   UNK N   1      35.546  17.617  10.214  0.00  0.00    -0.401 OA
HETATM    8  H   UNK N   1      36.264  17.148  10.668  0.00  0.00     0.209 HD
ENDBRANCH   6   7
ENDBRANCH   5   6
ENDBRANCH   4   5
ENDBRANCH   3   4
ENDBRANCH   2   3
ENDBRANCH   1   2
BRANCH   1   9
HETATM    9  C   UNK N   1      29.604  18.290   9.576  0.00  0.00     0.000 C 
BRANCH   9  10
HETATM   10  C   UNK N   1      28.183  17.987   9.178  0.00  0.00     0.000 C 
BRANCH  10  11
HETATM   11  C   UNK N   1      28.146  17.637   7.713  0.00  0.00     0.000 C 
BRANCH  11  12
HETATM   12  C   UNK N   1      27.854  18.889   6.922  0.00  0.00     0.001 C 
BRANCH  12  13
HETATM   13  C   UNK N   1      28.344  18.699   5.508  0.00  0.00     0.011 C 
BRANCH  13  14
HETATM   14  C   UNK N   1      27.903  19.874   4.665  0.00  0.00     0.085 C 
HETATM   15 Br   UNK N   1      27.154  21.226   5.822  0.00  0.00    -0.097 Br
ENDBRANCH  13  14
ENDBRANCH  12  13
ENDBRANCH  11  12
ENDBRANCH  10  11
ENDBRANCH   9  10
ENDBRANCH   1   9
TORSDOF 12
ENDMDL
MODEL 2
REMARK VINA RESULT:      -4.2      1.498      2.503
REMARK  12 active torsions:
REMARK  status: ('A' for Active; 'I' for Inactive)
REMARK    1  A    between atoms: O_1  and  C_2 
REMARK    2  A    between atoms: C_2  and  C_3 
REMARK    3  A    between atoms: C_3  and  C_4 
REMARK    4  A    between atoms: C_4  and  C_5 
REMARK    5  A    between atoms: C_5  and  C_6 
REMARK    6  A    between atoms: C_6  and  C_7 
REMARK    7  A    between atoms: C_7  and  C_8 
REMARK    8  A    between atoms: C_8  and  C_9 
REMARK    9  A    between atoms: C_9  and  C_10 
REMARK   10  A    between atoms: C_10  and  C_11 
REMARK   11  A    between atoms: C_11  and  C_12 
REMARK   12  A    between atoms: C_12  and  C_13 
ROOT
HETATM    1  C   UNK N   1      28.233  18.382   8.280  0.00  0.00     0.000 C 
ENDROOT
BRANCH   1   2
HETATM    2  C   UNK N   1      29.129  18.306   9.490  0.00  0.00     0.000 C 
BRANCH   2   3
HETATM    3  C   UNK N   1      30.503  18.793   9.101  0.00  0.00     0.000 C 
BRANCH   3   4
HETATM    4  C   UNK N   1      31.271  17.651   8.484  0.00  0.00     0.002 C 
BRANCH   4   5
HETATM    5  C   UNK N   1      32.684  18.105   8.207  0.00  0.00     0.026 C 
BRANCH   5   6
HETATM    6  C   UNK N   1      33.120  17.573   6.861  0.00  0.00     0.164 C 
BRANCH   6   7
HETATM    7  O   UNK N   1      34.468  17.865   6.666  0.00  0.00    -0.401 OA
HETATM    8  H   UNK N   1      34.844  17.841   5.773  0.00  0.00     0.209 HD
ENDBRANCH   6   7
ENDBRANCH   5   6
ENDBRANCH   4   5
ENDBRANCH   3   4
ENDBRANCH   2   3
ENDBRANCH   1   2
BRANCH   1   9
HETATM    9  C   UNK N   1      27.689  17.009   7.982  0.00  0.00     0.000 C 
BRANCH   9  10
HETATM   10  C   UNK N   1      27.541  16.867   6.490  0.00  0.00     0.000 C 
BRANCH  10  11
HETATM   11  C   UNK N   1      28.499  17.811   5.809  0.00  0.00     0.000 C 
BRANCH  11  12
HETATM   12  C   UNK N   1      27.818  18.406   4.601  0.00  0.00     0.001 C 
BRANCH  12  13
HETATM   13  C   UNK N   1      28.076  19.893   4.579  0.00  0.00     0.011 C 
BRANCH  13  14
HETATM   14  C   UNK N   1      26.763  20.628   4.725  0.00  0.00     0.085 C 
HETATM   15 Br   UNK N   1      26.691  21.434   6.477  0.00  0.00    -0.097 Br
ENDBRANCH  13  14
ENDBRANCH  12  13
ENDBRANCH  11  12
ENDBRANCH  10  11
ENDBRANCH   9  10
ENDBRANCH   1   9
TORSDOF 12
ENDMDL
MODEL 3
REMARK VINA RESULT:      -4.2     12.633     15.638
REMARK  12 active torsions:
REMARK  status: ('A' for Active; 'I' for Inactive)
REMARK    1  A    between atoms: O_1  and  C_2 
REMARK    2  A    between atoms: C_2  and  C_3 
REMARK    3  A    between atoms: C_3  and  C_4 
REMARK    4  A    between atoms: C_4  and  C_5 
REMARK    5  A    between atoms: C_5  and  C_6 
REMARK    6  A    between atoms: C_6  and  C_7 
REMARK    7  A    between atoms: C_7  and  C_8 
REMARK    8  A    between atoms: C_8  and  C_9 
REMARK    9  A    between atoms: C_9  and  C_10 
REMARK   10  A    between atoms: C_10  and  C_11 
REMARK   11  A    between atoms: C_11  and  C_12 
REMARK   12  A    between atoms: C_12  and  C_13 
ROOT
HETATM    1  C   UNK N   1      26.751  24.818  -5.934  0.00  0.00     0.000 C 
ENDROOT
BRANCH   1   2
HETATM    2  C   UNK N   1      25.725  25.516  -6.791  0.00  0.00     0.000 C 
BRANCH   2   3
HETATM    3  C   UNK N   1      25.291  26.778  -6.088  0.00  0.00     0.000 C 
BRANCH   3   4
HETATM    4  C   UNK N   1      26.398  27.799  -6.186  0.00  0.00     0.002 C 
BRANCH   4   5
HETATM    5  C   UNK N   1      26.478  28.559  -4.884  0.00  0.00     0.026 C 
BRANCH   5   6
HETATM    6  C   UNK N   1      25.542  27.925  -3.881  0.00  0.00     0.164 C 
BRANCH   6   7
HETATM    7  O   UNK N   1      26.147  27.919  -2.628  0.00  0.00    -0.401 OA
HETATM    8  H   UNK N   1      27.097  28.094  -2.548  0.00  0.00     0.209 HD
ENDBRANCH   6   7
ENDBRANCH   5   6
ENDBRANCH   4   5
ENDBRANCH   3   4
ENDBRANCH   2   3
ENDBRANCH   1   2
BRANCH   1   9
HETATM    9  C   UNK N   1      26.076  24.275  -4.701  0.00  0.00     0.000 C 
BRANCH   9  10
HETATM   10  C   UNK N   1      27.063  24.309  -3.564  0.00  0.00     0.000 C 
BRANCH  10  11
HETATM   11  C   UNK N   1      28.191  25.244  -3.918  0.00  0.00     0.000 C 
BRANCH  11  12
HETATM   12  C   UNK N   1      29.496  24.611  -3.502  0.00  0.00     0.001 C 
BRANCH  12  13
HETATM   13  C   UNK N   1      29.202  23.344  -2.737  0.00  0.00     0.011 C 
BRANCH  13  14
HETATM   14  C   UNK N   1      30.065  22.225  -3.274  0.00  0.00     0.085 C 
HETATM   15 Br   UNK N   1      29.742  22.043  -5.169  0.00  0.00    -0.097 Br
ENDBRANCH  13  14
ENDBRANCH  12  13
ENDBRANCH  11  12
ENDBRANCH  10  11
ENDBRANCH   9  10
ENDBRANCH   1   9
TORSDOF 12
ENDMDL
MODEL 4
REMARK VINA RESULT:      -4.2     12.067     14.872
REMARK  12 active torsions:
REMARK  status: ('A' for Active; 'I' for Inactive)
REMARK    1  A    between atoms: O_1  and  C_2 
REMARK    2  A    between atoms: C_2  and  C_3 
REMARK    3  A    between atoms: C_3  and  C_4 
REMARK    4  A    between atoms: C_4  and  C_5 
REMARK    5  A    between atoms: C_5  and  C_6 
REMARK    6  A    between atoms: C_6  and  C_7 
REMARK    7  A    between atoms: C_7  and  C_8 
REMARK    8  A    between atoms: C_8  and  C_9 
REMARK    9  A    between atoms: C_9  and  C_10 
REMARK   10  A    between atoms: C_10  and  C_11 
REMARK   11  A    between atoms: C_11  and  C_12 
REMARK   12  A    between atoms: C_12  and  C_13 
ROOT
HETATM    1  C   UNK N   1      27.884  24.887  -6.063  0.00  0.00     0.000 C 
ENDROOT
BRANCH   1   2
HETATM    2  C   UNK N   1      27.205  24.116  -4.961  0.00  0.00     0.000 C 
BRANCH   2   3
HETATM    3  C   UNK N   1      27.842  24.494  -3.647  0.00  0.00     0.000 C 
BRANCH   3   4
HETATM    4  C   UNK N   1      29.336  24.318  -3.758  0.00  0.00     0.002 C 
BRANCH   4   5
HETATM    5  C   UNK N   1      29.667  22.851  -3.624  0.00  0.00     0.026 C 
BRANCH   5   6
HETATM    6  C   UNK N   1      30.829  22.690  -2.671  0.00  0.00     0.164 C 
BRANCH   6   7
HETATM    7  O   UNK N   1      30.428  23.059  -1.390  0.00  0.00    -0.401 OA
HETATM    8  H   UNK N   1      29.487  23.193  -1.197  0.00  0.00     0.209 HD
ENDBRANCH   6   7
ENDBRANCH   5   6
ENDBRANCH   4   5
ENDBRANCH   3   4
ENDBRANCH   2   3
ENDBRANCH   1   2
BRANCH   1   9
HETATM    9  C   UNK N   1      27.023  26.063  -6.446  0.00  0.00     0.000 C 
BRANCH   9  10
HETATM   10  C   UNK N   1      25.578  25.669  -6.282  0.00  0.00     0.000 C 
BRANCH  10  11
HETATM   11  C   UNK N   1      24.827  26.808  -5.642  0.00  0.00     0.000 C 
BRANCH  11  12
HETATM   12  C   UNK N   1      25.821  27.846  -5.180  0.00  0.00     0.001 C 
BRANCH  12  13
HETATM   13  C   UNK N   1      25.742  27.962  -3.677  0.00  0.00     0.011 C 
BRANCH  13  14
HETATM   14  C   UNK N   1      26.887  28.816  -3.183  0.00  0.00     0.085 C 
HETATM   15 Br   UNK N   1      27.099  30.324  -4.370  0.00  0.00    -0.097 Br
ENDBRANCH  13  14
ENDBRANCH  12  13
ENDBRANCH  11  12
ENDBRANCH  10  11
ENDBRANCH   9  10
ENDBRANCH   1   9
TORSDOF 12
ENDMDL
MODEL 5
REMARK VINA RESULT:      -4.2     12.061     13.913
REMARK  12 active torsions:
REMARK  status: ('A' for Active; 'I' for Inactive)
REMARK    1  A    between atoms: O_1  and  C_2 
REMARK    2  A    between atoms: C_2  and  C_3 
REMARK    3  A    between atoms: C_3  and  C_4 
REMARK    4  A    between atoms: C_4  and  C_5 
REMARK    5  A    between atoms: C_5  and  C_6 
REMARK    6  A    between atoms: C_6  and  C_7 
REMARK    7  A    between atoms: C_7  and  C_8 
REMARK    8  A    between atoms: C_8  and  C_9 
REMARK    9  A    between atoms: C_9  and  C_10 
REMARK   10  A    between atoms: C_10  and  C_11 
REMARK   11  A    between atoms: C_11  and  C_12 
REMARK   12  A    between atoms: C_12  and  C_13 
ROOT
HETATM    1  C   UNK N   1      28.206  24.392  -3.683  0.00  0.00     0.000 C 
ENDROOT
BRANCH   1   2
HETATM    2  C   UNK N   1      29.685  24.375  -3.395  0.00  0.00     0.000 C 
BRANCH   2   3
HETATM    3  C   UNK N   1      30.304  23.210  -4.127  0.00  0.00     0.000 C 
BRANCH   3   4
HETATM    4  C   UNK N   1      30.117  21.959  -3.305  0.00  0.00     0.002 C 
BRANCH   4   5
HETATM    5  C   UNK N   1      31.099  20.914  -3.776  0.00  0.00     0.026 C 
BRANCH   5   6
HETATM    6  C   UNK N   1      32.498  21.339  -3.393  0.00  0.00     0.164 C 
BRANCH   6   7
HETATM    7  O   UNK N   1      32.631  21.286  -2.008  0.00  0.00    -0.401 OA
HETATM    8  H   UNK N   1      33.400  20.848  -1.612  0.00  0.00     0.209 HD
ENDBRANCH   6   7
ENDBRANCH   5   6
ENDBRANCH   4   5
ENDBRANCH   3   4
ENDBRANCH   2   3
ENDBRANCH   1   2
BRANCH   1   9
HETATM    9  C   UNK N   1      27.995  24.459  -5.174  0.00  0.00     0.000 C 
BRANCH   9  10
HETATM   10  C   UNK N   1      26.644  23.875  -5.492  0.00  0.00     0.000 C 
BRANCH  10  11
HETATM   11  C   UNK N   1      25.575  24.849  -5.066  0.00  0.00     0.000 C 
BRANCH  11  12
HETATM   12  C   UNK N   1      25.409  25.892  -6.143  0.00  0.00     0.001 C 
BRANCH  12  13
HETATM   13  C   UNK N   1      24.752  27.111  -5.546  0.00  0.00     0.011 C 
BRANCH  13  14
HETATM   14  C   UNK N   1      25.653  27.691  -4.479  0.00  0.00     0.085 C 
HETATM   15 Br   UNK N   1      27.176  28.517  -5.331  0.00  0.00    -0.097 Br
ENDBRANCH  13  14
ENDBRANCH  12  13
ENDBRANCH  11  12
ENDBRANCH  10  11
ENDBRANCH   9  10
ENDBRANCH   1   9
TORSDOF 12
ENDMDL
MODEL 6
REMARK VINA RESULT:      -4.2      2.315      3.138
REMARK  12 active torsions:
REMARK  status: ('A' for Active; 'I' for Inactive)
REMARK    1  A    between atoms: O_1  and  C_2 
REMARK    2  A    between atoms: C_2  and  C_3 
REMARK    3  A    between atoms: C_3  and  C_4 
REMARK    4  A    between atoms: C_4  and  C_5 
REMARK    5  A    between atoms: C_5  and  C_6 
REMARK    6  A    between atoms: C_6  and  C_7 
REMARK    7  A    between atoms: C_7  and  C_8 
REMARK    8  A    between atoms: C_8  and  C_9 
REMARK    9  A    between atoms: C_9  and  C_10 
REMARK   10  A    between atoms: C_10  and  C_11 
REMARK   11  A    between atoms: C_11  and  C_12 
REMARK   12  A    between atoms: C_12  and  C_13 
ROOT
HETATM    1  C   UNK N   1      28.289  18.021   8.849  0.00  0.00     0.000 C 
ENDROOT
BRANCH   1   2
HETATM    2  C   UNK N   1      29.386  18.403   9.809  0.00  0.00     0.000 C 
BRANCH   2   3
HETATM    3  C   UNK N   1      30.604  18.800   9.013  0.00  0.00     0.000 C 
BRANCH   3   4
HETATM    4  C   UNK N   1      31.359  17.555   8.619  0.00  0.00     0.002 C 
BRANCH   4   5
HETATM    5  C   UNK N   1      32.741  17.948   8.155  0.00  0.00     0.026 C 
BRANCH   5   6
HETATM    6  C   UNK N   1      33.732  16.903   8.612  0.00  0.00     0.164 C 
BRANCH   6   7
HETATM    7  O   UNK N   1      34.242  17.267   9.856  0.00  0.00    -0.401 OA
HETATM    8  H   UNK N   1      34.513  16.583  10.487  0.00  0.00     0.209 HD
ENDBRANCH   6   7
ENDBRANCH   5   6
ENDBRANCH   4   5
ENDBRANCH   3   4
ENDBRANCH   2   3
ENDBRANCH   1   2
BRANCH   1   9
HETATM    9  C   UNK N   1      28.190  19.069   7.771  0.00  0.00     0.000 C 
BRANCH   9  10
HETATM   10  C   UNK N   1      28.348  18.394   6.434  0.00  0.00     0.000 C 
BRANCH  10  11
HETATM   11  C   UNK N   1      27.981  16.939   6.571  0.00  0.00     0.000 C 
BRANCH  11  12
HETATM   12  C   UNK N   1      29.087  16.101   5.978  0.00  0.00     0.001 C 
BRANCH  12  13
HETATM   13  C   UNK N   1      30.044  17.006   5.242  0.00  0.00     0.011 C 
BRANCH  13  14
HETATM   14  C   UNK N   1      31.337  16.264   4.991  0.00  0.00     0.085 C 
HETATM   15 Br   UNK N   1      32.654  17.511   4.328  0.00  0.00    -0.097 Br
ENDBRANCH  13  14
ENDBRANCH  12  13
ENDBRANCH  11  12
ENDBRANCH  10  11
ENDBRANCH   9  10
ENDBRANCH   1   9
TORSDOF 12
ENDMDL
MODEL 7
REMARK VINA RESULT:      -4.1      9.772     11.658
REMARK  12 active torsions:
REMARK  status: ('A' for Active; 'I' for Inactive)
REMARK    1  A    between atoms: O_1  and  C_2 
REMARK    2  A    between atoms: C_2  and  C_3 
REMARK    3  A    between atoms: C_3  and  C_4 
REMARK    4  A    between atoms: C_4  and  C_5 
REMARK    5  A    between atoms: C_5  and  C_6 
REMARK    6  A    between atoms: C_6  and  C_7 
REMARK    7  A    between atoms: C_7  and  C_8 
REMARK    8  A    between atoms: C_8  and  C_9 
REMARK    9  A    between atoms: C_9  and  C_10 
REMARK   10  A    between atoms: C_10  and  C_11 
REMARK   11  A    between atoms: C_11  and  C_12 
REMARK   12  A    between atoms: C_12  and  C_13 
ROOT
HETATM    1  C   UNK N   1      35.093  11.601  17.044  0.00  0.00     0.000 C 
ENDROOT
BRANCH   1   2
HETATM    2  C   UNK N   1      35.344  11.857  18.508  0.00  0.00     0.000 C 
BRANCH   2   3
HETATM    3  C   UNK N   1      35.272  13.343  18.755  0.00  0.00     0.000 C 
BRANCH   3   4
HETATM    4  C   UNK N   1      35.407  14.066  17.438  0.00  0.00     0.002 C 
BRANCH   4   5
HETATM    5  C   UNK N   1      36.335  15.243  17.619  0.00  0.00     0.026 C 
BRANCH   5   6
HETATM    6  C   UNK N   1      37.233  15.356  16.408  0.00  0.00     0.164 C 
BRANCH   6   7
HETATM    7  O   UNK N   1      37.493  16.700  16.153  0.00  0.00    -0.401 OA
HETATM    8  H   UNK N   1      38.215  16.948  15.555  0.00  0.00     0.209 HD
ENDBRANCH   6   7
ENDBRANCH   5   6
ENDBRANCH   4   5
ENDBRANCH   3   4
ENDBRANCH   2   3
ENDBRANCH   1   2
BRANCH   1   9
HETATM    9  C   UNK N   1      35.823  10.349  16.631  0.00  0.00     0.000 C 
BRANCH   9  10
HETATM   10  C   UNK N   1      35.036   9.676  15.537  0.00  0.00     0.000 C 
BRANCH  10  11
HETATM   11  C   UNK N   1      34.014  10.645  15.000  0.00  0.00     0.000 C 
BRANCH  11  12
HETATM   12  C   UNK N   1      33.792  10.355  13.536  0.00  0.00     0.001 C 
BRANCH  12  13
HETATM   13  C   UNK N   1      34.717  11.224  12.720  0.00  0.00     0.011 C 
BRANCH  13  14
HETATM   14  C   UNK N   1      34.852  12.573  13.389  0.00  0.00     0.085 C 
HETATM   15 Br   UNK N   1      36.721  12.917  13.730  0.00  0.00    -0.097 Br
ENDBRANCH  13  14
ENDBRANCH  12  13
ENDBRANCH  11  12
ENDBRANCH  10  11
ENDBRANCH   9  10
ENDBRANCH   1   9
TORSDOF 12
ENDMDL
MODEL 8
REMARK VINA RESULT:      -4.1     11.181     13.530
REMARK  12 active torsions:
REMARK  status: ('A' for Active; 'I' for Inactive)
REMARK    1  A    between atoms: O_1  and  C_2 
REMARK    2  A    between atoms: C_2  and  C_3 
REMARK    3  A    between atoms: C_3  and  C_4 
REMARK    4  A    between atoms: C_4  and  C_5 
REMARK    5  A    between atoms: C_5  and  C_6 
REMARK    6  A    between atoms: C_6  and  C_7 
REMARK    7  A    between atoms: C_7  and  C_8 
REMARK    8  A    between atoms: C_8  and  C_9 
REMARK    9  A    between atoms: C_9  and  C_10 
REMARK   10  A    between atoms: C_10  and  C_11 
REMARK   11  A    between atoms: C_11  and  C_12 
REMARK   12  A    between atoms: C_12  and  C_13 
ROOT
HETATM    1  C   UNK N   1      35.149  13.095  18.338  0.00  0.00     0.000 C 
ENDROOT
BRANCH   1   2
HETATM    2  C   UNK N   1      35.132  13.475  16.879  0.00  0.00     0.000 C 
BRANCH   2   3
HETATM    3  C   UNK N   1      35.321  12.225  16.055  0.00  0.00     0.000 C 
BRANCH   3   4
HETATM    4  C   UNK N   1      36.267  12.525  14.919  0.00  0.00     0.002 C 
BRANCH   4   5
HETATM    5  C   UNK N   1      35.491  13.159  13.790  0.00  0.00     0.026 C 
BRANCH   5   6
HETATM    6  C   UNK N   1      36.257  14.355  13.272  0.00  0.00     0.164 C 
BRANCH   6   7
HETATM    7  O   UNK N   1      37.095  13.951  12.237  0.00  0.00    -0.401 OA
HETATM    8  H   UNK N   1      37.921  14.429  12.068  0.00  0.00     0.209 HD
ENDBRANCH   6   7
ENDBRANCH   5   6
ENDBRANCH   4   5
ENDBRANCH   3   4
ENDBRANCH   2   3
ENDBRANCH   1   2
BRANCH   1   9
HETATM    9  C   UNK N   1      35.476  11.629  18.461  0.00  0.00     0.000 C 
BRANCH   9  10
HETATM   10  C   UNK N   1      35.570  11.283  19.924  0.00  0.00     0.000 C 
BRANCH  10  11
HETATM   11  C   UNK N   1      34.551  10.219  20.244  0.00  0.00     0.000 C 
BRANCH  11  12
HETATM   12  C   UNK N   1      34.279   9.416  18.996  0.00  0.00     0.001 C 
BRANCH  12  13
HETATM   13  C   UNK N   1      33.360   8.271  19.343  0.00  0.00     0.011 C 
BRANCH  13  14
HETATM   14  C   UNK N   1      32.426   8.699  20.452  0.00  0.00     0.085 C 
HETATM   15 Br   UNK N   1      30.707   7.864  20.179  0.00  0.00    -0.097 Br
ENDBRANCH  13  14
ENDBRANCH  12  13
ENDBRANCH  11  12
ENDBRANCH  10  11
ENDBRANCH   9  10
ENDBRANCH   1   9
TORSDOF 12
ENDMDL
MODEL 9
REMARK VINA RESULT:      -4.1     12.073     14.723
REMARK  12 active torsions:
REMARK  status: ('A' for Active; 'I' for Inactive)
REMARK    1  A    between atoms: O_1  and  C_2 
REMARK    2  A    between atoms: C_2  and  C_3 
REMARK    3  A    between atoms: C_3  and  C_4 
REMARK    4  A    between atoms: C_4  and  C_5 
REMARK    5  A    between atoms: C_5  and  C_6 
REMARK    6  A    between atoms: C_6  and  C_7 
REMARK    7  A    between atoms: C_7  and  C_8 
REMARK    8  A    between atoms: C_8  and  C_9 
REMARK    9  A    between atoms: C_9  and  C_10 
REMARK   10  A    between atoms: C_10  and  C_11 
REMARK   11  A    between atoms: C_11  and  C_12 
REMARK   12  A    between atoms: C_12  and  C_13 
ROOT
HETATM    1  C   UNK N   1      28.027  27.569  -3.767  0.00  0.00     0.000 C 
ENDROOT
BRANCH   1   2
HETATM    2  C   UNK N   1      28.848  26.610  -4.591  0.00  0.00     0.000 C 
BRANCH   2   3
HETATM    3  C   UNK N   1      28.748  25.238  -3.973  0.00  0.00     0.000 C 
BRANCH   3   4
HETATM    4  C   UNK N   1      30.126  24.783  -3.562  0.00  0.00     0.002 C 
BRANCH   4   5
HETATM    5  C   UNK N   1      30.253  23.303  -3.831  0.00  0.00     0.026 C 
BRANCH   5   6
HETATM    6  C   UNK N   1      31.022  22.658  -2.700  0.00  0.00     0.164 C 
BRANCH   6   7
HETATM    7  O   UNK N   1      30.437  23.011  -1.487  0.00  0.00    -0.401 OA
HETATM    8  H   UNK N   1      29.493  23.228  -1.450  0.00  0.00     0.209 HD
ENDBRANCH   6   7
ENDBRANCH   5   6
ENDBRANCH   4   5
ENDBRANCH   3   4
ENDBRANCH   2   3
ENDBRANCH   1   2
BRANCH   1   9
HETATM    9  C   UNK N   1      26.943  28.159  -4.631  0.00  0.00     0.000 C 
BRANCH   9  10
HETATM   10  C   UNK N   1      25.648  27.457  -4.318  0.00  0.00     0.000 C 
BRANCH  10  11
HETATM   11  C   UNK N   1      24.908  27.194  -5.605  0.00  0.00     0.000 C 
BRANCH  11  12
HETATM   12  C   UNK N   1      25.483  25.959  -6.252  0.00  0.00     0.001 C 
BRANCH  12  13
HETATM   13  C   UNK N   1      25.354  24.800  -5.294  0.00  0.00     0.011 C 
BRANCH  13  14
HETATM   14  C   UNK N   1      26.003  23.577  -5.902  0.00  0.00     0.085 C 
HETATM   15 Br   UNK N   1      27.167  24.135  -7.338  0.00  0.00    -0.097 Br
ENDBRANCH  13  14
ENDBRANCH  12  13
ENDBRANCH  11  12
ENDBRANCH  10  11
ENDBRANCH   9  10
ENDBRANCH   1   9
TORSDOF 12
ENDMDL
