REMARK  15 active torsions:
REMARK  status: ('A' for Active; 'I' for Inactive)
REMARK    1  A    between atoms: C_5  and  C_1 
REMARK    2  A    between atoms: O_29  and  C_1 
REMARK    3  A    between atoms: P_32  and  C_4 
REMARK    4  A    between atoms: P_33  and  C_4 
REMARK    5  A    between atoms: C_7  and  O_20 
REMARK    6  A    between atoms: C_8  and  O_21 
REMARK    7  A    between atoms: N_12  and  C_9 
REMARK    8  A    between atoms: C_11  and  N_19 
REMARK    9  A    between atoms: P_32  and  O_22 
REMARK   10  A    between atoms: P_33  and  O_24 
REMARK   11  A    between atoms: P_34  and  O_26 
REMARK   12  A    between atoms: P_34  and  O_27 
REMARK   13  A    between atoms: P_32  and  O_29 
REMARK   14  A    between atoms: P_33  and  O_31 
REMARK   15  A    between atoms: P_34  and  O_31 
ROOT
HETATM    1  C   UNK N   1       1.094  -2.238   0.714  0.00  0.00     0.179 C 
HETATM    2  C   UNK N   1       2.152  -2.455  -0.351  0.00  0.00     0.182 C 
HETATM    3  C   UNK N   1       2.862  -1.106  -0.344  0.00  0.00     0.198 C 
HETATM    4  C   UNK N   1       1.910  -0.232   0.493  0.00  0.00     0.262 C 
HETATM    5  O   UNK N   1       0.665  -0.900   0.538  0.00  0.00    -0.353 OA
ENDROOT
BRANCH   1   6
HETATM    6  C   UNK N   1      -0.029  -3.262   0.655  0.00  0.00     0.213 C 
BRANCH   6   7
HETATM    7  O   UNK N   1      -0.938  -2.992  -0.370  0.00  0.00    -0.316 OA
BRANCH   7   8
HETATM    8  P   UNK N   1      -2.440  -3.289   0.427  0.00  0.00     0.249 P 
HETATM    9  O   UNK N   1      -3.568  -3.593  -0.594  0.00  0.00    -0.653 OA
BRANCH   8  10
HETATM   10  C   UNK N   1      -2.863  -1.596  -0.316  0.00  0.00     0.250 C 
BRANCH  10  11
HETATM   11  P   UNK N   1      -4.663  -1.035  -0.009  0.00  0.00     0.258 P 
HETATM   12  O   UNK N   1      -4.758   0.505  -0.166  0.00  0.00    -0.653 OA
BRANCH  11  13
HETATM   13  O   UNK N   1      -5.192  -1.320   1.625  0.00  0.00    -0.328 OA
HETATM   14  H   UNK N   1      -5.477  -1.144   2.536  0.00  0.00     0.220 HD
ENDBRANCH  11  13
BRANCH  11  15
HETATM   15  O   UNK N   1      -5.868  -1.661  -1.117  0.00  0.00    -0.218 OA
BRANCH  15  16
HETATM   16  P   UNK N   1      -7.418  -1.658  -0.305  0.00  0.00     0.398 P 
HETATM   17  O   UNK N   1      -7.507  -2.954   0.545  0.00  0.00    -0.631 OA
BRANCH  16  18
HETATM   18  O   UNK N   1      -8.723  -1.729  -1.446  0.00  0.00    -0.307 OA
HETATM   19  H   UNK N   1      -9.122  -1.117  -2.084  0.00  0.00     0.222 HD
ENDBRANCH  16  18
BRANCH  16  20
HETATM   20  O   UNK N   1      -7.642  -0.310   0.771  0.00  0.00    -0.307 OA
HETATM   21  H   UNK N   1      -7.053   0.174   1.370  0.00  0.00     0.222 HD
ENDBRANCH  16  20
ENDBRANCH  15  16
ENDBRANCH  11  15
ENDBRANCH  10  11
ENDBRANCH   8  10
BRANCH   8  22
HETATM   22  O   UNK N   1      -2.713  -2.172   1.727  0.00  0.00    -0.329 OA
HETATM   23  H   UNK N   1      -2.249  -1.728   2.454  0.00  0.00     0.220 HD
ENDBRANCH   8  22
ENDBRANCH   7   8
ENDBRANCH   6   7
ENDBRANCH   1   6
BRANCH   2  24
HETATM   24  O   UNK N   1       1.519  -2.650  -1.586  0.00  0.00    -0.390 OA
HETATM   25  H   UNK N   1       1.183  -2.339  -2.441  0.00  0.00     0.210 HD
ENDBRANCH   2  24
BRANCH   3  26
HETATM   26  O   UNK N   1       3.025  -0.627  -1.650  0.00  0.00    -0.388 OA
HETATM   27  H   UNK N   1       3.368  -0.559  -2.554  0.00  0.00     0.210 HD
ENDBRANCH   3  26
BRANCH   4  28
HETATM   28  N   UNK N   1       1.838   1.163   0.056  0.00  0.00    -0.297 N 
HETATM   29  C   UNK N   1       0.748   1.909  -0.266  0.00  0.00     0.188 A 
HETATM   30  N   UNK N   1       1.097   3.202  -0.537  0.00  0.00    -0.346 N 
HETATM   31  C   UNK N   1       2.436   3.228  -0.373  0.00  0.00     0.122 A 
ATOM     32  HN  UNK N   1       0.484   3.973  -0.802  1.00  0.00     0.167 HD
HETATM   33  C   UNK N   1       3.337   4.277  -0.486  0.00  0.00     0.131 A 
HETATM   34  C   UNK N   1       2.872   2.005  -0.028  0.00  0.00     0.142 A 
HETATM   35  N   UNK N   1       4.659   4.014  -0.257  0.00  0.00    -0.337 N 
HETATM   36  C   UNK N   1       5.081   2.751   0.081  0.00  0.00     0.183 A 
ATOM     37  HN  UNK N   1       5.343   4.767  -0.338  1.00  0.00     0.168 HD
HETATM   38  N   UNK N   1       4.179   1.732   0.209  0.00  0.00    -0.336 N 
ATOM     39  HN  UNK N   1       4.480   0.795   0.474  1.00  0.00     0.168 HD
BRANCH  33  40
HETATM   40  N   UNK N   1       2.912   5.581  -0.808  0.00  0.00    -0.383 N 
HETATM   41  H   UNK N   1       3.553   6.294  -1.032  0.00  0.00     0.157 HD
HETATM   42  H   UNK N   1       1.949   5.785  -0.808  0.00  0.00     0.157 HD
ENDBRANCH  33  40
ENDBRANCH   4  28
TORSDOF 15
