MODEL 1
REMARK VINA RESULT:      -5.4      0.000      0.000
REMARK  12 active torsions:
REMARK  status: ('A' for Active; 'I' for Inactive)
REMARK    1  A    between atoms: O_1  and  C_2 
REMARK    2  A    between atoms: C_2  and  C_3 
REMARK    3  A    between atoms: C_3  and  O_4 
REMARK    4  A    between atoms: C_3  and  C_5 
REMARK    5  A    between atoms: C_5  and  O_6 
REMARK    6  A    between atoms: C_5  and  C_7 
REMARK    7  A    between atoms: C_7  and  O_8 
REMARK    8  A    between atoms: C_7  and  C_9 
REMARK    9  A    between atoms: C_9  and  O_10 
REMARK   10  A    between atoms: O_10  and  P_11 
REMARK   11  A    between atoms: P_11  and  O_12 
REMARK   12  A    between atoms: P_11  and  O_13 
ROOT
HETATM    1  C   UNK N   1      35.782  15.592  10.557  0.00  0.00     0.173 C 
ENDROOT
BRANCH   1   2
HETATM    2  C   UNK N   1      34.941  15.018  11.711  0.00  0.00     0.179 C 
BRANCH   2   3
HETATM    3  C   UNK N   1      35.462  13.660  12.218  0.00  0.00     0.173 C 
BRANCH   3   4
HETATM    4  C   UNK N   1      35.966  13.745  13.652  0.00  0.00     0.198 C 
BRANCH   4   5
HETATM    5  O   UNK N   1      36.807  14.847  13.806  0.00  0.00    -0.398 OA
HETATM    6  H   UNK N   1      37.767  14.725  13.869  0.00  0.00     0.209 HD
ENDBRANCH   4   5
ENDBRANCH   3   4
BRANCH   3   7
HETATM    7  O   UNK N   1      36.526  13.237  11.421  0.00  0.00    -0.391 OA
HETATM    8  H   UNK N   1      36.462  13.264  10.454  0.00  0.00     0.210 HD
ENDBRANCH   3   7
ENDBRANCH   2   3
BRANCH   2   9
HETATM    9  O   UNK N   1      33.615  14.902  11.289  0.00  0.00    -0.390 OA
HETATM   10  H   UNK N   1      33.362  14.391  10.505  0.00  0.00     0.210 HD
ENDBRANCH   2   9
ENDBRANCH   1   2
BRANCH   1  11
HETATM   11  O   UNK N   1      37.032  16.018  11.003  0.00  0.00    -0.391 OA
HETATM   12  H   UNK N   1      37.681  15.471  11.471  0.00  0.00     0.210 HD
ENDBRANCH   1  11
BRANCH   1  13
HETATM   13  C   UNK N   1      35.078  16.791   9.934  0.00  0.00     0.214 C 
BRANCH  13  14
HETATM   14  O   UNK N   1      34.475  16.455   8.722  0.00  0.00    -0.294 OA
BRANCH  14  15
HETATM   15  P   UNK N   1      34.185  17.975   7.918  0.00  0.00     0.390 P 
HETATM   16  O   UNK N   1      32.742  18.421   8.276  0.00  0.00    -0.632 OA
BRANCH  15  17
HETATM   17  O   UNK N   1      35.257  19.209   8.498  0.00  0.00    -0.307 OA
HETATM   18  H   UNK N   1      35.319  20.125   8.185  0.00  0.00     0.222 HD
ENDBRANCH  15  17
BRANCH  15  19
HETATM   19  O   UNK N   1      34.271  17.855   6.185  0.00  0.00    -0.307 OA
HETATM   20  H   UNK N   1      34.059  18.614   5.618  0.00  0.00     0.222 HD
ENDBRANCH  15  19
ENDBRANCH  14  15
ENDBRANCH  13  14
ENDBRANCH   1  13
TORSDOF 12
ENDMDL
MODEL 2
REMARK VINA RESULT:      -5.3      0.144      1.277
REMARK  12 active torsions:
REMARK  status: ('A' for Active; 'I' for Inactive)
REMARK    1  A    between atoms: O_1  and  C_2 
REMARK    2  A    between atoms: C_2  and  C_3 
REMARK    3  A    between atoms: C_3  and  O_4 
REMARK    4  A    between atoms: C_3  and  C_5 
REMARK    5  A    between atoms: C_5  and  O_6 
REMARK    6  A    between atoms: C_5  and  C_7 
REMARK    7  A    between atoms: C_7  and  O_8 
REMARK    8  A    between atoms: C_7  and  C_9 
REMARK    9  A    between atoms: C_9  and  O_10 
REMARK   10  A    between atoms: O_10  and  P_11 
REMARK   11  A    between atoms: P_11  and  O_12 
REMARK   12  A    between atoms: P_11  and  O_13 
ROOT
HETATM    1  C   UNK N   1      35.808  15.536  10.547  0.00  0.00     0.173 C 
ENDROOT
BRANCH   1   2
HETATM    2  C   UNK N   1      35.002  14.940  11.715  0.00  0.00     0.179 C 
BRANCH   2   3
HETATM    3  C   UNK N   1      35.516  13.557  12.157  0.00  0.00     0.173 C 
BRANCH   3   4
HETATM    4  C   UNK N   1      36.151  13.603  13.541  0.00  0.00     0.198 C 
BRANCH   4   5
HETATM    5  O   UNK N   1      36.761  14.839  13.753  0.00  0.00    -0.398 OA
HETATM    6  H   UNK N   1      37.322  14.981  14.531  0.00  0.00     0.209 HD
ENDBRANCH   4   5
ENDBRANCH   3   4
BRANCH   3   7
HETATM    7  O   UNK N   1      36.488  13.108  11.263  0.00  0.00    -0.391 OA
HETATM    8  H   UNK N   1      37.252  12.599  11.575  0.00  0.00     0.210 HD
ENDBRANCH   3   7
ENDBRANCH   2   3
BRANCH   2   9
HETATM    9  O   UNK N   1      33.658  14.861  11.343  0.00  0.00    -0.390 OA
HETATM   10  H   UNK N   1      33.352  15.090  10.452  0.00  0.00     0.210 HD
ENDBRANCH   2   9
ENDBRANCH   1   2
BRANCH   1  11
HETATM   11  O   UNK N   1      37.062  15.976  10.968  0.00  0.00    -0.391 OA
HETATM   12  H   UNK N   1      37.888  15.889  10.467  0.00  0.00     0.210 HD
ENDBRANCH   1  11
BRANCH   1  13
HETATM   13  C   UNK N   1      35.073  16.731   9.952  0.00  0.00     0.214 C 
BRANCH  13  14
HETATM   14  O   UNK N   1      34.568  16.440   8.685  0.00  0.00    -0.294 OA
BRANCH  14  15
HETATM   15  P   UNK N   1      34.196  17.987   7.973  0.00  0.00     0.390 P 
HETATM   16  O   UNK N   1      34.369  17.845   6.438  0.00  0.00    -0.632 OA
BRANCH  15  17
HETATM   17  O   UNK N   1      32.543  18.432   8.260  0.00  0.00    -0.307 OA
HETATM   18  H   UNK N   1      32.221  19.181   8.784  0.00  0.00     0.222 HD
ENDBRANCH  15  17
BRANCH  15  19
HETATM   19  O   UNK N   1      35.268  19.252   8.497  0.00  0.00    -0.307 OA
HETATM   20  H   UNK N   1      36.167  19.054   8.804  0.00  0.00     0.222 HD
ENDBRANCH  15  19
ENDBRANCH  14  15
ENDBRANCH  13  14
ENDBRANCH   1  13
TORSDOF 12
ENDMDL
MODEL 3
REMARK VINA RESULT:      -5.1      1.190      2.138
REMARK  12 active torsions:
REMARK  status: ('A' for Active; 'I' for Inactive)
REMARK    1  A    between atoms: O_1  and  C_2 
REMARK    2  A    between atoms: C_2  and  C_3 
REMARK    3  A    between atoms: C_3  and  O_4 
REMARK    4  A    between atoms: C_3  and  C_5 
REMARK    5  A    between atoms: C_5  and  O_6 
REMARK    6  A    between atoms: C_5  and  C_7 
REMARK    7  A    between atoms: C_7  and  O_8 
REMARK    8  A    between atoms: C_7  and  C_9 
REMARK    9  A    between atoms: C_9  and  O_10 
REMARK   10  A    between atoms: O_10  and  P_11 
REMARK   11  A    between atoms: P_11  and  O_12 
REMARK   12  A    between atoms: P_11  and  O_13 
ROOT
HETATM    1  C   UNK N   1      35.739  15.568  10.496  0.00  0.00     0.173 C 
ENDROOT
BRANCH   1   2
HETATM    2  C   UNK N   1      34.871  14.985  11.626  0.00  0.00     0.179 C 
BRANCH   2   3
HETATM    3  C   UNK N   1      35.310  13.572  12.053  0.00  0.00     0.173 C 
BRANCH   3   4
HETATM    4  C   UNK N   1      35.364  12.612  10.872  0.00  0.00     0.198 C 
BRANCH   4   5
HETATM    5  O   UNK N   1      34.076  12.212  10.514  0.00  0.00    -0.398 OA
HETATM    6  H   UNK N   1      33.603  11.554  11.045  0.00  0.00     0.209 HD
ENDBRANCH   4   5
ENDBRANCH   3   4
BRANCH   3   7
HETATM    7  O   UNK N   1      34.402  13.055  12.977  0.00  0.00    -0.391 OA
HETATM    8  H   UNK N   1      34.316  12.098  13.105  0.00  0.00     0.210 HD
ENDBRANCH   3   7
ENDBRANCH   2   3
BRANCH   2   9
HETATM    9  O   UNK N   1      33.537  14.974  11.212  0.00  0.00    -0.390 OA
HETATM   10  H   UNK N   1      33.277  15.160  10.297  0.00  0.00     0.210 HD
ENDBRANCH   2   9
ENDBRANCH   1   2
BRANCH   1  11
HETATM   11  O   UNK N   1      36.958  16.036  10.982  0.00  0.00    -0.391 OA
HETATM   12  H   UNK N   1      37.510  15.591  11.644  0.00  0.00     0.210 HD
ENDBRANCH   1  11
BRANCH   1  13
HETATM   13  C   UNK N   1      35.025  16.739   9.832  0.00  0.00     0.214 C 
BRANCH  13  14
HETATM   14  O   UNK N   1      34.661  16.436   8.519  0.00  0.00    -0.294 OA
BRANCH  14  15
HETATM   15  P   UNK N   1      34.080  17.936   7.847  0.00  0.00     0.390 P 
HETATM   16  O   UNK N   1      35.008  19.066   8.365  0.00  0.00    -0.632 OA
BRANCH  15  17
HETATM   17  O   UNK N   1      34.193  17.937   6.116  0.00  0.00    -0.307 OA
HETATM   18  H   UNK N   1      33.699  17.379   5.496  0.00  0.00     0.222 HD
ENDBRANCH  15  17
BRANCH  15  19
HETATM   19  O   UNK N   1      32.462  18.327   8.353  0.00  0.00    -0.307 OA
HETATM   20  H   UNK N   1      31.753  18.466   7.705  0.00  0.00     0.222 HD
ENDBRANCH  15  19
ENDBRANCH  14  15
ENDBRANCH  13  14
ENDBRANCH   1  13
TORSDOF 12
ENDMDL
MODEL 4
REMARK VINA RESULT:      -5.0      0.607      1.964
REMARK  12 active torsions:
REMARK  status: ('A' for Active; 'I' for Inactive)
REMARK    1  A    between atoms: O_1  and  C_2 
REMARK    2  A    between atoms: C_2  and  C_3 
REMARK    3  A    between atoms: C_3  and  O_4 
REMARK    4  A    between atoms: C_3  and  C_5 
REMARK    5  A    between atoms: C_5  and  O_6 
REMARK    6  A    between atoms: C_5  and  C_7 
REMARK    7  A    between atoms: C_7  and  O_8 
REMARK    8  A    between atoms: C_7  and  C_9 
REMARK    9  A    between atoms: C_9  and  O_10 
REMARK   10  A    between atoms: O_10  and  P_11 
REMARK   11  A    between atoms: P_11  and  O_12 
REMARK   12  A    between atoms: P_11  and  O_13 
ROOT
HETATM    1  C   UNK N   1      34.849  15.721  11.188  0.00  0.00     0.173 C 
ENDROOT
BRANCH   1   2
HETATM    2  C   UNK N   1      36.076  14.840  10.890  0.00  0.00     0.179 C 
BRANCH   2   3
HETATM    3  C   UNK N   1      36.297  13.740  11.945  0.00  0.00     0.173 C 
BRANCH   3   4
HETATM    4  C   UNK N   1      35.925  14.212  13.344  0.00  0.00     0.198 C 
BRANCH   4   5
HETATM    5  O   UNK N   1      36.938  15.013  13.871  0.00  0.00    -0.398 OA
HETATM    6  H   UNK N   1      36.735  15.898  14.212  0.00  0.00     0.209 HD
ENDBRANCH   4   5
ENDBRANCH   3   4
BRANCH   3   7
HETATM    7  O   UNK N   1      37.643  13.372  11.968  0.00  0.00    -0.391 OA
HETATM    8  H   UNK N   1      38.326  14.009  12.226  0.00  0.00     0.210 HD
ENDBRANCH   3   7
ENDBRANCH   2   3
BRANCH   2   9
HETATM    9  O   UNK N   1      37.206  15.656  10.795  0.00  0.00    -0.390 OA
HETATM   10  H   UNK N   1      37.357  16.404  11.392  0.00  0.00     0.210 HD
ENDBRANCH   2   9
ENDBRANCH   1   2
BRANCH   1  11
HETATM   11  O   UNK N   1      33.662  15.015  11.010  0.00  0.00    -0.391 OA
HETATM   12  H   UNK N   1      33.379  14.583  10.189  0.00  0.00     0.210 HD
ENDBRANCH   1  11
BRANCH   1  13
HETATM   13  C   UNK N   1      34.820  16.922  10.250  0.00  0.00     0.214 C 
BRANCH  13  14
HETATM   14  O   UNK N   1      34.864  16.525   8.913  0.00  0.00    -0.294 OA
BRANCH  14  15
HETATM   15  P   UNK N   1      34.236  17.879   8.013  0.00  0.00     0.390 P 
HETATM   16  O   UNK N   1      35.059  19.130   8.421  0.00  0.00    -0.632 OA
BRANCH  15  17
HETATM   17  O   UNK N   1      34.459  17.660   6.306  0.00  0.00    -0.307 OA
HETATM   18  H   UNK N   1      35.146  17.135   5.868  0.00  0.00     0.222 HD
ENDBRANCH  15  17
BRANCH  15  19
HETATM   19  O   UNK N   1      32.569  18.221   8.372  0.00  0.00    -0.307 OA
HETATM   20  H   UNK N   1      31.865  17.599   8.130  0.00  0.00     0.222 HD
ENDBRANCH  15  19
ENDBRANCH  14  15
ENDBRANCH  13  14
ENDBRANCH   1  13
TORSDOF 12
ENDMDL
MODEL 5
REMARK VINA RESULT:      -4.7      3.087      6.418
REMARK  12 active torsions:
REMARK  status: ('A' for Active; 'I' for Inactive)
REMARK    1  A    between atoms: O_1  and  C_2 
REMARK    2  A    between atoms: C_2  and  C_3 
REMARK    3  A    between atoms: C_3  and  O_4 
REMARK    4  A    between atoms: C_3  and  C_5 
REMARK    5  A    between atoms: C_5  and  O_6 
REMARK    6  A    between atoms: C_5  and  C_7 
REMARK    7  A    between atoms: C_7  and  O_8 
REMARK    8  A    between atoms: C_7  and  C_9 
REMARK    9  A    between atoms: C_9  and  O_10 
REMARK   10  A    between atoms: O_10  and  P_11 
REMARK   11  A    between atoms: P_11  and  O_12 
REMARK   12  A    between atoms: P_11  and  O_13 
ROOT
HETATM    1  C   UNK N   1      36.036  14.175  12.533  0.00  0.00     0.173 C 
ENDROOT
BRANCH   1   2
HETATM    2  C   UNK N   1      35.209  14.658  11.327  0.00  0.00     0.179 C 
BRANCH   2   3
HETATM    3  C   UNK N   1      35.520  16.112  10.928  0.00  0.00     0.173 C 
BRANCH   3   4
HETATM    4  C   UNK N   1      34.892  16.481   9.591  0.00  0.00     0.198 C 
BRANCH   4   5
HETATM    5  O   UNK N   1      33.507  16.593   9.720  0.00  0.00    -0.398 OA
HETATM    6  H   UNK N   1      33.123  17.126  10.432  0.00  0.00     0.209 HD
ENDBRANCH   4   5
ENDBRANCH   3   4
BRANCH   3   7
HETATM    7  O   UNK N   1      36.899  16.284  10.808  0.00  0.00    -0.391 OA
HETATM    8  H   UNK N   1      37.419  16.644  11.542  0.00  0.00     0.210 HD
ENDBRANCH   3   7
ENDBRANCH   2   3
BRANCH   2   9
HETATM    9  O   UNK N   1      33.852  14.515  11.624  0.00  0.00    -0.390 OA
HETATM   10  H   UNK N   1      33.373  15.149  12.179  0.00  0.00     0.210 HD
ENDBRANCH   2   9
ENDBRANCH   1   2
BRANCH   1  11
HETATM   11  O   UNK N   1      37.297  13.733  12.139  0.00  0.00    -0.391 OA
HETATM   12  H   UNK N   1      37.474  12.994  11.536  0.00  0.00     0.210 HD
ENDBRANCH   1  11
BRANCH   1  13
HETATM   13  C   UNK N   1      35.334  13.014  13.226  0.00  0.00     0.214 C 
BRANCH  13  14
HETATM   14  O   UNK N   1      34.789  13.405  14.449  0.00  0.00    -0.294 OA
BRANCH  14  15
HETATM   15  P   UNK N   1      36.027  13.069  15.630  0.00  0.00     0.390 P 
HETATM   16  O   UNK N   1      36.414  11.573  15.483  0.00  0.00    -0.632 OA
BRANCH  15  17
HETATM   17  O   UNK N   1      37.460  13.998  15.323  0.00  0.00    -0.307 OA
HETATM   18  H   UNK N   1      38.362  13.796  15.616  0.00  0.00     0.222 HD
ENDBRANCH  15  17
BRANCH  15  19
HETATM   19  O   UNK N   1      35.487  13.301  17.267  0.00  0.00    -0.307 OA
HETATM   20  H   UNK N   1      35.959  12.899  18.013  0.00  0.00     0.222 HD
ENDBRANCH  15  19
ENDBRANCH  14  15
ENDBRANCH  13  14
ENDBRANCH   1  13
TORSDOF 12
ENDMDL
MODEL 6
REMARK VINA RESULT:      -4.7     16.134     17.712
REMARK  12 active torsions:
REMARK  status: ('A' for Active; 'I' for Inactive)
REMARK    1  A    between atoms: O_1  and  C_2 
REMARK    2  A    between atoms: C_2  and  C_3 
REMARK    3  A    between atoms: C_3  and  O_4 
REMARK    4  A    between atoms: C_3  and  C_5 
REMARK    5  A    between atoms: C_5  and  O_6 
REMARK    6  A    between atoms: C_5  and  C_7 
REMARK    7  A    between atoms: C_7  and  O_8 
REMARK    8  A    between atoms: C_7  and  C_9 
REMARK    9  A    between atoms: C_9  and  O_10 
REMARK   10  A    between atoms: O_10  and  P_11 
REMARK   11  A    between atoms: P_11  and  O_12 
REMARK   12  A    between atoms: P_11  and  O_13 
ROOT
HETATM    1  C   UNK N   1      19.853  18.496   2.804  0.00  0.00     0.173 C 
ENDROOT
BRANCH   1   2
HETATM    2  C   UNK N   1      20.207  19.882   3.374  0.00  0.00     0.179 C 
BRANCH   2   3
HETATM    3  C   UNK N   1      20.683  20.872   2.295  0.00  0.00     0.173 C 
BRANCH   3   4
HETATM    4  C   UNK N   1      21.071  20.162   1.004  0.00  0.00     0.198 C 
BRANCH   4   5
HETATM    5  O   UNK N   1      20.748  20.952  -0.099  0.00  0.00    -0.398 OA
HETATM    6  H   UNK N   1      20.686  20.557  -0.982  0.00  0.00     0.209 HD
ENDBRANCH   4   5
ENDBRANCH   3   4
BRANCH   3   7
HETATM    7  O   UNK N   1      21.806  21.562   2.751  0.00  0.00    -0.391 OA
HETATM    8  H   UNK N   1      22.690  21.170   2.683  0.00  0.00     0.210 HD
ENDBRANCH   3   7
ENDBRANCH   2   3
BRANCH   2   9
HETATM    9  O   UNK N   1      21.186  19.729   4.358  0.00  0.00    -0.390 OA
HETATM   10  H   UNK N   1      22.046  19.321   4.175  0.00  0.00     0.210 HD
ENDBRANCH   2   9
ENDBRANCH   1   2
BRANCH   1  11
HETATM   11  O   UNK N   1      18.487  18.387   2.549  0.00  0.00    -0.391 OA
HETATM   12  H   UNK N   1      17.786  18.388   3.218  0.00  0.00     0.210 HD
ENDBRANCH   1  11
BRANCH   1  13
HETATM   13  C   UNK N   1      20.228  17.404   3.798  0.00  0.00     0.214 C 
BRANCH  13  14
HETATM   14  O   UNK N   1      19.338  16.330   3.736  0.00  0.00    -0.294 OA
BRANCH  14  15
HETATM   15  P   UNK N   1      19.181  15.770   5.378  0.00  0.00     0.390 P 
HETATM   16  O   UNK N   1      17.705  15.991   5.805  0.00  0.00    -0.632 OA
BRANCH  15  17
HETATM   17  O   UNK N   1      19.495  14.067   5.497  0.00  0.00    -0.307 OA
HETATM   18  H   UNK N   1      20.335  13.642   5.726  0.00  0.00     0.222 HD
ENDBRANCH  15  17
BRANCH  15  19
HETATM   19  O   UNK N   1      20.177  16.654   6.497  0.00  0.00    -0.307 OA
HETATM   20  H   UNK N   1      20.688  16.197   7.184  0.00  0.00     0.222 HD
ENDBRANCH  15  19
ENDBRANCH  14  15
ENDBRANCH  13  14
ENDBRANCH   1  13
TORSDOF 12
ENDMDL
MODEL 7
REMARK VINA RESULT:      -4.7      3.613      6.666
REMARK  12 active torsions:
REMARK  status: ('A' for Active; 'I' for Inactive)
REMARK    1  A    between atoms: O_1  and  C_2 
REMARK    2  A    between atoms: C_2  and  C_3 
REMARK    3  A    between atoms: C_3  and  O_4 
REMARK    4  A    between atoms: C_3  and  C_5 
REMARK    5  A    between atoms: C_5  and  O_6 
REMARK    6  A    between atoms: C_5  and  C_7 
REMARK    7  A    between atoms: C_7  and  O_8 
REMARK    8  A    between atoms: C_7  and  C_9 
REMARK    9  A    between atoms: C_9  and  O_10 
REMARK   10  A    between atoms: O_10  and  P_11 
REMARK   11  A    between atoms: P_11  and  O_12 
REMARK   12  A    between atoms: P_11  and  O_13 
ROOT
HETATM    1  C   UNK N   1      35.254  12.602  12.531  0.00  0.00     0.173 C 
ENDROOT
BRANCH   1   2
HETATM    2  C   UNK N   1      35.405  14.134  12.582  0.00  0.00     0.179 C 
BRANCH   2   3
HETATM    3  C   UNK N   1      34.951  14.827  11.284  0.00  0.00     0.173 C 
BRANCH   3   4
HETATM    4  C   UNK N   1      35.520  16.235  11.163  0.00  0.00     0.198 C 
BRANCH   4   5
HETATM    5  O   UNK N   1      36.863  16.184  10.791  0.00  0.00    -0.398 OA
HETATM    6  H   UNK N   1      37.346  15.344  10.814  0.00  0.00     0.209 HD
ENDBRANCH   4   5
ENDBRANCH   3   4
BRANCH   3   7
HETATM    7  O   UNK N   1      33.560  14.932  11.268  0.00  0.00    -0.391 OA
HETATM    8  H   UNK N   1      33.083  15.321  12.017  0.00  0.00     0.210 HD
ENDBRANCH   3   7
ENDBRANCH   2   3
BRANCH   2   9
HETATM    9  O   UNK N   1      36.737  14.448  12.860  0.00  0.00    -0.390 OA
HETATM   10  H   UNK N   1      37.001  15.297  13.246  0.00  0.00     0.210 HD
ENDBRANCH   2   9
ENDBRANCH   1   2
BRANCH   1  11
HETATM   11  O   UNK N   1      34.301  12.218  11.591  0.00  0.00    -0.391 OA
HETATM   12  H   UNK N   1      34.098  11.305  11.333  0.00  0.00     0.210 HD
ENDBRANCH   1  11
BRANCH   1  13
HETATM   13  C   UNK N   1      34.810  12.068  13.887  0.00  0.00     0.214 C 
BRANCH  13  14
HETATM   14  O   UNK N   1      34.482  13.105  14.761  0.00  0.00    -0.294 OA
BRANCH  14  15
HETATM   15  P   UNK N   1      35.611  12.966  16.081  0.00  0.00     0.390 P 
HETATM   16  O   UNK N   1      36.763  13.971  15.815  0.00  0.00    -0.632 OA
BRANCH  15  17
HETATM   17  O   UNK N   1      34.879  13.419  17.588  0.00  0.00    -0.307 OA
HETATM   18  H   UNK N   1      35.330  13.723  18.390  0.00  0.00     0.222 HD
ENDBRANCH  15  17
BRANCH  15  19
HETATM   19  O   UNK N   1      36.326  11.385  16.201  0.00  0.00    -0.307 OA
HETATM   20  H   UNK N   1      35.977  10.721  16.817  0.00  0.00     0.222 HD
ENDBRANCH  15  19
ENDBRANCH  14  15
ENDBRANCH  13  14
ENDBRANCH   1  13
TORSDOF 12
ENDMDL
MODEL 8
REMARK VINA RESULT:      -4.5      2.654      5.566
REMARK  12 active torsions:
REMARK  status: ('A' for Active; 'I' for Inactive)
REMARK    1  A    between atoms: O_1  and  C_2 
REMARK    2  A    between atoms: C_2  and  C_3 
REMARK    3  A    between atoms: C_3  and  O_4 
REMARK    4  A    between atoms: C_3  and  C_5 
REMARK    5  A    between atoms: C_5  and  O_6 
REMARK    6  A    between atoms: C_5  and  C_7 
REMARK    7  A    between atoms: C_7  and  O_8 
REMARK    8  A    between atoms: C_7  and  C_9 
REMARK    9  A    between atoms: C_9  and  O_10 
REMARK   10  A    between atoms: O_10  and  P_11 
REMARK   11  A    between atoms: P_11  and  O_12 
REMARK   12  A    between atoms: P_11  and  O_13 
ROOT
HETATM    1  C   UNK N   1      35.772  15.779  11.511  0.00  0.00     0.173 C 
ENDROOT
BRANCH   1   2
HETATM    2  C   UNK N   1      34.664  15.368  10.524  0.00  0.00     0.179 C 
BRANCH   2   3
HETATM    3  C   UNK N   1      34.376  16.443   9.460  0.00  0.00     0.173 C 
BRANCH   3   4
HETATM    4  C   UNK N   1      34.734  15.966   8.059  0.00  0.00     0.198 C 
BRANCH   4   5
HETATM    5  O   UNK N   1      35.645  14.911   8.124  0.00  0.00    -0.398 OA
HETATM    6  H   UNK N   1      35.402  14.034   7.793  0.00  0.00     0.209 HD
ENDBRANCH   4   5
ENDBRANCH   3   4
BRANCH   3   7
HETATM    7  O   UNK N   1      35.135  17.583   9.724  0.00  0.00    -0.391 OA
HETATM    8  H   UNK N   1      34.724  18.376  10.101  0.00  0.00     0.210 HD
ENDBRANCH   3   7
ENDBRANCH   2   3
BRANCH   2   9
HETATM    9  O   UNK N   1      33.504  15.075  11.245  0.00  0.00    -0.390 OA
HETATM   10  H   UNK N   1      32.651  15.492  11.048  0.00  0.00     0.210 HD
ENDBRANCH   2   9
ENDBRANCH   1   2
BRANCH   1  11
HETATM   11  O   UNK N   1      36.987  15.972  10.857  0.00  0.00    -0.391 OA
HETATM   12  H   UNK N   1      37.274  16.794  10.429  0.00  0.00     0.210 HD
ENDBRANCH   1  11
BRANCH   1  13
HETATM   13  C   UNK N   1      35.977  14.694  12.559  0.00  0.00     0.214 C 
BRANCH  13  14
HETATM   14  O   UNK N   1      35.647  13.433  12.060  0.00  0.00    -0.294 OA
BRANCH  14  15
HETATM   15  P   UNK N   1      37.140  12.533  12.065  0.00  0.00     0.390 P 
HETATM   16  O   UNK N   1      36.861  11.169  11.380  0.00  0.00    -0.632 OA
BRANCH  15  17
HETATM   17  O   UNK N   1      38.362  13.333  11.129  0.00  0.00    -0.307 OA
HETATM   18  H   UNK N   1      38.754  13.029  10.296  0.00  0.00     0.222 HD
ENDBRANCH  15  17
BRANCH  15  19
HETATM   19  O   UNK N   1      37.723  12.193  13.668  0.00  0.00    -0.307 OA
HETATM   20  H   UNK N   1      38.395  12.754  14.087  0.00  0.00     0.222 HD
ENDBRANCH  15  19
ENDBRANCH  14  15
ENDBRANCH  13  14
ENDBRANCH   1  13
TORSDOF 12
ENDMDL
MODEL 9
REMARK VINA RESULT:      -4.4     14.867     17.128
REMARK  12 active torsions:
REMARK  status: ('A' for Active; 'I' for Inactive)
REMARK    1  A    between atoms: O_1  and  C_2 
REMARK    2  A    between atoms: C_2  and  C_3 
REMARK    3  A    between atoms: C_3  and  O_4 
REMARK    4  A    between atoms: C_3  and  C_5 
REMARK    5  A    between atoms: C_5  and  O_6 
REMARK    6  A    between atoms: C_5  and  C_7 
REMARK    7  A    between atoms: C_7  and  O_8 
REMARK    8  A    between atoms: C_7  and  C_9 
REMARK    9  A    between atoms: C_9  and  O_10 
REMARK   10  A    between atoms: O_10  and  P_11 
REMARK   11  A    between atoms: P_11  and  O_12 
REMARK   12  A    between atoms: P_11  and  O_13 
ROOT
HETATM    1  C   UNK N   1      20.246  17.017   2.497  0.00  0.00     0.173 C 
ENDROOT
BRANCH   1   2
HETATM    2  C   UNK N   1      19.634  18.242   1.792  0.00  0.00     0.179 C 
BRANCH   2   3
HETATM    3  C   UNK N   1      20.676  19.325   1.457  0.00  0.00     0.173 C 
BRANCH   3   4
HETATM    4  C   UNK N   1      20.402  20.626   2.201  0.00  0.00     0.198 C 
BRANCH   4   5
HETATM    5  O   UNK N   1      20.888  20.548   3.506  0.00  0.00    -0.398 OA
HETATM    6  H   UNK N   1      21.127  21.355   3.988  0.00  0.00     0.209 HD
ENDBRANCH   4   5
ENDBRANCH   3   4
BRANCH   3   7
HETATM    7  O   UNK N   1      20.641  19.606   0.091  0.00  0.00    -0.391 OA
HETATM    8  H   UNK N   1      21.154  20.342  -0.277  0.00  0.00     0.210 HD
ENDBRANCH   3   7
ENDBRANCH   2   3
BRANCH   2   9
HETATM    9  O   UNK N   1      18.626  18.771   2.600  0.00  0.00    -0.390 OA
HETATM   10  H   UNK N   1      18.693  19.649   3.005  0.00  0.00     0.210 HD
ENDBRANCH   2   9
ENDBRANCH   1   2
BRANCH   1  11
HETATM   11  O   UNK N   1      19.665  15.832   2.051  0.00  0.00    -0.391 OA
HETATM   12  H   UNK N   1      19.989  14.938   2.241  0.00  0.00     0.210 HD
ENDBRANCH   1  11
BRANCH   1  13
HETATM   13  C   UNK N   1      20.023  17.106   4.001  0.00  0.00     0.214 C 
BRANCH  13  14
HETATM   14  O   UNK N   1      20.849  18.067   4.584  0.00  0.00    -0.294 OA
BRANCH  14  15
HETATM   15  P   UNK N   1      21.151  17.493   6.201  0.00  0.00     0.390 P 
HETATM   16  O   UNK N   1      21.005  18.705   7.159  0.00  0.00    -0.632 OA
BRANCH  15  17
HETATM   17  O   UNK N   1      19.969  16.318   6.684  0.00  0.00    -0.307 OA
HETATM   18  H   UNK N   1      19.606  15.598   6.146  0.00  0.00     0.222 HD
ENDBRANCH  15  17
BRANCH  15  19
HETATM   19  O   UNK N   1      22.759  16.863   6.411  0.00  0.00    -0.307 OA
HETATM   20  H   UNK N   1      22.978  15.951   6.162  0.00  0.00     0.222 HD
ENDBRANCH  15  19
ENDBRANCH  14  15
ENDBRANCH  13  14
ENDBRANCH   1  13
TORSDOF 12
ENDMDL
