MODEL 1
REMARK VINA RESULT:      -5.1      0.000      0.000
REMARK  6 active torsions:
REMARK  status: ('A' for Active; 'I' for Inactive)
REMARK    1  A    between atoms: O_1  and  C_2 
REMARK    2  A    between atoms: C_3  and  C_2 
REMARK    3  A    between atoms: C_3  and  O_4 
REMARK    4  A    between atoms: C_7  and  O_8 
REMARK    5  A    between atoms: C_9  and  O_10 
REMARK    6  A    between atoms: C_11  and  O_12 
ROOT
HETATM    1  C   UNK N   1      21.174  20.257   2.996  0.00  0.00     0.212 C 
HETATM    2  O   UNK N   1      20.750  19.830   4.284  0.00  0.00    -0.349 OA
HETATM    3  C   UNK N   1      20.908  18.430   4.418  0.00  0.00     0.206 C 
HETATM    4  C   UNK N   1      19.957  17.696   3.480  0.00  0.00     0.173 C 
HETATM    5  C   UNK N   1      20.332  18.059   2.050  0.00  0.00     0.183 C 
HETATM    6  C   UNK N   1      20.319  19.577   1.905  0.00  0.00     0.213 C 
ENDROOT
BRANCH   1   7
HETATM    7  C   UNK N   1      22.676  20.007   2.791  0.00  0.00     0.235 C 
BRANCH   7   8
HETATM    8  O   UNK N   1      23.386  21.209   2.872  0.00  0.00    -0.395 OA
HETATM    9  H   UNK N   1      23.362  21.846   2.141  0.00  0.00     0.209 HD
ENDBRANCH   7   8
ENDBRANCH   1   7
BRANCH   1  10
HETATM   10  O   UNK N   1      20.952  21.633   2.903  0.00  0.00    -0.362 OA
HETATM   11  H   UNK N   1      20.476  22.243   3.487  0.00  0.00     0.213 HD
ENDBRANCH   1  10
BRANCH   6  12
HETATM   12  O   UNK N   1      20.746  19.948   0.627  0.00  0.00    -0.387 OA
HETATM   13  H   UNK N   1      20.303  20.512  -0.026  0.00  0.00     0.210 HD
ENDBRANCH   6  12
BRANCH   5  14
HETATM   14  O   UNK N   1      19.416  17.491   1.162  0.00  0.00    -0.390 OA
HETATM   15  H   UNK N   1      18.804  16.805   1.469  0.00  0.00     0.210 HD
ENDBRANCH   5  14
BRANCH   4  16
HETATM   16  O   UNK N   1      20.078  16.320   3.670  0.00  0.00    -0.391 OA
HETATM   17  H   UNK N   1      20.432  15.662   3.051  0.00  0.00     0.210 HD
ENDBRANCH   4  16
TORSDOF 6
ENDMDL
MODEL 2
REMARK VINA RESULT:      -5.0      1.212      2.387
REMARK  6 active torsions:
REMARK  status: ('A' for Active; 'I' for Inactive)
REMARK    1  A    between atoms: O_1  and  C_2 
REMARK    2  A    between atoms: C_3  and  C_2 
REMARK    3  A    between atoms: C_3  and  O_4 
REMARK    4  A    between atoms: C_7  and  O_8 
REMARK    5  A    between atoms: C_9  and  O_10 
REMARK    6  A    between atoms: C_11  and  O_12 
ROOT
HETATM    1  C   UNK N   1      21.179  19.285   3.620  0.00  0.00     0.212 C 
HETATM    2  O   UNK N   1      20.345  18.142   3.488  0.00  0.00    -0.349 OA
HETATM    3  C   UNK N   1      20.572  17.504   2.245  0.00  0.00     0.206 C 
HETATM    4  C   UNK N   1      20.117  18.399   1.098  0.00  0.00     0.173 C 
HETATM    5  C   UNK N   1      20.966  19.662   1.120  0.00  0.00     0.183 C 
HETATM    6  C   UNK N   1      20.866  20.302   2.501  0.00  0.00     0.213 C 
ENDROOT
BRANCH   1   7
HETATM    7  C   UNK N   1      22.665  18.892   3.642  0.00  0.00     0.235 C 
BRANCH   7   8
HETATM    8  O   UNK N   1      23.449  19.975   4.051  0.00  0.00    -0.395 OA
HETATM    9  H   UNK N   1      23.049  20.848   4.194  0.00  0.00     0.209 HD
ENDBRANCH   7   8
ENDBRANCH   1   7
BRANCH   1  10
HETATM   10  O   UNK N   1      20.880  19.899   4.838  0.00  0.00    -0.362 OA
HETATM   11  H   UNK N   1      20.096  20.389   5.129  0.00  0.00     0.213 HD
ENDBRANCH   1  10
BRANCH   6  12
HETATM   12  O   UNK N   1      21.705  21.416   2.584  0.00  0.00    -0.387 OA
HETATM   13  H   UNK N   1      21.476  22.358   2.546  0.00  0.00     0.210 HD
ENDBRANCH   6  12
BRANCH   5  14
HETATM   14  O   UNK N   1      20.509  20.556   0.150  0.00  0.00    -0.390 OA
HETATM   15  H   UNK N   1      20.080  20.223  -0.653  0.00  0.00     0.210 HD
ENDBRANCH   5  14
BRANCH   4  16
HETATM   16  O   UNK N   1      20.287  17.731  -0.114  0.00  0.00    -0.391 OA
HETATM   17  H   UNK N   1      20.724  18.057  -0.917  0.00  0.00     0.210 HD
ENDBRANCH   4  16
TORSDOF 6
ENDMDL
MODEL 3
REMARK VINA RESULT:      -4.8     13.711     15.456
REMARK  6 active torsions:
REMARK  status: ('A' for Active; 'I' for Inactive)
REMARK    1  A    between atoms: O_1  and  C_2 
REMARK    2  A    between atoms: C_3  and  C_2 
REMARK    3  A    between atoms: C_3  and  O_4 
REMARK    4  A    between atoms: C_7  and  O_8 
REMARK    5  A    between atoms: C_9  and  O_10 
REMARK    6  A    between atoms: C_11  and  O_12 
ROOT
HETATM    1  C   UNK N   1      34.068  15.696   9.429  0.00  0.00     0.212 C 
HETATM    2  O   UNK N   1      33.008  15.568   8.490  0.00  0.00    -0.349 OA
HETATM    3  C   UNK N   1      33.420  16.021   7.214  0.00  0.00     0.206 C 
HETATM    4  C   UNK N   1      33.680  17.522   7.241  0.00  0.00     0.173 C 
HETATM    5  C   UNK N   1      34.827  17.785   8.206  0.00  0.00     0.183 C 
HETATM    6  C   UNK N   1      34.483  17.178   9.562  0.00  0.00     0.213 C 
ENDROOT
BRANCH   1   7
HETATM    7  C   UNK N   1      35.257  14.796   9.055  0.00  0.00     0.235 C 
BRANCH   7   8
HETATM    8  O   UNK N   1      36.043  14.535  10.181  0.00  0.00    -0.395 OA
HETATM    9  H   UNK N   1      35.734  14.784  11.067  0.00  0.00     0.209 HD
ENDBRANCH   7   8
ENDBRANCH   1   7
BRANCH   1  10
HETATM   10  O   UNK N   1      33.593  15.282  10.675  0.00  0.00    -0.362 OA
HETATM   11  H   UNK N   1      33.680  14.436  11.141  0.00  0.00     0.213 HD
ENDBRANCH   1  10
BRANCH   6  12
HETATM   12  O   UNK N   1      35.554  17.323  10.448  0.00  0.00    -0.387 OA
HETATM   13  H   UNK N   1      36.004  16.647  10.978  0.00  0.00     0.210 HD
ENDBRANCH   6  12
BRANCH   5  14
HETATM   14  O   UNK N   1      35.026  19.161   8.341  0.00  0.00    -0.390 OA
HETATM   15  H   UNK N   1      34.317  19.779   8.106  0.00  0.00     0.210 HD
ENDBRANCH   5  14
BRANCH   4  16
HETATM   16  O   UNK N   1      34.022  17.963   5.963  0.00  0.00    -0.391 OA
HETATM   17  H   UNK N   1      34.907  18.156   5.617  0.00  0.00     0.210 HD
ENDBRANCH   4  16
TORSDOF 6
ENDMDL
MODEL 4
REMARK VINA RESULT:      -4.8     15.791     17.173
REMARK  6 active torsions:
REMARK  status: ('A' for Active; 'I' for Inactive)
REMARK    1  A    between atoms: O_1  and  C_2 
REMARK    2  A    between atoms: C_3  and  C_2 
REMARK    3  A    between atoms: C_3  and  O_4 
REMARK    4  A    between atoms: C_7  and  O_8 
REMARK    5  A    between atoms: C_9  and  O_10 
REMARK    6  A    between atoms: C_11  and  O_12 
ROOT
HETATM    1  C   UNK N   1      35.202  15.880  10.220  0.00  0.00     0.212 C 
HETATM    2  O   UNK N   1      36.604  15.863  10.455  0.00  0.00    -0.349 OA
HETATM    3  C   UNK N   1      37.097  14.536  10.414  0.00  0.00     0.206 C 
HETATM    4  C   UNK N   1      36.540  13.727  11.579  0.00  0.00     0.173 C 
HETATM    5  C   UNK N   1      35.028  13.653  11.423  0.00  0.00     0.183 C 
HETATM    6  C   UNK N   1      34.472  15.068  11.313  0.00  0.00     0.213 C 
ENDROOT
BRANCH   1   7
HETATM    7  C   UNK N   1      34.866  15.377   8.808  0.00  0.00     0.235 C 
BRANCH   7   8
HETATM    8  O   UNK N   1      33.656  15.925   8.371  0.00  0.00    -0.395 OA
HETATM    9  H   UNK N   1      32.816  15.645   8.768  0.00  0.00     0.209 HD
ENDBRANCH   7   8
ENDBRANCH   1   7
BRANCH   1  10
HETATM   10  O   UNK N   1      34.764  17.202  10.320  0.00  0.00    -0.362 OA
HETATM   11  H   UNK N   1      35.004  17.993   9.812  0.00  0.00     0.213 HD
ENDBRANCH   1  10
BRANCH   6  12
HETATM   12  O   UNK N   1      33.094  15.034  11.079  0.00  0.00    -0.387 OA
HETATM   13  H   UNK N   1      32.606  15.265  10.273  0.00  0.00     0.210 HD
ENDBRANCH   6  12
BRANCH   5  14
HETATM   14  O   UNK N   1      34.470  13.010  12.530  0.00  0.00    -0.390 OA
HETATM   15  H   UNK N   1      34.712  12.093  12.733  0.00  0.00     0.210 HD
ENDBRANCH   5  14
BRANCH   4  16
HETATM   16  O   UNK N   1      37.085  12.443  11.562  0.00  0.00    -0.391 OA
HETATM   17  H   UNK N   1      37.168  11.822  12.302  0.00  0.00     0.210 HD
ENDBRANCH   4  16
TORSDOF 6
ENDMDL
MODEL 5
REMARK VINA RESULT:      -4.6     16.417     17.691
REMARK  6 active torsions:
REMARK  status: ('A' for Active; 'I' for Inactive)
REMARK    1  A    between atoms: O_1  and  C_2 
REMARK    2  A    between atoms: C_3  and  C_2 
REMARK    3  A    between atoms: C_3  and  O_4 
REMARK    4  A    between atoms: C_7  and  O_8 
REMARK    5  A    between atoms: C_9  and  O_10 
REMARK    6  A    between atoms: C_11  and  O_12 
ROOT
HETATM    1  C   UNK N   1      34.642  14.851  11.272  0.00  0.00     0.212 C 
HETATM    2  O   UNK N   1      34.869  14.235  12.532  0.00  0.00    -0.349 OA
HETATM    3  C   UNK N   1      36.251  13.990  12.721  0.00  0.00     0.206 C 
HETATM    4  C   UNK N   1      36.744  12.942  11.731  0.00  0.00     0.173 C 
HETATM    5  C   UNK N   1      36.573  13.503  10.326  0.00  0.00     0.183 C 
HETATM    6  C   UNK N   1      35.118  13.921  10.134  0.00  0.00     0.213 C 
ENDROOT
BRANCH   1   7
HETATM    7  C   UNK N   1      35.304  16.236  11.198  0.00  0.00     0.235 C 
BRANCH   7   8
HETATM    8  O   UNK N   1      34.596  17.068  10.326  0.00  0.00    -0.395 OA
HETATM    9  H   UNK N   1      34.438  16.799   9.407  0.00  0.00     0.209 HD
ENDBRANCH   7   8
ENDBRANCH   1   7
BRANCH   1  10
HETATM   10  O   UNK N   1      33.265  15.025  11.119  0.00  0.00    -0.362 OA
HETATM   11  H   UNK N   1      32.519  14.693  11.641  0.00  0.00     0.213 HD
ENDBRANCH   1  10
BRANCH   6  12
HETATM   12  O   UNK N   1      34.945  14.523   8.885  0.00  0.00    -0.387 OA
HETATM   13  H   UNK N   1      34.133  14.628   8.365  0.00  0.00     0.210 HD
ENDBRANCH   6  12
BRANCH   5  14
HETATM   14  O   UNK N   1      36.914  12.531   9.384  0.00  0.00    -0.390 OA
HETATM   15  H   UNK N   1      36.586  11.624   9.482  0.00  0.00     0.210 HD
ENDBRANCH   5  14
BRANCH   4  16
HETATM   16  O   UNK N   1      38.089  12.664  11.972  0.00  0.00    -0.391 OA
HETATM   17  H   UNK N   1      38.813  12.621  11.327  0.00  0.00     0.210 HD
ENDBRANCH   4  16
TORSDOF 6
ENDMDL
MODEL 6
REMARK VINA RESULT:      -4.5     12.834     14.488
REMARK  6 active torsions:
REMARK  status: ('A' for Active; 'I' for Inactive)
REMARK    1  A    between atoms: O_1  and  C_2 
REMARK    2  A    between atoms: C_3  and  C_2 
REMARK    3  A    between atoms: C_3  and  O_4 
REMARK    4  A    between atoms: C_7  and  O_8 
REMARK    5  A    between atoms: C_9  and  O_10 
REMARK    6  A    between atoms: C_11  and  O_12 
ROOT
HETATM    1  C   UNK N   1      33.164  14.616   8.888  0.00  0.00     0.212 C 
HETATM    2  O   UNK N   1      33.944  14.423   7.716  0.00  0.00    -0.349 OA
HETATM    3  C   UNK N   1      34.668  15.598   7.404  0.00  0.00     0.206 C 
HETATM    4  C   UNK N   1      33.716  16.719   7.005  0.00  0.00     0.173 C 
HETATM    5  C   UNK N   1      32.833  17.036   8.203  0.00  0.00     0.183 C 
HETATM    6  C   UNK N   1      32.145  15.755   8.665  0.00  0.00     0.213 C 
ENDROOT
BRANCH   1   7
HETATM    7  C   UNK N   1      34.053  14.870  10.116  0.00  0.00     0.235 C 
BRANCH   7   8
HETATM    8  O   UNK N   1      33.302  14.768  11.290  0.00  0.00    -0.395 OA
HETATM    9  H   UNK N   1      33.558  15.264  12.084  0.00  0.00     0.209 HD
ENDBRANCH   7   8
ENDBRANCH   1   7
BRANCH   1  10
HETATM   10  O   UNK N   1      32.437  13.446   9.121  0.00  0.00    -0.362 OA
HETATM   11  H   UNK N   1      31.634  13.101   8.701  0.00  0.00     0.213 HD
ENDBRANCH   1  10
BRANCH   6  12
HETATM   12  O   UNK N   1      31.395  15.994   9.820  0.00  0.00    -0.387 OA
HETATM   13  H   UNK N   1      31.477  15.585  10.696  0.00  0.00     0.210 HD
ENDBRANCH   6  12
BRANCH   5  14
HETATM   14  O   UNK N   1      31.873  17.985   7.845  0.00  0.00    -0.390 OA
HETATM   15  H   UNK N   1      31.362  18.442   8.531  0.00  0.00     0.210 HD
ENDBRANCH   5  14
BRANCH   4  16
HETATM   16  O   UNK N   1      34.446  17.849   6.639  0.00  0.00    -0.391 OA
HETATM   17  H   UNK N   1      34.120  18.655   6.209  0.00  0.00     0.210 HD
ENDBRANCH   4  16
TORSDOF 6
ENDMDL
MODEL 7
REMARK VINA RESULT:      -4.4     13.486     14.394
REMARK  6 active torsions:
REMARK  status: ('A' for Active; 'I' for Inactive)
REMARK    1  A    between atoms: O_1  and  C_2 
REMARK    2  A    between atoms: C_3  and  C_2 
REMARK    3  A    between atoms: C_3  and  O_4 
REMARK    4  A    between atoms: C_7  and  O_8 
REMARK    5  A    between atoms: C_9  and  O_10 
REMARK    6  A    between atoms: C_11  and  O_12 
ROOT
HETATM    1  C   UNK N   1      32.562  15.502   8.924  0.00  0.00     0.212 C 
HETATM    2  O   UNK N   1      32.078  14.749   7.820  0.00  0.00    -0.349 OA
HETATM    3  C   UNK N   1      33.131  14.458   6.919  0.00  0.00     0.206 C 
HETATM    4  C   UNK N   1      33.642  15.738   6.268  0.00  0.00     0.173 C 
HETATM    5  C   UNK N   1      34.215  16.627   7.362  0.00  0.00     0.183 C 
HETATM    6  C   UNK N   1      33.151  16.843   8.433  0.00  0.00     0.213 C 
ENDROOT
BRANCH   1   7
HETATM    7  C   UNK N   1      33.576  14.695   9.749  0.00  0.00     0.235 C 
BRANCH   7   8
HETATM    8  O   UNK N   1      33.427  14.974  11.111  0.00  0.00    -0.395 OA
HETATM    9  H   UNK N   1      32.707  14.571  11.621  0.00  0.00     0.209 HD
ENDBRANCH   7   8
ENDBRANCH   1   7
BRANCH   1  10
HETATM   10  O   UNK N   1      31.477  15.801   9.751  0.00  0.00    -0.362 OA
HETATM   11  H   UNK N   1      31.424  15.932  10.710  0.00  0.00     0.213 HD
ENDBRANCH   1  10
BRANCH   6  12
HETATM   12  O   UNK N   1      33.673  17.583   9.498  0.00  0.00    -0.387 OA
HETATM   13  H   UNK N   1      33.517  18.512   9.731  0.00  0.00     0.210 HD
ENDBRANCH   6  12
BRANCH   5  14
HETATM   14  O   UNK N   1      34.597  17.857   6.820  0.00  0.00    -0.390 OA
HETATM   15  H   UNK N   1      34.520  18.665   7.350  0.00  0.00     0.210 HD
ENDBRANCH   5  14
BRANCH   4  16
HETATM   16  O   UNK N   1      34.633  15.428   5.338  0.00  0.00    -0.391 OA
HETATM   17  H   UNK N   1      35.061  16.024   4.703  0.00  0.00     0.210 HD
ENDBRANCH   4  16
TORSDOF 6
ENDMDL
MODEL 8
REMARK VINA RESULT:      -4.4     11.846     13.434
REMARK  6 active torsions:
REMARK  status: ('A' for Active; 'I' for Inactive)
REMARK    1  A    between atoms: O_1  and  C_2 
REMARK    2  A    between atoms: C_3  and  C_2 
REMARK    3  A    between atoms: C_3  and  O_4 
REMARK    4  A    between atoms: C_7  and  O_8 
REMARK    5  A    between atoms: C_9  and  O_10 
REMARK    6  A    between atoms: C_11  and  O_12 
ROOT
HETATM    1  C   UNK N   1      33.975  17.875   7.953  0.00  0.00     0.212 C 
HETATM    2  O   UNK N   1      32.788  18.539   8.366  0.00  0.00    -0.349 OA
HETATM    3  C   UNK N   1      31.695  17.639   8.375  0.00  0.00     0.206 C 
HETATM    4  C   UNK N   1      31.364  17.191   6.956  0.00  0.00     0.173 C 
HETATM    5  C   UNK N   1      32.567  16.437   6.407  0.00  0.00     0.183 C 
HETATM    6  C   UNK N   1      33.802  17.324   6.520  0.00  0.00     0.213 C 
ENDROOT
BRANCH   1   7
HETATM    7  C   UNK N   1      34.375  16.774   8.948  0.00  0.00     0.235 C 
BRANCH   7   8
HETATM    8  O   UNK N   1      34.718  17.335  10.182  0.00  0.00    -0.395 OA
HETATM    9  H   UNK N   1      34.996  18.262  10.242  0.00  0.00     0.209 HD
ENDBRANCH   7   8
ENDBRANCH   1   7
BRANCH   1  10
HETATM   10  O   UNK N   1      35.006  18.816   7.916  0.00  0.00    -0.362 OA
HETATM   11  H   UNK N   1      35.517  19.172   7.174  0.00  0.00     0.213 HD
ENDBRANCH   1  10
BRANCH   6  12
HETATM   12  O   UNK N   1      34.942  16.628   6.107  0.00  0.00    -0.387 OA
HETATM   13  H   UNK N   1      35.524  16.049   6.623  0.00  0.00     0.210 HD
ENDBRANCH   6  12
BRANCH   5  14
HETATM   14  O   UNK N   1      32.345  16.102   5.070  0.00  0.00    -0.390 OA
HETATM   15  H   UNK N   1      32.867  16.525   4.371  0.00  0.00     0.210 HD
ENDBRANCH   5  14
BRANCH   4  16
HETATM   16  O   UNK N   1      30.246  16.358   6.975  0.00  0.00    -0.391 OA
HETATM   17  H   UNK N   1      29.743  16.020   6.217  0.00  0.00     0.210 HD
ENDBRANCH   4  16
TORSDOF 6
ENDMDL
MODEL 9
REMARK VINA RESULT:      -4.3     13.108     14.841
REMARK  6 active torsions:
REMARK  status: ('A' for Active; 'I' for Inactive)
REMARK    1  A    between atoms: O_1  and  C_2 
REMARK    2  A    between atoms: C_3  and  C_2 
REMARK    3  A    between atoms: C_3  and  O_4 
REMARK    4  A    between atoms: C_7  and  O_8 
REMARK    5  A    between atoms: C_9  and  O_10 
REMARK    6  A    between atoms: C_11  and  O_12 
ROOT
HETATM    1  C   UNK N   1      34.050  17.801   7.789  0.00  0.00     0.212 C 
HETATM    2  O   UNK N   1      34.575  17.609   6.482  0.00  0.00    -0.349 OA
HETATM    3  C   UNK N   1      34.322  16.289   6.035  0.00  0.00     0.206 C 
HETATM    4  C   UNK N   1      35.104  15.286   6.873  0.00  0.00     0.173 C 
HETATM    5  C   UNK N   1      34.608  15.380   8.309  0.00  0.00     0.183 C 
HETATM    6  C   UNK N   1      34.725  16.827   8.779  0.00  0.00     0.213 C 
ENDROOT
BRANCH   1   7
HETATM    7  C   UNK N   1      32.519  17.665   7.802  0.00  0.00     0.235 C 
BRANCH   7   8
HETATM    8  O   UNK N   1      31.998  18.143   9.008  0.00  0.00    -0.395 OA
HETATM    9  H   UNK N   1      32.179  19.051   9.298  0.00  0.00     0.209 HD
ENDBRANCH   7   8
ENDBRANCH   1   7
BRANCH   1  10
HETATM   10  O   UNK N   1      34.369  19.098   8.196  0.00  0.00    -0.362 OA
HETATM   11  H   UNK N   1      34.416  19.495   9.079  0.00  0.00     0.213 HD
ENDBRANCH   1  10
BRANCH   6  12
HETATM   12  O   UNK N   1      34.194  16.967  10.064  0.00  0.00    -0.387 OA
HETATM   13  H   UNK N   1      33.281  17.160  10.330  0.00  0.00     0.210 HD
ENDBRANCH   6  12
BRANCH   5  14
HETATM   14  O   UNK N   1      35.375  14.552   9.131  0.00  0.00    -0.390 OA
HETATM   15  H   UNK N   1      35.343  13.590   9.016  0.00  0.00     0.210 HD
ENDBRANCH   5  14
BRANCH   4  16
HETATM   16  O   UNK N   1      34.896  13.998   6.381  0.00  0.00    -0.391 OA
HETATM   17  H   UNK N   1      34.151  13.678   5.849  0.00  0.00     0.210 HD
ENDBRANCH   4  16
TORSDOF 6
ENDMDL
