MODEL 1
REMARK VINA RESULT:      -4.5      0.000      0.000
REMARK  2 active torsions:
REMARK  status: ('A' for Active; 'I' for Inactive)
REMARK    1  A    between atoms: O_1  and  C_2 
REMARK    2  A    between atoms: C_2  and  C_3 
ROOT
HETATM    1  C   UNK N   1      23.232  12.167  11.603  0.00  0.00    -0.035 A 
HETATM    2  C   UNK N   1      22.078  12.536  10.907  0.00  0.00     0.011 A 
HETATM    3  C   UNK N   1      22.161  12.966   9.581  0.00  0.00     0.019 A 
HETATM    4  C   UNK N   1      23.404  13.028   8.942  0.00  0.00     0.011 A 
HETATM    5 Br   UNK N   1      23.511  13.614   7.134  0.00  0.00    -0.051 Br
HETATM    6  C   UNK N   1      24.563  12.659   9.632  0.00  0.00     0.019 A 
HETATM    7  C   UNK N   1      24.479  12.230  10.959  0.00  0.00     0.011 A 
ENDROOT
BRANCH   1   8
HETATM    8  C   UNK N   1      23.108  11.711  13.023  0.00  0.00     0.202 C 
BRANCH   8   9
HETATM    9  O   UNK N   1      23.848  12.514  13.893  0.00  0.00    -0.396 OA
HETATM   10  H   UNK N   1      24.818  12.506  13.854  0.00  0.00     0.209 HD
ENDBRANCH   8   9
ENDBRANCH   1   8
TORSDOF 2
ENDMDL
MODEL 2
REMARK VINA RESULT:      -4.5      0.046      1.615
REMARK  2 active torsions:
REMARK  status: ('A' for Active; 'I' for Inactive)
REMARK    1  A    between atoms: O_1  and  C_2 
REMARK    2  A    between atoms: C_2  and  C_3 
ROOT
HETATM    1  C   UNK N   1      23.199  12.172  11.614  0.00  0.00    -0.035 A 
HETATM    2  C   UNK N   1      24.453  12.221  10.998  0.00  0.00     0.011 A 
HETATM    3  C   UNK N   1      24.572  12.654   9.676  0.00  0.00     0.019 A 
HETATM    4  C   UNK N   1      23.435  13.039   8.961  0.00  0.00     0.011 A 
HETATM    5 Br   UNK N   1      23.604  13.628   7.157  0.00  0.00    -0.051 Br
HETATM    6  C   UNK N   1      22.177  12.992   9.569  0.00  0.00     0.019 A 
HETATM    7  C   UNK N   1      22.058  12.560  10.892  0.00  0.00     0.011 A 
ENDROOT
BRANCH   1   8
HETATM    8  C   UNK N   1      23.106  11.703  13.033  0.00  0.00     0.202 C 
BRANCH   8   9
HETATM    9  O   UNK N   1      23.840  12.517  13.897  0.00  0.00    -0.396 OA
HETATM   10  H   UNK N   1      24.643  12.175  14.321  0.00  0.00     0.209 HD
ENDBRANCH   8   9
ENDBRANCH   1   8
TORSDOF 2
ENDMDL
MODEL 3
REMARK VINA RESULT:      -4.2     10.379     11.544
REMARK  2 active torsions:
REMARK  status: ('A' for Active; 'I' for Inactive)
REMARK    1  A    between atoms: O_1  and  C_2 
REMARK    2  A    between atoms: C_2  and  C_3 
ROOT
HETATM    1  C   UNK N   1      33.518  17.662   7.620  0.00  0.00    -0.035 A 
HETATM    2  C   UNK N   1      33.796  17.543   6.256  0.00  0.00     0.011 A 
HETATM    3  C   UNK N   1      32.764  17.315   5.343  0.00  0.00     0.019 A 
HETATM    4  C   UNK N   1      31.444  17.205   5.793  0.00  0.00     0.011 A 
HETATM    5 Br   UNK N   1      30.041  16.894   4.543  0.00  0.00    -0.051 Br
HETATM    6  C   UNK N   1      31.158  17.322   7.156  0.00  0.00     0.019 A 
HETATM    7  C   UNK N   1      32.191  17.550   8.069  0.00  0.00     0.011 A 
ENDROOT
BRANCH   1   8
HETATM    8  C   UNK N   1      34.647  17.906   8.572  0.00  0.00     0.202 C 
BRANCH   8   9
HETATM    9  O   UNK N   1      35.198  19.178   8.408  0.00  0.00    -0.396 OA
HETATM   10  H   UNK N   1      34.746  19.836   7.856  0.00  0.00     0.209 HD
ENDBRANCH   8   9
ENDBRANCH   1   8
TORSDOF 2
ENDMDL
MODEL 4
REMARK VINA RESULT:      -4.2     12.654     13.482
REMARK  2 active torsions:
REMARK  status: ('A' for Active; 'I' for Inactive)
REMARK    1  A    between atoms: O_1  and  C_2 
REMARK    2  A    between atoms: C_2  and  C_3 
ROOT
HETATM    1  C   UNK N   1      35.244  11.940  18.398  0.00  0.00    -0.035 A 
HETATM    2  C   UNK N   1      35.037  12.995  17.505  0.00  0.00     0.011 A 
HETATM    3  C   UNK N   1      34.752  12.737  16.163  0.00  0.00     0.019 A 
HETATM    4  C   UNK N   1      34.672  11.418  15.706  0.00  0.00     0.011 A 
HETATM    5 Br   UNK N   1      34.282  11.073  13.874  0.00  0.00    -0.051 Br
HETATM    6  C   UNK N   1      34.878  10.358  16.593  0.00  0.00     0.019 A 
HETATM    7  C   UNK N   1      35.163  10.616  17.936  0.00  0.00     0.011 A 
ENDROOT
BRANCH   1   8
HETATM    8  C   UNK N   1      35.548  12.252  19.831  0.00  0.00     0.202 C 
BRANCH   8   9
HETATM    9  O   UNK N   1      34.804  13.337  20.295  0.00  0.00    -0.396 OA
HETATM   10  H   UNK N   1      34.032  13.190  20.865  0.00  0.00     0.209 HD
ENDBRANCH   8   9
ENDBRANCH   1   8
TORSDOF 2
ENDMDL
MODEL 5
REMARK VINA RESULT:      -4.2      9.387     10.626
REMARK  2 active torsions:
REMARK  status: ('A' for Active; 'I' for Inactive)
REMARK    1  A    between atoms: O_1  and  C_2 
REMARK    2  A    between atoms: C_2  and  C_3 
ROOT
HETATM    1  C   UNK N   1      32.309  17.388   6.844  0.00  0.00    -0.035 A 
HETATM    2  C   UNK N   1      32.267  17.887   8.149  0.00  0.00     0.011 A 
HETATM    3  C   UNK N   1      31.047  18.021   8.814  0.00  0.00     0.019 A 
HETATM    4  C   UNK N   1      29.858  17.656   8.174  0.00  0.00     0.011 A 
HETATM    5 Br   UNK N   1      28.196  17.842   9.086  0.00  0.00    -0.051 Br
HETATM    6  C   UNK N   1      29.891  17.156   6.869  0.00  0.00     0.019 A 
HETATM    7  C   UNK N   1      31.113  17.022   6.204  0.00  0.00     0.011 A 
ENDROOT
BRANCH   1   8
HETATM    8  C   UNK N   1      33.634  17.256   6.160  0.00  0.00     0.202 C 
BRANCH   8   9
HETATM    9  O   UNK N   1      34.615  18.036   6.775  0.00  0.00    -0.396 OA
HETATM   10  H   UNK N   1      35.436  17.625   7.089  0.00  0.00     0.209 HD
ENDBRANCH   8   9
ENDBRANCH   1   8
TORSDOF 2
ENDMDL
MODEL 6
REMARK VINA RESULT:      -4.1      8.579      9.550
REMARK  2 active torsions:
REMARK  status: ('A' for Active; 'I' for Inactive)
REMARK    1  A    between atoms: O_1  and  C_2 
REMARK    2  A    between atoms: C_2  and  C_3 
ROOT
HETATM    1  C   UNK N   1      29.452  18.180   8.039  0.00  0.00    -0.035 A 
HETATM    2  C   UNK N   1      30.551  18.382   8.877  0.00  0.00     0.011 A 
HETATM    3  C   UNK N   1      31.813  17.911   8.510  0.00  0.00     0.019 A 
HETATM    4  C   UNK N   1      31.982  17.234   7.298  0.00  0.00     0.011 A 
HETATM    5 Br   UNK N   1      33.706  16.594   6.803  0.00  0.00    -0.051 Br
HETATM    6  C   UNK N   1      30.887  17.028   6.454  0.00  0.00     0.019 A 
HETATM    7  C   UNK N   1      29.624  17.500   6.822  0.00  0.00     0.011 A 
ENDROOT
BRANCH   1   8
HETATM    8  C   UNK N   1      28.112  18.698   8.462  0.00  0.00     0.202 C 
BRANCH   8   9
HETATM    9  O   UNK N   1      27.539  17.903   9.457  0.00  0.00    -0.396 OA
HETATM   10  H   UNK N   1      26.579  17.913   9.593  0.00  0.00     0.209 HD
ENDBRANCH   8   9
ENDBRANCH   1   8
TORSDOF 2
ENDMDL
MODEL 7
REMARK VINA RESULT:      -4.1      9.835     11.134
REMARK  2 active torsions:
REMARK  status: ('A' for Active; 'I' for Inactive)
REMARK    1  A    between atoms: O_1  and  C_2 
REMARK    2  A    between atoms: C_2  and  C_3 
ROOT
HETATM    1  C   UNK N   1      20.886  19.946   2.217  0.00  0.00    -0.035 A 
HETATM    2  C   UNK N   1      19.919  18.950   2.383  0.00  0.00     0.011 A 
HETATM    3  C   UNK N   1      20.102  17.942   3.332  0.00  0.00     0.019 A 
HETATM    4  C   UNK N   1      21.256  17.925   4.121  0.00  0.00     0.011 A 
HETATM    5 Br   UNK N   1      21.499  16.547   5.413  0.00  0.00    -0.051 Br
HETATM    6  C   UNK N   1      22.227  18.917   3.960  0.00  0.00     0.019 A 
HETATM    7  C   UNK N   1      22.044  19.926   3.011  0.00  0.00     0.011 A 
ENDROOT
BRANCH   1   8
HETATM    8  C   UNK N   1      20.659  21.012   1.191  0.00  0.00     0.202 C 
BRANCH   8   9
HETATM    9  O   UNK N   1      20.601  20.486  -0.101  0.00  0.00    -0.396 OA
HETATM   10  H   UNK N   1      21.419  20.314  -0.593  0.00  0.00     0.209 HD
ENDBRANCH   8   9
ENDBRANCH   1   8
TORSDOF 2
ENDMDL
MODEL 8
REMARK VINA RESULT:      -4.0     14.181     14.439
REMARK  2 active torsions:
REMARK  status: ('A' for Active; 'I' for Inactive)
REMARK    1  A    between atoms: O_1  and  C_2 
REMARK    2  A    between atoms: C_2  and  C_3 
ROOT
HETATM    1  C   UNK N   1      36.273  13.092  15.798  0.00  0.00    -0.035 A 
HETATM    2  C   UNK N   1      35.528  13.363  16.948  0.00  0.00     0.011 A 
HETATM    3  C   UNK N   1      35.074  12.319  17.756  0.00  0.00     0.019 A 
HETATM    4  C   UNK N   1      35.364  10.994  17.417  0.00  0.00     0.011 A 
HETATM    5 Br   UNK N   1      34.742   9.574  18.523  0.00  0.00    -0.051 Br
HETATM    6  C   UNK N   1      36.110  10.715  16.267  0.00  0.00     0.019 A 
HETATM    7  C   UNK N   1      36.564  11.760  15.459  0.00  0.00     0.011 A 
ENDROOT
BRANCH   1   8
HETATM    8  C   UNK N   1      36.745  14.234  14.953  0.00  0.00     0.202 C 
BRANCH   8   9
HETATM    9  O   UNK N   1      37.685  15.020  15.622  0.00  0.00    -0.396 OA
HETATM   10  H   UNK N   1      37.515  15.314  16.531  0.00  0.00     0.209 HD
ENDBRANCH   8   9
ENDBRANCH   1   8
TORSDOF 2
ENDMDL
MODEL 9
REMARK VINA RESULT:      -4.0     14.044     14.613
REMARK  2 active torsions:
REMARK  status: ('A' for Active; 'I' for Inactive)
REMARK    1  A    between atoms: O_1  and  C_2 
REMARK    2  A    between atoms: C_2  and  C_3 
ROOT
HETATM    1  C   UNK N   1      35.725  12.829  16.278  0.00  0.00    -0.035 A 
HETATM    2  C   UNK N   1      35.970  11.457  16.378  0.00  0.00     0.011 A 
HETATM    3  C   UNK N   1      35.784  10.794  17.593  0.00  0.00     0.019 A 
HETATM    4  C   UNK N   1      35.349  11.503  18.717  0.00  0.00     0.011 A 
HETATM    5 Br   UNK N   1      35.097  10.593  20.371  0.00  0.00    -0.051 Br
HETATM    6  C   UNK N   1      35.102  12.876  18.625  0.00  0.00     0.019 A 
HETATM    7  C   UNK N   1      35.289  13.539  17.409  0.00  0.00     0.011 A 
ENDROOT
BRANCH   1   8
HETATM    8  C   UNK N   1      35.935  13.509  14.961  0.00  0.00     0.202 C 
BRANCH   8   9
HETATM    9  O   UNK N   1      37.217  14.053  14.856  0.00  0.00    -0.396 OA
HETATM   10  H   UNK N   1      37.995  13.474  14.896  0.00  0.00     0.209 HD
ENDBRANCH   8   9
ENDBRANCH   1   8
TORSDOF 2
ENDMDL
