MODEL 1
REMARK VINA RESULT:      -6.9      0.000      0.000
REMARK  12 active torsions:
REMARK  status: ('A' for Active; 'I' for Inactive)
REMARK    1  A    between atoms: C_3  and  O_2 
REMARK    2  A    between atoms: C_4  and  O_20 
REMARK    3  A    between atoms: C_10  and  C_11 
REMARK    4  A    between atoms: C_14  and  C_15 
REMARK    5  A    between atoms: C_15  and  C_16 
REMARK    6  A    between atoms: O_20  and  C_21 
REMARK    7  A    between atoms: C_21  and  C_23 
REMARK    8  A    between atoms: C_24  and  C_25 
REMARK    9  A    between atoms: C_26  and  C_27 
REMARK   10  A    between atoms: C_28  and  C_29 
REMARK   11  A    between atoms: C_30  and  C_31 
REMARK   12  A    between atoms: C_31  and  O_32 
ROOT
HETATM    1  C   UNK N   1      20.570  17.444   3.399  0.00  0.00     0.160 C 
HETATM    2  C   UNK N   1      21.347  18.608   4.007  0.00  0.00     0.161 C 
HETATM    3  C   UNK N   1      21.879  18.200   5.393  0.00  0.00     0.038 C 
HETATM    4  C   UNK N   1      22.874  17.039   5.301  0.00  0.00     0.043 C 
HETATM    5  C   UNK N   1      22.311  15.917   4.437  0.00  0.00     0.091 A 
HETATM    6  C   UNK N   1      22.939  14.595   4.576  0.00  0.00     0.207 A 
HETATM    7  O   UNK N   1      21.699  14.909   5.192  0.00  0.00    -0.374 OA
HETATM    8  C   UNK N   1      21.565  16.302   3.142  0.00  0.00     0.091 C 
ENDROOT
BRANCH   2   9
HETATM    9  O   UNK N   1      22.391  18.927   3.156  0.00  0.00    -0.310 OA
BRANCH   9  10
HETATM   10  C   UNK N   1      23.162  20.039   3.227  0.00  0.00     0.283 C 
HETATM   11  O   UNK N   1      22.667  21.116   2.951  0.00  0.00    -0.260 OA
BRANCH  10  12
HETATM   12  C   UNK N   1      24.579  19.996   3.610  0.00  0.00     0.082 C 
HETATM   13  C   UNK N   1      25.573  20.472   2.861  0.00  0.00     0.006 C 
BRANCH  13  14
HETATM   14  C   UNK N   1      26.890  20.460   3.462  0.00  0.00     0.000 C 
HETATM   15  C   UNK N   1      27.139  19.587   4.439  0.00  0.00     0.000 C 
BRANCH  15  16
HETATM   16  C   UNK N   1      28.528  19.221   4.752  0.00  0.00     0.000 C 
HETATM   17  C   UNK N   1      28.802  18.069   5.387  0.00  0.00     0.000 C 
BRANCH  17  18
HETATM   18  C   UNK N   1      27.714  17.190   5.888  0.00  0.00     0.007 C 
HETATM   19  C   UNK N   1      27.462  16.964   7.182  0.00  0.00     0.081 C 
BRANCH  19  20
HETATM   20  C   UNK N   1      28.179  17.602   8.300  0.00  0.00     0.165 C 
HETATM   21  O   UNK N   1      29.291  17.223   8.633  0.00  0.00    -0.647 OA
BRANCH  20  22
HETATM   22  O   UNK N   1      27.600  18.621   8.958  0.00  0.00    -0.773 OA
HETATM   23  H   UNK N   1      27.542  18.934   9.839  0.00  0.00     0.167 HD
ENDBRANCH  20  22
ENDBRANCH  19  20
ENDBRANCH  17  18
ENDBRANCH  15  16
ENDBRANCH  13  14
ENDBRANCH  10  12
ENDBRANCH   9  10
ENDBRANCH   2   9
BRANCH   1  24
HETATM   24  O   UNK N   1      19.978  17.870   2.205  0.00  0.00    -0.388 OA
HETATM   25  C   UNK N   1      19.145  18.929   2.576  0.00  0.00     0.202 C 
ENDBRANCH   1  24
BRANCH   8  26
HETATM   26  C   UNK N   1      21.114  15.210   2.163  0.00  0.00     0.093 A 
HETATM   27  C   UNK N   1      19.785  14.523   2.441  0.00  0.00     0.049 C 
HETATM   28  O   UNK N   1      21.136  15.667   0.830  0.00  0.00    -0.369 OA
HETATM   29  C   UNK N   1      22.089  14.692   1.155  0.00  0.00     0.160 A 
BRANCH  29  30
HETATM   30  C   UNK N   1      21.681  13.351   0.567  0.00  0.00     0.062 C 
BRANCH  30  31
HETATM   31  C   UNK N   1      22.900  12.568   0.193  0.00  0.00    -0.022 C 
HETATM   32  C   UNK N   1      23.423  11.630   0.987  0.00  0.00    -0.091 C 
HETATM   33  C   UNK N   1      24.638  10.898   0.537  0.00  0.00     0.042 C 
HETATM   34  C   UNK N   1      22.833  11.311   2.323  0.00  0.00     0.042 C 
ENDBRANCH  30  31
ENDBRANCH  29  30
ENDBRANCH   8  26
TORSDOF 12
ENDMDL
MODEL 2
REMARK VINA RESULT:      -6.9      3.327      5.810
REMARK  12 active torsions:
REMARK  status: ('A' for Active; 'I' for Inactive)
REMARK    1  A    between atoms: C_3  and  O_2 
REMARK    2  A    between atoms: C_4  and  O_20 
REMARK    3  A    between atoms: C_10  and  C_11 
REMARK    4  A    between atoms: C_14  and  C_15 
REMARK    5  A    between atoms: C_15  and  C_16 
REMARK    6  A    between atoms: O_20  and  C_21 
REMARK    7  A    between atoms: C_21  and  C_23 
REMARK    8  A    between atoms: C_24  and  C_25 
REMARK    9  A    between atoms: C_26  and  C_27 
REMARK   10  A    between atoms: C_28  and  C_29 
REMARK   11  A    between atoms: C_30  and  C_31 
REMARK   12  A    between atoms: C_31  and  O_32 
ROOT
HETATM    1  C   UNK N   1      24.676  18.012   3.700  0.00  0.00     0.160 C 
HETATM    2  C   UNK N   1      25.588  19.235   3.657  0.00  0.00     0.161 C 
HETATM    3  C   UNK N   1      25.030  20.254   2.647  0.00  0.00     0.038 C 
HETATM    4  C   UNK N   1      23.654  20.777   3.069  0.00  0.00     0.043 C 
HETATM    5  C   UNK N   1      22.732  19.621   3.440  0.00  0.00     0.091 A 
HETATM    6  C   UNK N   1      21.289  19.907   3.469  0.00  0.00     0.207 A 
HETATM    7  O   UNK N   1      21.902  19.230   2.383  0.00  0.00    -0.374 OA
HETATM    8  C   UNK N   1      23.321  18.460   4.267  0.00  0.00     0.091 C 
ENDROOT
BRANCH   2   9
HETATM    9  O   UNK N   1      25.642  19.782   4.928  0.00  0.00    -0.310 OA
BRANCH   9  10
HETATM   10  C   UNK N   1      26.768  20.129   5.596  0.00  0.00     0.283 C 
HETATM   11  O   UNK N   1      27.123  21.293   5.586  0.00  0.00    -0.260 OA
BRANCH  10  12
HETATM   12  C   UNK N   1      27.590  19.152   6.322  0.00  0.00     0.082 C 
HETATM   13  C   UNK N   1      28.377  18.251   5.736  0.00  0.00     0.006 C 
BRANCH  13  14
HETATM   14  C   UNK N   1      29.212  17.461   6.615  0.00  0.00     0.000 C 
HETATM   15  C   UNK N   1      30.157  18.079   7.325  0.00  0.00     0.000 C 
BRANCH  15  16
HETATM   16  C   UNK N   1      30.700  17.435   8.531  0.00  0.00     0.000 C 
HETATM   17  C   UNK N   1      31.961  16.970   8.545  0.00  0.00     0.000 C 
BRANCH  17  18
HETATM   18  C   UNK N   1      32.802  16.988   7.321  0.00  0.00     0.007 C 
HETATM   19  C   UNK N   1      34.019  17.538   7.248  0.00  0.00     0.081 C 
BRANCH  19  20
HETATM   20  C   UNK N   1      34.732  18.148   8.385  0.00  0.00     0.165 C 
HETATM   21  O   UNK N   1      34.963  19.346   8.414  0.00  0.00    -0.647 OA
BRANCH  20  22
HETATM   22  O   UNK N   1      35.127  17.370   9.407  0.00  0.00    -0.773 OA
HETATM   23  H   UNK N   1      35.928  17.014   9.740  0.00  0.00     0.167 HD
ENDBRANCH  20  22
ENDBRANCH  19  20
ENDBRANCH  17  18
ENDBRANCH  15  16
ENDBRANCH  13  14
ENDBRANCH  10  12
ENDBRANCH   9  10
ENDBRANCH   2   9
BRANCH   1  24
HETATM   24  O   UNK N   1      25.264  17.038   4.515  0.00  0.00    -0.388 OA
HETATM   25  C   UNK N   1      25.719  16.058   3.630  0.00  0.00     0.202 C 
ENDBRANCH   1  24
BRANCH   8  26
HETATM   26  C   UNK N   1      22.401  17.350   4.795  0.00  0.00     0.093 A 
HETATM   27  C   UNK N   1      22.022  16.234   3.833  0.00  0.00     0.049 C 
HETATM   28  O   UNK N   1      22.896  16.790   5.991  0.00  0.00    -0.369 OA
HETATM   29  C   UNK N   1      21.718  17.540   6.112  0.00  0.00     0.160 A 
BRANCH  29  30
HETATM   30  C   UNK N   1      20.530  16.612   6.305  0.00  0.00     0.062 C 
BRANCH  30  31
HETATM   31  C   UNK N   1      20.850  15.587   7.347  0.00  0.00    -0.022 C 
HETATM   32  C   UNK N   1      20.239  15.555   8.534  0.00  0.00    -0.091 C 
HETATM   33  C   UNK N   1      20.618  14.501   9.514  0.00  0.00     0.042 C 
HETATM   34  C   UNK N   1      19.201  16.563   8.913  0.00  0.00     0.042 C 
ENDBRANCH  30  31
ENDBRANCH  29  30
ENDBRANCH   8  26
TORSDOF 12
ENDMDL
MODEL 3
REMARK VINA RESULT:      -6.8     10.977     16.436
REMARK  12 active torsions:
REMARK  status: ('A' for Active; 'I' for Inactive)
REMARK    1  A    between atoms: C_3  and  O_2 
REMARK    2  A    between atoms: C_4  and  O_20 
REMARK    3  A    between atoms: C_10  and  C_11 
REMARK    4  A    between atoms: C_14  and  C_15 
REMARK    5  A    between atoms: C_15  and  C_16 
REMARK    6  A    between atoms: O_20  and  C_21 
REMARK    7  A    between atoms: C_21  and  C_23 
REMARK    8  A    between atoms: C_24  and  C_25 
REMARK    9  A    between atoms: C_26  and  C_27 
REMARK   10  A    between atoms: C_28  and  C_29 
REMARK   11  A    between atoms: C_30  and  C_31 
REMARK   12  A    between atoms: C_31  and  O_32 
ROOT
HETATM    1  C   UNK N   1      36.385  13.274  12.346  0.00  0.00     0.160 C 
HETATM    2  C   UNK N   1      36.243  12.512  11.032  0.00  0.00     0.161 C 
HETATM    3  C   UNK N   1      37.400  11.504  10.896  0.00  0.00     0.038 C 
HETATM    4  C   UNK N   1      37.360  10.442  11.999  0.00  0.00     0.043 C 
HETATM    5  C   UNK N   1      37.190  11.094  13.366  0.00  0.00     0.091 A 
HETATM    6  C   UNK N   1      37.537  10.276  14.538  0.00  0.00     0.207 A 
HETATM    7  O   UNK N   1      38.407  11.278  14.033  0.00  0.00    -0.374 OA
HETATM    8  C   UNK N   1      36.197  12.268  13.492  0.00  0.00     0.091 C 
ENDROOT
BRANCH   2   9
HETATM    9  O   UNK N   1      35.022  11.859  11.037  0.00  0.00    -0.310 OA
BRANCH   9  10
HETATM   10  C   UNK N   1      34.277  11.561   9.946  0.00  0.00     0.283 C 
HETATM   11  O   UNK N   1      33.497  10.628  10.004  0.00  0.00    -0.260 OA
BRANCH  10  12
HETATM   12  C   UNK N   1      34.381  12.310   8.688  0.00  0.00     0.082 C 
HETATM   13  C   UNK N   1      33.697  13.422   8.418  0.00  0.00     0.006 C 
BRANCH  13  14
HETATM   14  C   UNK N   1      34.029  14.094   7.179  0.00  0.00     0.000 C 
HETATM   15  C   UNK N   1      33.121  14.900   6.626  0.00  0.00     0.000 C 
BRANCH  15  16
HETATM   16  C   UNK N   1      33.549  15.927   5.666  0.00  0.00     0.000 C 
HETATM   17  C   UNK N   1      33.342  17.230   5.924  0.00  0.00     0.000 C 
BRANCH  17  18
HETATM   18  C   UNK N   1      32.580  17.664   7.124  0.00  0.00     0.007 C 
HETATM   19  C   UNK N   1      33.139  17.995   8.294  0.00  0.00     0.081 C 
BRANCH  19  20
HETATM   20  C   UNK N   1      34.590  18.042   8.546  0.00  0.00     0.165 C 
HETATM   21  O   UNK N   1      35.204  17.041   8.877  0.00  0.00    -0.647 OA
BRANCH  20  22
HETATM   22  O   UNK N   1      35.246  19.207   8.403  0.00  0.00    -0.773 OA
HETATM   23  H   UNK N   1      35.914  19.687   8.851  0.00  0.00     0.167 HD
ENDBRANCH  20  22
ENDBRANCH  19  20
ENDBRANCH  17  18
ENDBRANCH  15  16
ENDBRANCH  13  14
ENDBRANCH  10  12
ENDBRANCH   9  10
ENDBRANCH   2   9
BRANCH   1  24
HETATM   24  O   UNK N   1      35.412  14.278  12.395  0.00  0.00    -0.388 OA
HETATM   25  C   UNK N   1      36.034  15.407  11.856  0.00  0.00     0.202 C 
ENDBRANCH   1  24
BRANCH   8  26
HETATM   26  C   UNK N   1      35.876  12.858  14.872  0.00  0.00     0.093 A 
HETATM   27  C   UNK N   1      36.753  13.997  15.371  0.00  0.00     0.049 C 
HETATM   28  O   UNK N   1      34.521  13.230  14.976  0.00  0.00    -0.369 OA
HETATM   29  C   UNK N   1      34.914  12.138  15.762  0.00  0.00     0.160 A 
BRANCH  29  30
HETATM   30  C   UNK N   1      35.021  12.560  17.219  0.00  0.00     0.062 C 
BRANCH  30  31
HETATM   31  C   UNK N   1      35.460  11.398  18.053  0.00  0.00    -0.022 C 
HETATM   32  C   UNK N   1      35.426  11.419  19.388  0.00  0.00    -0.091 C 
HETATM   33  C   UNK N   1      35.882  10.219  20.141  0.00  0.00     0.042 C 
HETATM   34  C   UNK N   1      34.966  12.624  20.145  0.00  0.00     0.042 C 
ENDBRANCH  30  31
ENDBRANCH  29  30
ENDBRANCH   8  26
TORSDOF 12
ENDMDL
MODEL 4
REMARK VINA RESULT:      -6.8     10.228     15.918
REMARK  12 active torsions:
REMARK  status: ('A' for Active; 'I' for Inactive)
REMARK    1  A    between atoms: C_3  and  O_2 
REMARK    2  A    between atoms: C_4  and  O_20 
REMARK    3  A    between atoms: C_10  and  C_11 
REMARK    4  A    between atoms: C_14  and  C_15 
REMARK    5  A    between atoms: C_15  and  C_16 
REMARK    6  A    between atoms: O_20  and  C_21 
REMARK    7  A    between atoms: C_21  and  C_23 
REMARK    8  A    between atoms: C_24  and  C_25 
REMARK    9  A    between atoms: C_26  and  C_27 
REMARK   10  A    between atoms: C_28  and  C_29 
REMARK   11  A    between atoms: C_30  and  C_31 
REMARK   12  A    between atoms: C_31  and  O_32 
ROOT
HETATM    1  C   UNK N   1      35.350  12.771  10.501  0.00  0.00     0.160 C 
HETATM    2  C   UNK N   1      35.715  12.395  11.934  0.00  0.00     0.161 C 
HETATM    3  C   UNK N   1      36.766  13.384  12.471  0.00  0.00     0.038 C 
HETATM    4  C   UNK N   1      36.218  14.813  12.542  0.00  0.00     0.043 C 
HETATM    5  C   UNK N   1      35.540  15.194  11.231  0.00  0.00     0.091 A 
HETATM    6  C   UNK N   1      35.331  16.629  10.986  0.00  0.00     0.207 A 
HETATM    7  O   UNK N   1      36.387  15.906  10.372  0.00  0.00    -0.374 OA
HETATM    8  C   UNK N   1      34.652  14.138  10.539  0.00  0.00     0.091 C 
ENDROOT
BRANCH   2   9
HETATM    9  O   UNK N   1      34.564  12.439  12.701  0.00  0.00    -0.310 OA
BRANCH   9  10
HETATM   10  C   UNK N   1      34.232  11.568  13.685  0.00  0.00     0.283 C 
HETATM   11  O   UNK N   1      33.785  10.478  13.379  0.00  0.00    -0.260 OA
BRANCH  10  12
HETATM   12  C   UNK N   1      34.376  11.892  15.110  0.00  0.00     0.082 C 
HETATM   13  C   UNK N   1      35.007  12.970  15.574  0.00  0.00     0.006 C 
BRANCH  13  14
HETATM   14  C   UNK N   1      34.934  13.190  17.003  0.00  0.00     0.000 C 
HETATM   15  C   UNK N   1      35.063  12.142  17.818  0.00  0.00     0.000 C 
BRANCH  15  16
HETATM   16  C   UNK N   1      35.450  12.355  19.220  0.00  0.00     0.000 C 
HETATM   17  C   UNK N   1      35.249  11.392  20.136  0.00  0.00     0.000 C 
BRANCH  17  18
HETATM   18  C   UNK N   1      34.532  10.137  19.788  0.00  0.00     0.007 C 
HETATM   19  C   UNK N   1      33.705   9.486  20.613  0.00  0.00     0.081 C 
BRANCH  19  20
HETATM   20  C   UNK N   1      33.331   9.948  21.961  0.00  0.00     0.165 C 
HETATM   21  O   UNK N   1      33.963   9.596  22.945  0.00  0.00    -0.647 OA
BRANCH  20  22
HETATM   22  O   UNK N   1      32.281  10.774  22.106  0.00  0.00    -0.773 OA
HETATM   23  H   UNK N   1      31.993  11.598  21.764  0.00  0.00     0.167 HD
ENDBRANCH  20  22
ENDBRANCH  19  20
ENDBRANCH  17  18
ENDBRANCH  15  16
ENDBRANCH  13  14
ENDBRANCH  10  12
ENDBRANCH   9  10
ENDBRANCH   2   9
BRANCH   1  24
HETATM   24  O   UNK N   1      34.501  11.789   9.978  0.00  0.00    -0.388 OA
HETATM   25  C   UNK N   1      35.302  10.651   9.854  0.00  0.00     0.202 C 
ENDBRANCH   1  24
BRANCH   8  26
HETATM   26  C   UNK N   1      33.829  14.521   9.302  0.00  0.00     0.093 A 
HETATM   27  C   UNK N   1      34.535  14.501   7.954  0.00  0.00     0.049 C 
HETATM   28  O   UNK N   1      32.639  13.770   9.217  0.00  0.00    -0.369 OA
HETATM   29  C   UNK N   1      32.479  15.135   9.491  0.00  0.00     0.160 A 
BRANCH  29  30
HETATM   30  C   UNK N   1      31.975  15.857   8.251  0.00  0.00     0.062 C 
BRANCH  30  31
HETATM   31  C   UNK N   1      30.950  16.875   8.637  0.00  0.00    -0.022 C 
HETATM   32  C   UNK N   1      30.096  17.405   7.757  0.00  0.00    -0.091 C 
HETATM   33  C   UNK N   1      29.107  18.413   8.226  0.00  0.00     0.042 C 
HETATM   34  C   UNK N   1      30.124  17.029   6.310  0.00  0.00     0.042 C 
ENDBRANCH  30  31
ENDBRANCH  29  30
ENDBRANCH   8  26
TORSDOF 12
ENDMDL
MODEL 5
REMARK VINA RESULT:      -6.8      2.628      5.310
REMARK  12 active torsions:
REMARK  status: ('A' for Active; 'I' for Inactive)
REMARK    1  A    between atoms: C_3  and  O_2 
REMARK    2  A    between atoms: C_4  and  O_20 
REMARK    3  A    between atoms: C_10  and  C_11 
REMARK    4  A    between atoms: C_14  and  C_15 
REMARK    5  A    between atoms: C_15  and  C_16 
REMARK    6  A    between atoms: O_20  and  C_21 
REMARK    7  A    between atoms: C_21  and  C_23 
REMARK    8  A    between atoms: C_24  and  C_25 
REMARK    9  A    between atoms: C_26  and  C_27 
REMARK   10  A    between atoms: C_28  and  C_29 
REMARK   11  A    between atoms: C_30  and  C_31 
REMARK   12  A    between atoms: C_31  and  O_32 
ROOT
HETATM    1  C   UNK N   1      24.834  17.672   3.476  0.00  0.00     0.160 C 
HETATM    2  C   UNK N   1      25.750  18.892   3.515  0.00  0.00     0.161 C 
HETATM    3  C   UNK N   1      25.101  20.045   2.726  0.00  0.00     0.038 C 
HETATM    4  C   UNK N   1      23.781  20.495   3.360  0.00  0.00     0.043 C 
HETATM    5  C   UNK N   1      22.890  19.294   3.656  0.00  0.00     0.091 A 
HETATM    6  C   UNK N   1      21.462  19.567   3.876  0.00  0.00     0.207 A 
HETATM    7  O   UNK N   1      21.951  19.056   2.645  0.00  0.00    -0.374 OA
HETATM    8  C   UNK N   1      23.550  18.028   4.241  0.00  0.00     0.091 C 
ENDROOT
BRANCH   2   9
HETATM    9  O   UNK N   1      25.941  19.250   4.839  0.00  0.00    -0.310 OA
BRANCH   9  10
HETATM   10  C   UNK N   1      27.121  19.602   5.403  0.00  0.00     0.283 C 
HETATM   11  O   UNK N   1      27.443  20.776   5.410  0.00  0.00    -0.260 OA
BRANCH  10  12
HETATM   12  C   UNK N   1      28.038  18.621   5.997  0.00  0.00     0.082 C 
HETATM   13  C   UNK N   1      28.421  17.494   5.397  0.00  0.00     0.006 C 
BRANCH  13  14
HETATM   14  C   UNK N   1      29.432  16.716   6.082  0.00  0.00     0.000 C 
HETATM   15  C   UNK N   1      30.631  17.264   6.286  0.00  0.00     0.000 C 
BRANCH  15  16
HETATM   16  C   UNK N   1      31.506  16.729   7.339  0.00  0.00     0.000 C 
HETATM   17  C   UNK N   1      31.520  17.286   8.562  0.00  0.00     0.000 C 
BRANCH  17  18
HETATM   18  C   UNK N   1      30.743  18.518   8.854  0.00  0.00     0.007 C 
HETATM   19  C   UNK N   1      29.550  18.534   9.458  0.00  0.00     0.081 C 
BRANCH  19  20
HETATM   20  C   UNK N   1      28.859  17.341   9.980  0.00  0.00     0.165 C 
HETATM   21  O   UNK N   1      27.769  17.005   9.548  0.00  0.00    -0.647 OA
BRANCH  20  22
HETATM   22  O   UNK N   1      29.446  16.610  10.944  0.00  0.00    -0.773 OA
HETATM   23  H   UNK N   1      29.572  15.704  11.148  0.00  0.00     0.167 HD
ENDBRANCH  20  22
ENDBRANCH  19  20
ENDBRANCH  17  18
ENDBRANCH  15  16
ENDBRANCH  13  14
ENDBRANCH  10  12
ENDBRANCH   9  10
ENDBRANCH   2   9
BRANCH   1  24
HETATM   24  O   UNK N   1      25.492  16.593   4.077  0.00  0.00    -0.388 OA
HETATM   25  C   UNK N   1      26.118  15.924   3.023  0.00  0.00     0.202 C 
ENDBRANCH   1  24
BRANCH   8  26
HETATM   26  C   UNK N   1      22.677  16.850   4.697  0.00  0.00     0.093 A 
HETATM   27  C   UNK N   1      22.186  15.885   3.628  0.00  0.00     0.049 C 
HETATM   28  O   UNK N   1      23.289  16.124   5.738  0.00  0.00    -0.369 OA
HETATM   29  C   UNK N   1      22.140  16.844   6.092  0.00  0.00     0.160 A 
BRANCH  29  30
HETATM   30  C   UNK N   1      20.968  15.892   6.273  0.00  0.00     0.062 C 
BRANCH  30  31
HETATM   31  C   UNK N   1      21.217  14.997   7.445  0.00  0.00    -0.022 C 
HETATM   32  C   UNK N   1      20.561  15.128   8.601  0.00  0.00    -0.091 C 
HETATM   33  C   UNK N   1      20.871  14.193   9.717  0.00  0.00     0.042 C 
HETATM   34  C   UNK N   1      19.542  16.202   8.811  0.00  0.00     0.042 C 
ENDBRANCH  30  31
ENDBRANCH  29  30
ENDBRANCH   8  26
TORSDOF 12
ENDMDL
MODEL 6
REMARK VINA RESULT:      -6.7     10.247     16.012
REMARK  12 active torsions:
REMARK  status: ('A' for Active; 'I' for Inactive)
REMARK    1  A    between atoms: C_3  and  O_2 
REMARK    2  A    between atoms: C_4  and  O_20 
REMARK    3  A    between atoms: C_10  and  C_11 
REMARK    4  A    between atoms: C_14  and  C_15 
REMARK    5  A    between atoms: C_15  and  C_16 
REMARK    6  A    between atoms: O_20  and  C_21 
REMARK    7  A    between atoms: C_21  and  C_23 
REMARK    8  A    between atoms: C_24  and  C_25 
REMARK    9  A    between atoms: C_26  and  C_27 
REMARK   10  A    between atoms: C_28  and  C_29 
REMARK   11  A    between atoms: C_30  and  C_31 
REMARK   12  A    between atoms: C_31  and  O_32 
ROOT
HETATM    1  C   UNK N   1      35.531  12.600  10.649  0.00  0.00     0.160 C 
HETATM    2  C   UNK N   1      35.811  12.294  12.117  0.00  0.00     0.161 C 
HETATM    3  C   UNK N   1      36.788  13.342  12.681  0.00  0.00     0.038 C 
HETATM    4  C   UNK N   1      36.187  14.751  12.657  0.00  0.00     0.043 C 
HETATM    5  C   UNK N   1      35.586  15.055  11.289  0.00  0.00     0.091 A 
HETATM    6  C   UNK N   1      35.343  16.470  10.972  0.00  0.00     0.207 A 
HETATM    7  O   UNK N   1      36.462  15.764  10.460  0.00  0.00    -0.374 OA
HETATM    8  C   UNK N   1      34.784  13.941  10.585  0.00  0.00     0.091 C 
ENDROOT
BRANCH   2   9
HETATM    9  O   UNK N   1      34.610  12.324  12.805  0.00  0.00    -0.310 OA
BRANCH   9  10
HETATM   10  C   UNK N   1      34.321  11.623  13.927  0.00  0.00     0.283 C 
HETATM   11  O   UNK N   1      33.450  10.773  13.882  0.00  0.00    -0.260 OA
BRANCH  10  12
HETATM   12  C   UNK N   1      35.006  11.856  15.205  0.00  0.00     0.082 C 
HETATM   13  C   UNK N   1      35.022  13.025  15.845  0.00  0.00     0.006 C 
BRANCH  13  14
HETATM   14  C   UNK N   1      35.638  13.029  17.155  0.00  0.00     0.000 C 
HETATM   15  C   UNK N   1      34.870  12.804  18.222  0.00  0.00     0.000 C 
BRANCH  15  16
HETATM   16  C   UNK N   1      35.484  12.350  19.478  0.00  0.00     0.000 C 
HETATM   17  C   UNK N   1      35.427  11.056  19.836  0.00  0.00     0.000 C 
BRANCH  17  18
HETATM   18  C   UNK N   1      34.651  10.071  19.038  0.00  0.00     0.007 C 
HETATM   19  C   UNK N   1      35.184   9.249  18.129  0.00  0.00     0.081 C 
BRANCH  19  20
HETATM   20  C   UNK N   1      36.624   9.150  17.829  0.00  0.00     0.165 C 
HETATM   21  O   UNK N   1      37.378   8.528  18.560  0.00  0.00    -0.647 OA
BRANCH  20  22
HETATM   22  O   UNK N   1      37.110   9.751  16.729  0.00  0.00    -0.773 OA
HETATM   23  H   UNK N   1      36.853   9.877  15.837  0.00  0.00     0.167 HD
ENDBRANCH  20  22
ENDBRANCH  19  20
ENDBRANCH  17  18
ENDBRANCH  15  16
ENDBRANCH  13  14
ENDBRANCH  10  12
ENDBRANCH   9  10
ENDBRANCH   2   9
BRANCH   1  24
HETATM   24  O   UNK N   1      34.754  11.567  10.112  0.00  0.00    -0.388 OA
HETATM   25  C   UNK N   1      35.634  10.836   9.311  0.00  0.00     0.202 C 
ENDBRANCH   1  24
BRANCH   8  26
HETATM   26  C   UNK N   1      34.033  14.243   9.282  0.00  0.00     0.093 A 
HETATM   27  C   UNK N   1      34.852  14.327   8.002  0.00  0.00     0.049 C 
HETATM   28  O   UNK N   1      32.951  13.360   9.088  0.00  0.00    -0.369 OA
HETATM   29  C   UNK N   1      32.609  14.693   9.353  0.00  0.00     0.160 A 
BRANCH  29  30
HETATM   30  C   UNK N   1      32.134  15.370   8.077  0.00  0.00     0.062 C 
BRANCH  30  31
HETATM   31  C   UNK N   1      31.183  16.475   8.411  0.00  0.00    -0.022 C 
HETATM   32  C   UNK N   1      31.561  17.754   8.472  0.00  0.00    -0.091 C 
HETATM   33  C   UNK N   1      30.548  18.792   8.812  0.00  0.00     0.042 C 
HETATM   34  C   UNK N   1      32.977  18.169   8.229  0.00  0.00     0.042 C 
ENDBRANCH  30  31
ENDBRANCH  29  30
ENDBRANCH   8  26
TORSDOF 12
ENDMDL
MODEL 7
REMARK VINA RESULT:      -6.7      3.801      6.068
REMARK  12 active torsions:
REMARK  status: ('A' for Active; 'I' for Inactive)
REMARK    1  A    between atoms: C_3  and  O_2 
REMARK    2  A    between atoms: C_4  and  O_20 
REMARK    3  A    between atoms: C_10  and  C_11 
REMARK    4  A    between atoms: C_14  and  C_15 
REMARK    5  A    between atoms: C_15  and  C_16 
REMARK    6  A    between atoms: O_20  and  C_21 
REMARK    7  A    between atoms: C_21  and  C_23 
REMARK    8  A    between atoms: C_24  and  C_25 
REMARK    9  A    between atoms: C_26  and  C_27 
REMARK   10  A    between atoms: C_28  and  C_29 
REMARK   11  A    between atoms: C_30  and  C_31 
REMARK   12  A    between atoms: C_31  and  O_32 
ROOT
HETATM    1  C   UNK N   1      25.377  16.043   4.131  0.00  0.00     0.160 C 
HETATM    2  C   UNK N   1      26.250  17.294   4.150  0.00  0.00     0.161 C 
HETATM    3  C   UNK N   1      25.404  18.514   3.739  0.00  0.00     0.038 C 
HETATM    4  C   UNK N   1      24.271  18.782   4.734  0.00  0.00     0.043 C 
HETATM    5  C   UNK N   1      23.504  17.499   5.032  0.00  0.00     0.091 A 
HETATM    6  C   UNK N   1      22.168  17.649   5.628  0.00  0.00     0.207 A 
HETATM    7  O   UNK N   1      22.351  17.364   4.249  0.00  0.00    -0.374 OA
HETATM    8  C   UNK N   1      24.312  16.199   5.227  0.00  0.00     0.091 C 
ENDROOT
BRANCH   2   9
HETATM    9  O   UNK N   1      26.752  17.455   5.430  0.00  0.00    -0.310 OA
BRANCH   9  10
HETATM   10  C   UNK N   1      27.910  18.078   5.756  0.00  0.00     0.283 C 
HETATM   11  O   UNK N   1      27.860  19.173   6.283  0.00  0.00    -0.260 OA
BRANCH  10  12
HETATM   12  C   UNK N   1      29.228  17.489   5.485  0.00  0.00     0.082 C 
HETATM   13  C   UNK N   1      29.705  17.248   4.265  0.00  0.00     0.006 C 
BRANCH  13  14
HETATM   14  C   UNK N   1      31.076  16.788   4.192  0.00  0.00     0.000 C 
HETATM   15  C   UNK N   1      32.057  17.666   4.404  0.00  0.00     0.000 C 
BRANCH  15  16
HETATM   16  C   UNK N   1      33.392  17.187   4.791  0.00  0.00     0.000 C 
HETATM   17  C   UNK N   1      33.725  17.074   6.088  0.00  0.00     0.000 C 
BRANCH  17  18
HETATM   18  C   UNK N   1      32.805  17.531   7.161  0.00  0.00     0.007 C 
HETATM   19  C   UNK N   1      33.203  17.978   8.357  0.00  0.00     0.081 C 
BRANCH  19  20
HETATM   20  C   UNK N   1      34.609  18.145   8.765  0.00  0.00     0.165 C 
HETATM   21  O   UNK N   1      35.161  17.319   9.474  0.00  0.00    -0.647 OA
BRANCH  20  22
HETATM   22  O   UNK N   1      35.294  19.221   8.341  0.00  0.00    -0.773 OA
HETATM   23  H   UNK N   1      35.211  19.880   7.680  0.00  0.00     0.167 HD
ENDBRANCH  20  22
ENDBRANCH  19  20
ENDBRANCH  17  18
ENDBRANCH  15  16
ENDBRANCH  13  14
ENDBRANCH  10  12
ENDBRANCH   9  10
ENDBRANCH   2   9
BRANCH   1  24
HETATM   24  O   UNK N   1      26.184  14.925   4.371  0.00  0.00    -0.388 OA
HETATM   25  C   UNK N   1      26.902  14.740   3.188  0.00  0.00     0.202 C 
ENDBRANCH   1  24
BRANCH   8  26
HETATM   26  C   UNK N   1      23.602  14.915   5.678  0.00  0.00     0.093 A 
HETATM   27  C   UNK N   1      22.907  14.084   4.609  0.00  0.00     0.049 C 
HETATM   28  O   UNK N   1      24.457  14.086   6.432  0.00  0.00    -0.369 OA
HETATM   29  C   UNK N   1      23.399  14.674   7.139  0.00  0.00     0.160 A 
BRANCH  29  30
HETATM   30  C   UNK N   1      22.328  13.634   7.428  0.00  0.00     0.062 C 
BRANCH  30  31
HETATM   31  C   UNK N   1      22.636  12.929   8.710  0.00  0.00    -0.022 C 
HETATM   32  C   UNK N   1      21.871  13.050   9.798  0.00  0.00    -0.091 C 
HETATM   33  C   UNK N   1      22.251  12.312  11.034  0.00  0.00     0.042 C 
HETATM   34  C   UNK N   1      20.657  13.923   9.814  0.00  0.00     0.042 C 
ENDBRANCH  30  31
ENDBRANCH  29  30
ENDBRANCH   8  26
TORSDOF 12
ENDMDL
MODEL 8
REMARK VINA RESULT:      -6.6      9.000     14.882
REMARK  12 active torsions:
REMARK  status: ('A' for Active; 'I' for Inactive)
REMARK    1  A    between atoms: C_3  and  O_2 
REMARK    2  A    between atoms: C_4  and  O_20 
REMARK    3  A    between atoms: C_10  and  C_11 
REMARK    4  A    between atoms: C_14  and  C_15 
REMARK    5  A    between atoms: C_15  and  C_16 
REMARK    6  A    between atoms: O_20  and  C_21 
REMARK    7  A    between atoms: C_21  and  C_23 
REMARK    8  A    between atoms: C_24  and  C_25 
REMARK    9  A    between atoms: C_26  and  C_27 
REMARK   10  A    between atoms: C_28  and  C_29 
REMARK   11  A    between atoms: C_30  and  C_31 
REMARK   12  A    between atoms: C_31  and  O_32 
ROOT
HETATM    1  C   UNK N   1      36.559  13.539   9.737  0.00  0.00     0.160 C 
HETATM    2  C   UNK N   1      35.649  14.168   8.686  0.00  0.00     0.161 C 
HETATM    3  C   UNK N   1      34.799  13.070   8.021  0.00  0.00     0.038 C 
HETATM    4  C   UNK N   1      33.865  12.388   9.025  0.00  0.00     0.043 C 
HETATM    5  C   UNK N   1      34.630  11.983  10.280  0.00  0.00     0.091 A 
HETATM    6  C   UNK N   1      33.997  10.977  11.146  0.00  0.00     0.207 A 
HETATM    7  O   UNK N   1      35.047  10.647  10.251  0.00  0.00    -0.374 OA
HETATM    8  C   UNK N   1      35.665  12.975  10.851  0.00  0.00     0.091 C 
ENDROOT
BRANCH   2   9
HETATM    9  O   UNK N   1      34.841  15.101   9.312  0.00  0.00    -0.310 OA
BRANCH   9  10
HETATM   10  C   UNK N   1      34.733  16.410   8.978  0.00  0.00     0.283 C 
HETATM   11  O   UNK N   1      35.199  17.249   9.727  0.00  0.00    -0.260 OA
BRANCH  10  12
HETATM   12  C   UNK N   1      34.061  16.861   7.752  0.00  0.00     0.082 C 
HETATM   13  C   UNK N   1      32.788  16.601   7.456  0.00  0.00     0.006 C 
BRANCH  13  14
HETATM   14  C   UNK N   1      32.263  17.239   6.267  0.00  0.00     0.000 C 
HETATM   15  C   UNK N   1      33.094  17.480   5.252  0.00  0.00     0.000 C 
BRANCH  15  16
HETATM   16  C   UNK N   1      32.552  17.686   3.901  0.00  0.00     0.000 C 
HETATM   17  C   UNK N   1      32.683  16.734   2.962  0.00  0.00     0.000 C 
BRANCH  17  18
HETATM   18  C   UNK N   1      33.470  15.500   3.222  0.00  0.00     0.007 C 
HETATM   19  C   UNK N   1      32.943  14.339   3.625  0.00  0.00     0.081 C 
BRANCH  19  20
HETATM   20  C   UNK N   1      31.502  14.091   3.808  0.00  0.00     0.165 C 
HETATM   21  O   UNK N   1      30.972  14.235   4.898  0.00  0.00    -0.647 OA
BRANCH  20  22
HETATM   22  O   UNK N   1      30.761  13.708   2.754  0.00  0.00    -0.773 OA
HETATM   23  H   UNK N   1      30.877  13.583   1.832  0.00  0.00     0.167 HD
ENDBRANCH  20  22
ENDBRANCH  19  20
ENDBRANCH  17  18
ENDBRANCH  15  16
ENDBRANCH  13  14
ENDBRANCH  10  12
ENDBRANCH   9  10
ENDBRANCH   2   9
BRANCH   1  24
HETATM   24  O   UNK N   1      37.421  14.522  10.236  0.00  0.00    -0.388 OA
HETATM   25  C   UNK N   1      38.626  14.319   9.560  0.00  0.00     0.202 C 
ENDBRANCH   1  24
BRANCH   8  26
HETATM   26  C   UNK N   1      36.349  12.681  12.193  0.00  0.00     0.093 A 
HETATM   27  C   UNK N   1      37.556  11.755  12.179  0.00  0.00     0.049 C 
HETATM   28  O   UNK N   1      36.677  13.868  12.879  0.00  0.00    -0.369 OA
HETATM   29  C   UNK N   1      35.667  13.090  13.459  0.00  0.00     0.160 A 
BRANCH  29  30
HETATM   30  C   UNK N   1      36.206  12.369  14.685  0.00  0.00     0.062 C 
BRANCH  30  31
HETATM   31  C   UNK N   1      35.863  13.141  15.920  0.00  0.00    -0.022 C 
HETATM   32  C   UNK N   1      35.446  12.552  17.043  0.00  0.00    -0.091 C 
HETATM   33  C   UNK N   1      35.126  13.396  18.226  0.00  0.00     0.042 C 
HETATM   34  C   UNK N   1      35.272  11.069  17.136  0.00  0.00     0.042 C 
ENDBRANCH  30  31
ENDBRANCH  29  30
ENDBRANCH   8  26
TORSDOF 12
ENDMDL
MODEL 9
REMARK VINA RESULT:      -6.4     11.567     14.554
REMARK  12 active torsions:
REMARK  status: ('A' for Active; 'I' for Inactive)
REMARK    1  A    between atoms: C_3  and  O_2 
REMARK    2  A    between atoms: C_4  and  O_20 
REMARK    3  A    between atoms: C_10  and  C_11 
REMARK    4  A    between atoms: C_14  and  C_15 
REMARK    5  A    between atoms: C_15  and  C_16 
REMARK    6  A    between atoms: O_20  and  C_21 
REMARK    7  A    between atoms: C_21  and  C_23 
REMARK    8  A    between atoms: C_24  and  C_25 
REMARK    9  A    between atoms: C_26  and  C_27 
REMARK   10  A    between atoms: C_28  and  C_29 
REMARK   11  A    between atoms: C_30  and  C_31 
REMARK   12  A    between atoms: C_31  and  O_32 
ROOT
HETATM    1  C   UNK N   1      30.051  24.288  -5.283  0.00  0.00     0.160 C 
HETATM    2  C   UNK N   1      28.556  24.347  -5.585  0.00  0.00     0.161 C 
HETATM    3  C   UNK N   1      28.260  23.542  -6.864  0.00  0.00     0.038 C 
HETATM    4  C   UNK N   1      28.591  22.056  -6.689  0.00  0.00     0.043 C 
HETATM    5  C   UNK N   1      29.982  21.883  -6.089  0.00  0.00     0.091 A 
HETATM    6  C   UNK N   1      30.606  20.559  -6.234  0.00  0.00     0.207 A 
HETATM    7  O   UNK N   1      30.965  21.656  -7.060  0.00  0.00    -0.374 OA
HETATM    8  C   UNK N   1      30.403  22.831  -4.947  0.00  0.00     0.091 C 
ENDROOT
BRANCH   2   9
HETATM    9  O   UNK N   1      27.873  23.819  -4.504  0.00  0.00    -0.310 OA
BRANCH   9  10
HETATM   10  C   UNK N   1      27.030  24.498  -3.689  0.00  0.00     0.283 C 
HETATM   11  O   UNK N   1      26.696  23.991  -2.634  0.00  0.00    -0.260 OA
BRANCH  10  12
HETATM   12  C   UNK N   1      26.488  25.819  -4.034  0.00  0.00     0.082 C 
HETATM   13  C   UNK N   1      26.334  26.816  -3.164  0.00  0.00     0.006 C 
BRANCH  13  14
HETATM   14  C   UNK N   1      25.909  28.086  -3.714  0.00  0.00     0.000 C 
HETATM   15  C   UNK N   1      26.495  29.201  -3.274  0.00  0.00     0.000 C 
BRANCH  15  16
HETATM   16  C   UNK N   1      26.443  30.422  -4.092  0.00  0.00     0.000 C 
HETATM   17  C   UNK N   1      27.504  30.793  -4.829  0.00  0.00     0.000 C 
BRANCH  17  18
HETATM   18  C   UNK N   1      28.789  30.052  -4.756  0.00  0.00     0.007 C 
HETATM   19  C   UNK N   1      29.212  29.181  -5.678  0.00  0.00     0.081 C 
BRANCH  19  20
HETATM   20  C   UNK N   1      28.500  28.875  -6.932  0.00  0.00     0.165 C 
HETATM   21  O   UNK N   1      27.486  28.197  -6.931  0.00  0.00    -0.647 OA
BRANCH  20  22
HETATM   22  O   UNK N   1      28.976  29.359  -8.093  0.00  0.00    -0.773 OA
HETATM   23  H   UNK N   1      29.288  29.021  -8.909  0.00  0.00     0.167 HD
ENDBRANCH  20  22
ENDBRANCH  19  20
ENDBRANCH  17  18
ENDBRANCH  15  16
ENDBRANCH  13  14
ENDBRANCH  10  12
ENDBRANCH   9  10
ENDBRANCH   2   9
BRANCH   1  24
HETATM   24  O   UNK N   1      30.328  25.133  -4.203  0.00  0.00    -0.388 OA
HETATM   25  C   UNK N   1      30.828  26.302  -4.781  0.00  0.00     0.202 C 
ENDBRANCH   1  24
BRANCH   8  26
HETATM   26  C   UNK N   1      31.728  22.601  -4.208  0.00  0.00     0.093 A 
HETATM   27  C   UNK N   1      32.962  23.315  -4.740  0.00  0.00     0.049 C 
HETATM   28  O   UNK N   1      31.603  22.850  -2.826  0.00  0.00    -0.369 OA
HETATM   29  C   UNK N   1      31.810  21.512  -3.188  0.00  0.00     0.160 A 
BRANCH  29  30
HETATM   30  C   UNK N   1      33.239  21.103  -2.867  0.00  0.00     0.062 C 
BRANCH  30  31
HETATM   31  C   UNK N   1      33.605  19.880  -3.646  0.00  0.00    -0.022 C 
HETATM   32  C   UNK N   1      34.754  19.773  -4.318  0.00  0.00    -0.091 C 
HETATM   33  C   UNK N   1      35.039  18.519  -5.067  0.00  0.00     0.042 C 
HETATM   34  C   UNK N   1      35.750  20.887  -4.355  0.00  0.00     0.042 C 
ENDBRANCH  30  31
ENDBRANCH  29  30
ENDBRANCH   8  26
TORSDOF 12
ENDMDL
