MODEL 1
REMARK VINA RESULT:      -5.8      0.000      0.000
REMARK  14 active torsions:
REMARK  status: ('A' for Active; 'I' for Inactive)
REMARK    1  A    between atoms: O_1  and  C_2 
REMARK    2  A    between atoms: C_2  and  C_3 
REMARK    3  A    between atoms: C_3  and  C_4 
REMARK    4  A    between atoms: C_3  and  O_9 
REMARK    5  A    between atoms: C_4  and  C_5 
REMARK    6  A    between atoms: C_4  and  O_10 
REMARK    7  A    between atoms: C_5  and  C_6 
REMARK    8  A    between atoms: C_5  and  O_11 
REMARK    9  A    between atoms: C_6  and  C_7 
REMARK   10  A    between atoms: C_6  and  O_12 
REMARK   11  A    between atoms: C_7  and  O_8 
REMARK   12  A    between atoms: O_8  and  P_13 
REMARK   13  A    between atoms: P_13  and  O_14 
REMARK   14  A    between atoms: P_13  and  O_16 
ROOT
HETATM    1  C   UNK N   1      35.193  14.845  11.808  0.00  0.00     0.180 C 
ENDROOT
BRANCH   1   2
HETATM    2  C   UNK N   1      35.929  13.698  12.529  0.00  0.00     0.180 C 
BRANCH   2   3
HETATM    3  C   UNK N   1      35.644  13.692  14.044  0.00  0.00     0.173 C 
BRANCH   3   4
HETATM    4  C   UNK N   1      36.786  13.069  14.837  0.00  0.00     0.198 C 
BRANCH   4   5
HETATM    5  O   UNK N   1      37.618  14.059  15.357  0.00  0.00    -0.398 OA
HETATM    6  H   UNK N   1      38.212  14.616  14.830  0.00  0.00     0.209 HD
ENDBRANCH   4   5
ENDBRANCH   3   4
BRANCH   3   7
HETATM    7  O   UNK N   1      34.488  12.964  14.319  0.00  0.00    -0.391 OA
HETATM    8  H   UNK N   1      33.831  12.783  13.630  0.00  0.00     0.210 HD
ENDBRANCH   3   7
ENDBRANCH   2   3
BRANCH   2   9
HETATM    9  O   UNK N   1      37.303  13.815  12.314  0.00  0.00    -0.390 OA
HETATM   10  H   UNK N   1      37.668  14.595  11.867  0.00  0.00     0.210 HD
ENDBRANCH   2   9
ENDBRANCH   1   2
BRANCH   1  11
HETATM   11  C   UNK N   1      35.916  15.286  10.529  0.00  0.00     0.173 C 
BRANCH  11  12
HETATM   12  C   UNK N   1      34.935  15.950   9.579  0.00  0.00     0.214 C 
BRANCH  12  13
HETATM   13  O   UNK N   1      35.196  17.322   9.527  0.00  0.00    -0.294 OA
BRANCH  13  14
HETATM   14  P   UNK N   1      34.068  17.959   8.371  0.00  0.00     0.390 P 
HETATM   15  O   UNK N   1      35.182  19.039   8.390  0.00  0.00    -0.632 OA
BRANCH  14  16
HETATM   16  O   UNK N   1      34.519  18.077   6.700  0.00  0.00    -0.307 OA
HETATM   17  H   UNK N   1      34.337  18.832   6.118  0.00  0.00     0.222 HD
ENDBRANCH  14  16
BRANCH  14  18
HETATM   18  O   UNK N   1      34.705  16.449   7.791  0.00  0.00    -0.307 OA
HETATM   19  H   UNK N   1      34.188  15.727   7.400  0.00  0.00     0.222 HD
ENDBRANCH  14  18
ENDBRANCH  13  14
ENDBRANCH  12  13
ENDBRANCH  11  12
BRANCH  11  20
HETATM   20  O   UNK N   1      36.951  16.178  10.810  0.00  0.00    -0.391 OA
HETATM   21  H   UNK N   1      37.854  15.860  10.962  0.00  0.00     0.210 HD
ENDBRANCH  11  20
ENDBRANCH   1  11
BRANCH   1  22
HETATM   22  O   UNK N   1      33.904  14.434  11.460  0.00  0.00    -0.390 OA
HETATM   23  H   UNK N   1      33.631  13.512  11.586  0.00  0.00     0.210 HD
ENDBRANCH   1  22
TORSDOF 14
ENDMDL
MODEL 2
REMARK VINA RESULT:      -5.5      2.530      6.232
REMARK  14 active torsions:
REMARK  status: ('A' for Active; 'I' for Inactive)
REMARK    1  A    between atoms: O_1  and  C_2 
REMARK    2  A    between atoms: C_2  and  C_3 
REMARK    3  A    between atoms: C_3  and  C_4 
REMARK    4  A    between atoms: C_3  and  O_9 
REMARK    5  A    between atoms: C_4  and  C_5 
REMARK    6  A    between atoms: C_4  and  O_10 
REMARK    7  A    between atoms: C_5  and  C_6 
REMARK    8  A    between atoms: C_5  and  O_11 
REMARK    9  A    between atoms: C_6  and  C_7 
REMARK   10  A    between atoms: C_6  and  O_12 
REMARK   11  A    between atoms: C_7  and  O_8 
REMARK   12  A    between atoms: O_8  and  P_13 
REMARK   13  A    between atoms: P_13  and  O_14 
REMARK   14  A    between atoms: P_13  and  O_16 
ROOT
HETATM    1  C   UNK N   1      34.821  15.373  10.525  0.00  0.00     0.180 C 
ENDROOT
BRANCH   1   2
HETATM    2  C   UNK N   1      34.612  16.812  10.010  0.00  0.00     0.180 C 
BRANCH   2   3
HETATM    3  C   UNK N   1      34.418  16.855   8.481  0.00  0.00     0.173 C 
BRANCH   3   4
HETATM    4  C   UNK N   1      34.012  18.241   7.997  0.00  0.00     0.198 C 
BRANCH   4   5
HETATM    5  O   UNK N   1      35.011  19.171   8.281  0.00  0.00    -0.398 OA
HETATM    6  H   UNK N   1      35.715  19.044   8.936  0.00  0.00     0.209 HD
ENDBRANCH   4   5
ENDBRANCH   3   4
BRANCH   3   7
HETATM    7  O   UNK N   1      33.423  15.959   8.091  0.00  0.00    -0.391 OA
HETATM    8  H   UNK N   1      33.255  15.771   7.155  0.00  0.00     0.210 HD
ENDBRANCH   3   7
ENDBRANCH   2   3
BRANCH   2   9
HETATM    9  O   UNK N   1      35.708  17.599  10.363  0.00  0.00    -0.390 OA
HETATM   10  H   UNK N   1      36.523  17.191  10.695  0.00  0.00     0.210 HD
ENDBRANCH   2   9
ENDBRANCH   1   2
BRANCH   1  11
HETATM   11  C   UNK N   1      36.032  15.261  11.458  0.00  0.00     0.173 C 
BRANCH  11  12
HETATM   12  C   UNK N   1      36.005  13.928  12.187  0.00  0.00     0.214 C 
BRANCH  12  13
HETATM   13  O   UNK N   1      35.321  14.075  13.396  0.00  0.00    -0.294 OA
BRANCH  13  14
HETATM   14  P   UNK N   1      35.334  12.499  14.123  0.00  0.00     0.390 P 
HETATM   15  O   UNK N   1      34.739  13.387  15.248  0.00  0.00    -0.632 OA
BRANCH  14  16
HETATM   16  O   UNK N   1      33.834  11.705  14.489  0.00  0.00    -0.307 OA
HETATM   17  H   UNK N   1      33.159  12.032  15.106  0.00  0.00     0.222 HD
ENDBRANCH  14  16
BRANCH  14  18
HETATM   18  O   UNK N   1      34.279  12.493  12.742  0.00  0.00    -0.307 OA
HETATM   19  H   UNK N   1      33.449  11.996  12.662  0.00  0.00     0.222 HD
ENDBRANCH  14  18
ENDBRANCH  13  14
ENDBRANCH  12  13
ENDBRANCH  11  12
BRANCH  11  20
HETATM   20  O   UNK N   1      37.232  15.369  10.755  0.00  0.00    -0.391 OA
HETATM   21  H   UNK N   1      37.235  15.478   9.791  0.00  0.00     0.210 HD
ENDBRANCH  11  20
ENDBRANCH   1  11
BRANCH   1  22
HETATM   22  O   UNK N   1      33.688  14.954  11.227  0.00  0.00    -0.390 OA
HETATM   23  H   UNK N   1      33.511  15.289  12.120  0.00  0.00     0.210 HD
ENDBRANCH   1  22
TORSDOF 14
ENDMDL
MODEL 3
REMARK VINA RESULT:      -5.3      1.240      2.244
REMARK  14 active torsions:
REMARK  status: ('A' for Active; 'I' for Inactive)
REMARK    1  A    between atoms: O_1  and  C_2 
REMARK    2  A    between atoms: C_2  and  C_3 
REMARK    3  A    between atoms: C_3  and  C_4 
REMARK    4  A    between atoms: C_3  and  O_9 
REMARK    5  A    between atoms: C_4  and  C_5 
REMARK    6  A    between atoms: C_4  and  O_10 
REMARK    7  A    between atoms: C_5  and  C_6 
REMARK    8  A    between atoms: C_5  and  O_11 
REMARK    9  A    between atoms: C_6  and  C_7 
REMARK   10  A    between atoms: C_6  and  O_12 
REMARK   11  A    between atoms: C_7  and  O_8 
REMARK   12  A    between atoms: O_8  and  P_13 
REMARK   13  A    between atoms: P_13  and  O_14 
REMARK   14  A    between atoms: P_13  and  O_16 
ROOT
HETATM    1  C   UNK N   1      34.973  15.157  11.698  0.00  0.00     0.180 C 
ENDROOT
BRANCH   1   2
HETATM    2  C   UNK N   1      35.466  13.939  12.505  0.00  0.00     0.180 C 
BRANCH   2   3
HETATM    3  C   UNK N   1      36.450  13.071  11.697  0.00  0.00     0.173 C 
BRANCH   3   4
HETATM    4  C   UNK N   1      35.971  11.629  11.577  0.00  0.00     0.198 C 
BRANCH   4   5
HETATM    5  O   UNK N   1      34.953  11.529  10.631  0.00  0.00    -0.398 OA
HETATM    6  H   UNK N   1      34.946  11.986   9.775  0.00  0.00     0.209 HD
ENDBRANCH   4   5
ENDBRANCH   3   4
BRANCH   3   7
HETATM    7  O   UNK N   1      37.702  13.054  12.310  0.00  0.00    -0.391 OA
HETATM    8  H   UNK N   1      38.482  13.427  11.871  0.00  0.00     0.210 HD
ENDBRANCH   3   7
ENDBRANCH   2   3
BRANCH   2   9
HETATM    9  O   UNK N   1      34.374  13.165  12.898  0.00  0.00    -0.390 OA
HETATM   10  H   UNK N   1      34.053  12.442  12.336  0.00  0.00     0.210 HD
ENDBRANCH   2   9
ENDBRANCH   1   2
BRANCH   1  11
HETATM   11  C   UNK N   1      35.845  15.429  10.466  0.00  0.00     0.173 C 
BRANCH  11  12
HETATM   12  C   UNK N   1      35.000  16.026   9.353  0.00  0.00     0.214 C 
BRANCH  12  13
HETATM   13  O   UNK N   1      34.914  17.410   9.528  0.00  0.00    -0.294 OA
BRANCH  13  14
HETATM   14  P   UNK N   1      33.897  17.971   8.239  0.00  0.00     0.390 P 
HETATM   15  O   UNK N   1      34.973  19.085   8.333  0.00  0.00    -0.632 OA
BRANCH  14  16
HETATM   16  O   UNK N   1      34.517  18.046   6.620  0.00  0.00    -0.307 OA
HETATM   17  H   UNK N   1      35.437  18.238   6.376  0.00  0.00     0.222 HD
ENDBRANCH  14  16
BRANCH  14  18
HETATM   18  O   UNK N   1      34.631  16.464   7.784  0.00  0.00    -0.307 OA
HETATM   19  H   UNK N   1      34.159  15.657   7.525  0.00  0.00     0.222 HD
ENDBRANCH  14  18
ENDBRANCH  13  14
ENDBRANCH  12  13
ENDBRANCH  11  12
BRANCH  11  20
HETATM   20  O   UNK N   1      36.890  16.304  10.763  0.00  0.00    -0.391 OA
HETATM   21  H   UNK N   1      37.041  16.608  11.671  0.00  0.00     0.210 HD
ENDBRANCH  11  20
ENDBRANCH   1  11
BRANCH   1  22
HETATM   22  O   UNK N   1      33.662  14.938  11.265  0.00  0.00    -0.390 OA
HETATM   23  H   UNK N   1      33.489  14.426  10.460  0.00  0.00     0.210 HD
ENDBRANCH   1  22
TORSDOF 14
ENDMDL
MODEL 4
REMARK VINA RESULT:      -5.3      0.895      1.848
REMARK  14 active torsions:
REMARK  status: ('A' for Active; 'I' for Inactive)
REMARK    1  A    between atoms: O_1  and  C_2 
REMARK    2  A    between atoms: C_2  and  C_3 
REMARK    3  A    between atoms: C_3  and  C_4 
REMARK    4  A    between atoms: C_3  and  O_9 
REMARK    5  A    between atoms: C_4  and  C_5 
REMARK    6  A    between atoms: C_4  and  O_10 
REMARK    7  A    between atoms: C_5  and  C_6 
REMARK    8  A    between atoms: C_5  and  O_11 
REMARK    9  A    between atoms: C_6  and  C_7 
REMARK   10  A    between atoms: C_6  and  O_12 
REMARK   11  A    between atoms: C_7  and  O_8 
REMARK   12  A    between atoms: O_8  and  P_13 
REMARK   13  A    between atoms: P_13  and  O_14 
REMARK   14  A    between atoms: P_13  and  O_16 
ROOT
HETATM    1  C   UNK N   1      35.632  14.709  11.485  0.00  0.00     0.180 C 
ENDROOT
BRANCH   1   2
HETATM    2  C   UNK N   1      35.241  13.887  12.729  0.00  0.00     0.180 C 
BRANCH   2   3
HETATM    3  C   UNK N   1      36.457  13.181  13.361  0.00  0.00     0.173 C 
BRANCH   3   4
HETATM    4  C   UNK N   1      36.830  13.786  14.709  0.00  0.00     0.198 C 
BRANCH   4   5
HETATM    5  O   UNK N   1      37.120  15.143  14.572  0.00  0.00    -0.398 OA
HETATM    6  H   UNK N   1      37.928  15.499  14.171  0.00  0.00     0.209 HD
ENDBRANCH   4   5
ENDBRANCH   3   4
BRANCH   3   7
HETATM    7  O   UNK N   1      37.569  13.286  12.525  0.00  0.00    -0.391 OA
HETATM    8  H   UNK N   1      38.280  13.917  12.711  0.00  0.00     0.210 HD
ENDBRANCH   3   7
ENDBRANCH   2   3
BRANCH   2   9
HETATM    9  O   UNK N   1      34.281  12.937  12.380  0.00  0.00    -0.390 OA
HETATM   10  H   UNK N   1      34.281  12.534  11.497  0.00  0.00     0.210 HD
ENDBRANCH   2   9
ENDBRANCH   1   2
BRANCH   1  11
HETATM   11  C   UNK N   1      34.480  15.588  10.984  0.00  0.00     0.173 C 
BRANCH  11  12
HETATM   12  C   UNK N   1      34.744  16.027   9.554  0.00  0.00     0.214 C 
BRANCH  12  13
HETATM   13  O   UNK N   1      34.923  17.413   9.520  0.00  0.00    -0.294 OA
BRANCH  13  14
HETATM   14  P   UNK N   1      33.912  17.972   8.225  0.00  0.00     0.390 P 
HETATM   15  O   UNK N   1      34.991  19.084   8.319  0.00  0.00    -0.632 OA
BRANCH  14  16
HETATM   16  O   UNK N   1      34.539  18.040   6.607  0.00  0.00    -0.307 OA
HETATM   17  H   UNK N   1      34.425  18.779   5.989  0.00  0.00     0.222 HD
ENDBRANCH  14  16
BRANCH  14  18
HETATM   18  O   UNK N   1      34.645  16.461   7.778  0.00  0.00    -0.307 OA
HETATM   19  H   UNK N   1      35.528  16.158   8.041  0.00  0.00     0.222 HD
ENDBRANCH  14  18
ENDBRANCH  13  14
ENDBRANCH  12  13
ENDBRANCH  11  12
BRANCH  11  20
HETATM   20  O   UNK N   1      33.261  14.911  11.033  0.00  0.00    -0.391 OA
HETATM   21  H   UNK N   1      32.454  15.360  11.329  0.00  0.00     0.210 HD
ENDBRANCH  11  20
ENDBRANCH   1  11
BRANCH   1  22
HETATM   22  O   UNK N   1      36.715  15.538  11.787  0.00  0.00    -0.390 OA
HETATM   23  H   UNK N   1      36.835  15.882  12.686  0.00  0.00     0.210 HD
ENDBRANCH   1  22
TORSDOF 14
ENDMDL
MODEL 5
REMARK VINA RESULT:      -5.2      1.679      2.658
REMARK  14 active torsions:
REMARK  status: ('A' for Active; 'I' for Inactive)
REMARK    1  A    between atoms: O_1  and  C_2 
REMARK    2  A    between atoms: C_2  and  C_3 
REMARK    3  A    between atoms: C_3  and  C_4 
REMARK    4  A    between atoms: C_3  and  O_9 
REMARK    5  A    between atoms: C_4  and  C_5 
REMARK    6  A    between atoms: C_4  and  O_10 
REMARK    7  A    between atoms: C_5  and  C_6 
REMARK    8  A    between atoms: C_5  and  O_11 
REMARK    9  A    between atoms: C_6  and  C_7 
REMARK   10  A    between atoms: C_6  and  O_12 
REMARK   11  A    between atoms: C_7  and  O_8 
REMARK   12  A    between atoms: O_8  and  P_13 
REMARK   13  A    between atoms: P_13  and  O_14 
REMARK   14  A    between atoms: P_13  and  O_16 
ROOT
HETATM    1  C   UNK N   1      35.337  14.212   9.878  0.00  0.00     0.180 C 
ENDROOT
BRANCH   1   2
HETATM    2  C   UNK N   1      36.855  14.478   9.902  0.00  0.00     0.180 C 
BRANCH   2   3
HETATM    3  C   UNK N   1      37.640  13.292  10.497  0.00  0.00     0.173 C 
BRANCH   3   4
HETATM    4  C   UNK N   1      37.020  12.793  11.796  0.00  0.00     0.198 C 
BRANCH   4   5
HETATM    5  O   UNK N   1      37.168  13.743  12.805  0.00  0.00    -0.398 OA
HETATM    6  H   UNK N   1      37.738  13.640  13.583  0.00  0.00     0.209 HD
ENDBRANCH   4   5
ENDBRANCH   3   4
BRANCH   3   7
HETATM    7  O   UNK N   1      38.955  13.665  10.769  0.00  0.00    -0.391 OA
HETATM    8  H   UNK N   1      39.588  13.038  11.151  0.00  0.00     0.210 HD
ENDBRANCH   3   7
ENDBRANCH   2   3
BRANCH   2   9
HETATM    9  O   UNK N   1      37.117  15.629  10.645  0.00  0.00    -0.390 OA
HETATM   10  H   UNK N   1      36.471  16.353  10.680  0.00  0.00     0.210 HD
ENDBRANCH   2   9
ENDBRANCH   1   2
BRANCH   1  11
HETATM   11  C   UNK N   1      34.541  15.326  10.568  0.00  0.00     0.173 C 
BRANCH  11  12
HETATM   12  C   UNK N   1      33.798  16.152   9.532  0.00  0.00     0.214 C 
BRANCH  12  13
HETATM   13  O   UNK N   1      34.645  17.148   9.039  0.00  0.00    -0.294 OA
BRANCH  13  14
HETATM   14  P   UNK N   1      33.715  17.985   7.836  0.00  0.00     0.390 P 
HETATM   15  O   UNK N   1      35.011  18.836   7.919  0.00  0.00    -0.632 OA
BRANCH  14  16
HETATM   16  O   UNK N   1      34.263  18.016   6.189  0.00  0.00    -0.307 OA
HETATM   17  H   UNK N   1      34.276  18.797   5.614  0.00  0.00     0.222 HD
ENDBRANCH  14  16
BRANCH  14  18
HETATM   18  O   UNK N   1      34.085  16.383   7.273  0.00  0.00    -0.307 OA
HETATM   19  H   UNK N   1      34.968  16.049   7.049  0.00  0.00     0.222 HD
ENDBRANCH  14  18
ENDBRANCH  13  14
ENDBRANCH  12  13
ENDBRANCH  11  12
BRANCH  11  20
HETATM   20  O   UNK N   1      33.621  14.808  11.480  0.00  0.00    -0.391 OA
HETATM   21  H   UNK N   1      33.837  14.745  12.423  0.00  0.00     0.210 HD
ENDBRANCH  11  20
ENDBRANCH   1  11
BRANCH   1  22
HETATM   22  O   UNK N   1      34.894  14.114   8.556  0.00  0.00    -0.390 OA
HETATM   23  H   UNK N   1      35.036  14.846   7.936  0.00  0.00     0.210 HD
ENDBRANCH   1  22
TORSDOF 14
ENDMDL
MODEL 6
REMARK VINA RESULT:      -5.1     16.839     18.419
REMARK  14 active torsions:
REMARK  status: ('A' for Active; 'I' for Inactive)
REMARK    1  A    between atoms: O_1  and  C_2 
REMARK    2  A    between atoms: C_2  and  C_3 
REMARK    3  A    between atoms: C_3  and  C_4 
REMARK    4  A    between atoms: C_3  and  O_9 
REMARK    5  A    between atoms: C_4  and  C_5 
REMARK    6  A    between atoms: C_4  and  O_10 
REMARK    7  A    between atoms: C_5  and  C_6 
REMARK    8  A    between atoms: C_5  and  O_11 
REMARK    9  A    between atoms: C_6  and  C_7 
REMARK   10  A    between atoms: C_6  and  O_12 
REMARK   11  A    between atoms: C_7  and  O_8 
REMARK   12  A    between atoms: O_8  and  P_13 
REMARK   13  A    between atoms: P_13  and  O_14 
REMARK   14  A    between atoms: P_13  and  O_16 
ROOT
HETATM    1  C   UNK N   1      19.815  18.666   2.617  0.00  0.00     0.180 C 
ENDROOT
BRANCH   1   2
HETATM    2  C   UNK N   1      20.084  20.053   3.235  0.00  0.00     0.180 C 
BRANCH   2   3
HETATM    3  C   UNK N   1      20.774  21.005   2.238  0.00  0.00     0.173 C 
BRANCH   3   4
HETATM    4  C   UNK N   1      21.121  20.307   0.930  0.00  0.00     0.198 C 
BRANCH   4   5
HETATM    5  O   UNK N   1      20.783  21.110  -0.158  0.00  0.00    -0.398 OA
HETATM    6  H   UNK N   1      21.320  21.846  -0.490  0.00  0.00     0.209 HD
ENDBRANCH   4   5
ENDBRANCH   3   4
BRANCH   3   7
HETATM    7  O   UNK N   1      21.957  21.504   2.781  0.00  0.00    -0.391 OA
HETATM    8  H   UNK N   1      22.382  22.298   2.419  0.00  0.00     0.210 HD
ENDBRANCH   3   7
ENDBRANCH   2   3
BRANCH   2   9
HETATM    9  O   UNK N   1      20.879  19.913   4.372  0.00  0.00    -0.390 OA
HETATM   10  H   UNK N   1      20.582  19.369   5.119  0.00  0.00     0.210 HD
ENDBRANCH   2   9
ENDBRANCH   1   2
BRANCH   1  11
HETATM   11  C   UNK N   1      20.449  17.534   3.434  0.00  0.00     0.173 C 
BRANCH  11  12
HETATM   12  C   UNK N   1      19.942  16.190   2.939  0.00  0.00     0.214 C 
BRANCH  12  13
HETATM   13  O   UNK N   1      19.977  16.166   1.543  0.00  0.00    -0.294 OA
BRANCH  13  14
HETATM   14  P   UNK N   1      20.219  14.500   1.119  0.00  0.00     0.390 P 
HETATM   15  O   UNK N   1      21.596  14.905   1.709  0.00  0.00    -0.632 OA
BRANCH  14  16
HETATM   16  O   UNK N   1      20.466  13.319   2.367  0.00  0.00    -0.307 OA
HETATM   17  H   UNK N   1      21.275  13.217   2.894  0.00  0.00     0.222 HD
ENDBRANCH  14  16
BRANCH  14  18
HETATM   18  O   UNK N   1      18.986  14.616   2.339  0.00  0.00    -0.307 OA
HETATM   19  H   UNK N   1      18.047  14.804   2.182  0.00  0.00     0.222 HD
ENDBRANCH  14  18
ENDBRANCH  13  14
ENDBRANCH  12  13
ENDBRANCH  11  12
BRANCH  11  20
HETATM   20  O   UNK N   1      21.841  17.555   3.343  0.00  0.00    -0.391 OA
HETATM   21  H   UNK N   1      22.384  17.845   4.092  0.00  0.00     0.210 HD
ENDBRANCH  11  20
ENDBRANCH   1  11
BRANCH   1  22
HETATM   22  O   UNK N   1      18.439  18.437   2.549  0.00  0.00    -0.390 OA
HETATM   23  H   UNK N   1      18.054  17.975   1.788  0.00  0.00     0.210 HD
ENDBRANCH   1  22
TORSDOF 14
ENDMDL
MODEL 7
REMARK VINA RESULT:      -5.1     12.858     16.065
REMARK  14 active torsions:
REMARK  status: ('A' for Active; 'I' for Inactive)
REMARK    1  A    between atoms: O_1  and  C_2 
REMARK    2  A    between atoms: C_2  and  C_3 
REMARK    3  A    between atoms: C_3  and  C_4 
REMARK    4  A    between atoms: C_3  and  O_9 
REMARK    5  A    between atoms: C_4  and  C_5 
REMARK    6  A    between atoms: C_4  and  O_10 
REMARK    7  A    between atoms: C_5  and  C_6 
REMARK    8  A    between atoms: C_5  and  O_11 
REMARK    9  A    between atoms: C_6  and  C_7 
REMARK   10  A    between atoms: C_6  and  O_12 
REMARK   11  A    between atoms: C_7  and  O_8 
REMARK   12  A    between atoms: O_8  and  P_13 
REMARK   13  A    between atoms: P_13  and  O_14 
REMARK   14  A    between atoms: P_13  and  O_16 
ROOT
HETATM    1  C   UNK N   1      22.743  19.714   3.080  0.00  0.00     0.180 C 
ENDROOT
BRANCH   1   2
HETATM    2  C   UNK N   1      21.528  20.635   2.849  0.00  0.00     0.180 C 
BRANCH   2   3
HETATM    3  C   UNK N   1      20.744  20.249   1.580  0.00  0.00     0.173 C 
BRANCH   3   4
HETATM    4  C   UNK N   1      20.512  18.746   1.489  0.00  0.00     0.198 C 
BRANCH   4   5
HETATM    5  O   UNK N   1      20.297  18.363   0.166  0.00  0.00    -0.398 OA
HETATM    6  H   UNK N   1      19.684  18.803  -0.444  0.00  0.00     0.209 HD
ENDBRANCH   4   5
ENDBRANCH   3   4
BRANCH   3   7
HETATM    7  O   UNK N   1      21.440  20.642   0.438  0.00  0.00    -0.391 OA
HETATM    8  H   UNK N   1      21.209  21.455  -0.037  0.00  0.00     0.210 HD
ENDBRANCH   3   7
ENDBRANCH   2   3
BRANCH   2   9
HETATM    9  O   UNK N   1      21.958  21.959   2.747  0.00  0.00    -0.390 OA
HETATM   10  H   UNK N   1      21.781  22.475   1.945  0.00  0.00     0.210 HD
ENDBRANCH   2   9
ENDBRANCH   1   2
BRANCH   1  11
HETATM   11  C   UNK N   1      24.053  20.500   3.209  0.00  0.00     0.173 C 
BRANCH  11  12
HETATM   12  C   UNK N   1      25.035  19.736   4.079  0.00  0.00     0.214 C 
BRANCH  12  13
HETATM   13  O   UNK N   1      25.370  18.532   3.453  0.00  0.00    -0.294 OA
BRANCH  13  14
HETATM   14  P   UNK N   1      26.561  17.798   4.481  0.00  0.00     0.390 P 
HETATM   15  O   UNK N   1      27.170  19.197   4.199  0.00  0.00    -0.632 OA
BRANCH  14  16
HETATM   16  O   UNK N   1      26.832  18.428   6.075  0.00  0.00    -0.307 OA
HETATM   17  H   UNK N   1      26.399  18.117   6.886  0.00  0.00     0.222 HD
ENDBRANCH  14  16
BRANCH  14  18
HETATM   18  O   UNK N   1      25.064  17.959   5.349  0.00  0.00    -0.307 OA
HETATM   19  H   UNK N   1      24.622  18.794   5.570  0.00  0.00     0.222 HD
ENDBRANCH  14  18
ENDBRANCH  13  14
ENDBRANCH  12  13
ENDBRANCH  11  12
BRANCH  11  20
HETATM   20  O   UNK N   1      24.635  20.731   1.963  0.00  0.00    -0.391 OA
HETATM   21  H   UNK N   1      24.148  21.196   1.265  0.00  0.00     0.210 HD
ENDBRANCH  11  20
ENDBRANCH   1  11
BRANCH   1  22
HETATM   22  O   UNK N   1      22.560  18.976   4.253  0.00  0.00    -0.390 OA
HETATM   23  H   UNK N   1      22.781  19.361   5.115  0.00  0.00     0.210 HD
ENDBRANCH   1  22
TORSDOF 14
ENDMDL
MODEL 8
REMARK VINA RESULT:      -5.0      1.798      3.252
REMARK  14 active torsions:
REMARK  status: ('A' for Active; 'I' for Inactive)
REMARK    1  A    between atoms: O_1  and  C_2 
REMARK    2  A    between atoms: C_2  and  C_3 
REMARK    3  A    between atoms: C_3  and  C_4 
REMARK    4  A    between atoms: C_3  and  O_9 
REMARK    5  A    between atoms: C_4  and  C_5 
REMARK    6  A    between atoms: C_4  and  O_10 
REMARK    7  A    between atoms: C_5  and  C_6 
REMARK    8  A    between atoms: C_5  and  O_11 
REMARK    9  A    between atoms: C_6  and  C_7 
REMARK   10  A    between atoms: C_6  and  O_12 
REMARK   11  A    between atoms: C_7  and  O_8 
REMARK   12  A    between atoms: O_8  and  P_13 
REMARK   13  A    between atoms: P_13  and  O_14 
REMARK   14  A    between atoms: P_13  and  O_16 
ROOT
HETATM    1  C   UNK N   1      34.198  15.074   9.456  0.00  0.00     0.180 C 
ENDROOT
BRANCH   1   2
HETATM    2  C   UNK N   1      34.729  15.207  10.897  0.00  0.00     0.180 C 
BRANCH   2   3
HETATM    3  C   UNK N   1      36.227  14.853  10.995  0.00  0.00     0.173 C 
BRANCH   3   4
HETATM    4  C   UNK N   1      36.556  14.124  12.292  0.00  0.00     0.198 C 
BRANCH   4   5
HETATM    5  O   UNK N   1      36.506  15.002  13.373  0.00  0.00    -0.398 OA
HETATM    6  H   UNK N   1      37.278  15.427  13.777  0.00  0.00     0.209 HD
ENDBRANCH   4   5
ENDBRANCH   3   4
BRANCH   3   7
HETATM    7  O   UNK N   1      37.004  16.009  10.948  0.00  0.00    -0.391 OA
HETATM    8  H   UNK N   1      36.669  16.825  10.545  0.00  0.00     0.210 HD
ENDBRANCH   3   7
ENDBRANCH   2   3
BRANCH   2   9
HETATM    9  O   UNK N   1      33.997  14.376  11.745  0.00  0.00    -0.390 OA
HETATM   10  H   UNK N   1      33.515  13.611  11.392  0.00  0.00     0.210 HD
ENDBRANCH   2   9
ENDBRANCH   1   2
BRANCH   1  11
HETATM   11  C   UNK N   1      32.875  15.822   9.253  0.00  0.00     0.173 C 
BRANCH  11  12
HETATM   12  C   UNK N   1      32.551  15.913   7.772  0.00  0.00     0.214 C 
BRANCH  12  13
HETATM   13  O   UNK N   1      32.588  17.251   7.371  0.00  0.00    -0.294 OA
BRANCH  13  14
HETATM   14  P   UNK N   1      33.436  17.251   5.856  0.00  0.00     0.390 P 
HETATM   15  O   UNK N   1      34.493  17.824   6.838  0.00  0.00    -0.632 OA
BRANCH  14  16
HETATM   16  O   UNK N   1      34.791  16.192   5.625  0.00  0.00    -0.307 OA
HETATM   17  H   UNK N   1      35.467  16.283   4.935  0.00  0.00     0.222 HD
ENDBRANCH  14  16
BRANCH  14  18
HETATM   18  O   UNK N   1      33.031  15.619   6.295  0.00  0.00    -0.307 OA
HETATM   19  H   UNK N   1      32.651  14.950   5.704  0.00  0.00     0.222 HD
ENDBRANCH  14  18
ENDBRANCH  13  14
ENDBRANCH  12  13
ENDBRANCH  11  12
BRANCH  11  20
HETATM   20  O   UNK N   1      31.822  15.185   9.910  0.00  0.00    -0.391 OA
HETATM   21  H   UNK N   1      31.130  15.699  10.355  0.00  0.00     0.210 HD
ENDBRANCH  11  20
ENDBRANCH   1  11
BRANCH   1  22
HETATM   22  O   UNK N   1      35.134  15.591   8.557  0.00  0.00    -0.390 OA
HETATM   23  H   UNK N   1      36.068  15.666   8.808  0.00  0.00     0.210 HD
ENDBRANCH   1  22
TORSDOF 14
ENDMDL
MODEL 9
REMARK VINA RESULT:      -5.0     15.879     18.283
REMARK  14 active torsions:
REMARK  status: ('A' for Active; 'I' for Inactive)
REMARK    1  A    between atoms: O_1  and  C_2 
REMARK    2  A    between atoms: C_2  and  C_3 
REMARK    3  A    between atoms: C_3  and  C_4 
REMARK    4  A    between atoms: C_3  and  O_9 
REMARK    5  A    between atoms: C_4  and  C_5 
REMARK    6  A    between atoms: C_4  and  O_10 
REMARK    7  A    between atoms: C_5  and  C_6 
REMARK    8  A    between atoms: C_5  and  O_11 
REMARK    9  A    between atoms: C_6  and  C_7 
REMARK   10  A    between atoms: C_6  and  O_12 
REMARK   11  A    between atoms: C_7  and  O_8 
REMARK   12  A    between atoms: O_8  and  P_13 
REMARK   13  A    between atoms: P_13  and  O_14 
REMARK   14  A    between atoms: P_13  and  O_16 
ROOT
HETATM    1  C   UNK N   1      20.122  17.690   3.322  0.00  0.00     0.180 C 
ENDROOT
BRANCH   1   2
HETATM    2  C   UNK N   1      20.078  19.193   2.980  0.00  0.00     0.180 C 
BRANCH   2   3
HETATM    3  C   UNK N   1      20.812  19.506   1.661  0.00  0.00     0.173 C 
BRANCH   3   4
HETATM    4  C   UNK N   1      20.635  20.960   1.242  0.00  0.00     0.198 C 
BRANCH   4   5
HETATM    5  O   UNK N   1      20.753  21.088  -0.141  0.00  0.00    -0.398 OA
HETATM    6  H   UNK N   1      21.481  20.727  -0.670  0.00  0.00     0.209 HD
ENDBRANCH   4   5
ENDBRANCH   3   4
BRANCH   3   7
HETATM    7  O   UNK N   1      20.326  18.704   0.630  0.00  0.00    -0.391 OA
HETATM    8  H   UNK N   1      20.926  18.269   0.004  0.00  0.00     0.210 HD
ENDBRANCH   3   7
ENDBRANCH   2   3
BRANCH   2   9
HETATM    9  O   UNK N   1      20.652  19.926   4.018  0.00  0.00    -0.390 OA
HETATM   10  H   UNK N   1      20.361  19.796   4.935  0.00  0.00     0.210 HD
ENDBRANCH   2   9
ENDBRANCH   1   2
BRANCH   1  11
HETATM   11  C   UNK N   1      21.041  17.392   4.512  0.00  0.00     0.173 C 
BRANCH  11  12
HETATM   12  C   UNK N   1      20.709  16.030   5.097  0.00  0.00     0.214 C 
BRANCH  12  13
HETATM   13  O   UNK N   1      20.507  15.116   4.060  0.00  0.00    -0.294 OA
BRANCH  13  14
HETATM   14  P   UNK N   1      19.585  13.824   4.761  0.00  0.00     0.390 P 
HETATM   15  O   UNK N   1      19.409  14.968   5.795  0.00  0.00    -0.632 OA
BRANCH  14  16
HETATM   16  O   UNK N   1      17.860  13.966   4.890  0.00  0.00    -0.307 OA
HETATM   17  H   UNK N   1      17.386  14.535   5.518  0.00  0.00     0.222 HD
ENDBRANCH  14  16
BRANCH  14  18
HETATM   18  O   UNK N   1      18.882  14.279   3.238  0.00  0.00    -0.307 OA
HETATM   19  H   UNK N   1      18.129  13.844   2.807  0.00  0.00     0.222 HD
ENDBRANCH  14  18
ENDBRANCH  13  14
ENDBRANCH  12  13
ENDBRANCH  11  12
BRANCH  11  20
HETATM   20  O   UNK N   1      22.384  17.409   4.137  0.00  0.00    -0.391 OA
HETATM   21  H   UNK N   1      22.734  16.759   3.508  0.00  0.00     0.210 HD
ENDBRANCH  11  20
ENDBRANCH   1  11
BRANCH   1  22
HETATM   22  O   UNK N   1      18.838  17.240   3.639  0.00  0.00    -0.390 OA
HETATM   23  H   UNK N   1      18.505  16.405   3.274  0.00  0.00     0.210 HD
ENDBRANCH   1  22
TORSDOF 14
ENDMDL
