REMARK  19 active torsions:
REMARK  status: ('A' for Active; 'I' for Inactive)
REMARK    1  A    between atoms: C_2  and  C_1 
REMARK    2  A    between atoms: C_3  and  C_1 
REMARK    3  A    between atoms: C_4  and  C_2 
REMARK    4  A    between atoms: C_6  and  C_3 
REMARK    5  A    between atoms: C_8  and  C_4 
REMARK    6  A    between atoms: N_16  and  C_6 
REMARK    7  A    between atoms: O_28  and  C_8 
REMARK    8  A    between atoms: C_10  and  C_9 
REMARK    9  A    between atoms: O_29  and  C_9 
REMARK   10  A    between atoms: O_20  and  C_11 
REMARK   11  A    between atoms: C_12  and  O_21 
REMARK   12  A    between atoms: C_13  and  O_22 
REMARK   13  A    between atoms: C_14  and  N_19 
REMARK   14  A    between atoms: P_32  and  O_24 
REMARK   15  A    between atoms: P_33  and  O_26 
REMARK   16  A    between atoms: P_32  and  O_28 
REMARK   17  A    between atoms: P_33  and  O_29 
REMARK   18  A    between atoms: P_32  and  O_31 
REMARK   19  A    between atoms: P_33  and  O_31 
ROOT
HETATM    1  C   UNK N   1       2.907  -4.968  -0.357  0.00  0.00     0.215 C 
ENDROOT
BRANCH   1   2
HETATM    2  C   UNK N   1       2.087  -3.855  -0.987  0.00  0.00     0.180 C 
HETATM    3  C   UNK N   1       2.271  -2.482  -0.311  0.00  0.00     0.182 C 
HETATM    4  C   UNK N   1       0.836  -2.009  -0.239  0.00  0.00     0.198 C 
HETATM    5  C   UNK N   1       0.215  -3.347   0.147  0.00  0.00     0.263 C 
HETATM    6  O   UNK N   1       0.746  -4.243  -0.795  0.00  0.00    -0.353 OA
BRANCH   3   7
HETATM    7  O   UNK N   1       3.097  -1.616  -1.032  0.00  0.00    -0.390 OA
HETATM    8  H   UNK N   1       3.905  -1.812  -1.532  0.00  0.00     0.210 HD
ENDBRANCH   3   7
BRANCH   4   9
HETATM    9  O   UNK N   1       0.662  -1.011   0.724  0.00  0.00    -0.388 OA
HETATM   10  H   UNK N   1       1.201  -0.560   1.393  0.00  0.00     0.210 HD
ENDBRANCH   4   9
BRANCH   5  11
HETATM   11  N   UNK N   1      -1.249  -3.513   0.186  0.00  0.00    -0.280 N 
HETATM   12  C   UNK N   1      -1.676  -4.777   0.475  0.00  0.00     0.103 A 
HETATM   13  C   UNK N   1      -3.025  -5.089   0.545  0.00  0.00     0.073 A 
HETATM   14  C   UNK N   1      -3.950  -4.084   0.320  0.00  0.00     0.144 A 
HETATM   15  N   UNK N   1      -3.529  -2.824   0.038  0.00  0.00    -0.289 N 
HETATM   16  C   UNK N   1      -2.192  -2.520  -0.034  0.00  0.00     0.330 A 
ATOM     17  HN  UNK N   1      -4.219  -2.091  -0.123  1.00  0.00     0.172 HD
HETATM   18  O   UNK N   1      -1.859  -1.378  -0.285  0.00  0.00    -0.246 OA
BRANCH  14  19
HETATM   19  O   UNK N   1      -5.261  -4.359   0.384  0.00  0.00    -0.346 OA
HETATM   20  H   UNK N   1      -5.886  -3.662   0.428  0.00  0.00     0.219 HD
ENDBRANCH  14  19
ENDBRANCH   5  11
ENDBRANCH   1   2
BRANCH   1  21
HETATM   21  O   UNK N   1       4.272  -4.787  -0.497  0.00  0.00    -0.294 OA
BRANCH  21  22
HETATM   22  P   UNK N   1       4.978  -5.776   0.756  0.00  0.00     0.401 P 
HETATM   23  O   UNK N   1       4.144  -7.083   0.895  0.00  0.00    -0.631 OA
BRANCH  22  24
HETATM   24  O   UNK N   1       4.958  -4.983   2.299  0.00  0.00    -0.307 OA
HETATM   25  H   UNK N   1       5.336  -4.752   3.161  0.00  0.00     0.222 HD
ENDBRANCH  22  24
BRANCH  22  26
HETATM   26  O   UNK N   1       6.580  -6.291   0.327  0.00  0.00    -0.195 OA
BRANCH  26  27
HETATM   27  P   UNK N   1       7.290  -4.948  -0.515  0.00  0.00     0.401 P 
HETATM   28  O   UNK N   1       8.720  -5.397  -0.908  0.00  0.00    -0.631 OA
BRANCH  27  29
HETATM   29  O   UNK N   1       6.485  -4.631  -2.020  0.00  0.00    -0.307 OA
HETATM   30  H   UNK N   1       6.413  -4.152  -2.861  0.00  0.00     0.222 HD
ENDBRANCH  27  29
BRANCH  27  31
HETATM   31  O   UNK N   1       7.371  -3.509   0.476  0.00  0.00    -0.297 OA
BRANCH  31  32
HETATM   32  C   UNK N   1       8.646  -3.461   1.045  0.00  0.00     0.180 C 
BRANCH  32  33
HETATM   33  C   UNK N   1       9.390  -2.239   0.530  0.00  0.00     0.027 C 
BRANCH  33  34
HETATM   34  C   UNK N   1       9.927  -2.470  -0.875  0.00  0.00     0.002 C 
BRANCH  34  35
HETATM   35  C   UNK N   1      11.352  -3.004  -0.832  0.00  0.00     0.002 C 
BRANCH  35  36
HETATM   36  C   UNK N   1      11.359  -4.502  -0.585  0.00  0.00     0.019 C 
BRANCH  36  37
HETATM   37  C   UNK N   1      12.770  -5.049  -0.617  0.00  0.00     0.111 C 
BRANCH  37  38
HETATM   38  N   UNK N   1      13.393  -4.876   0.682  0.00  0.00    -0.430 N 
HETATM   39  H   UNK N   1      13.718  -5.194   1.595  0.00  0.00     0.149 HD
HETATM   40  H   UNK N   1      13.648  -3.888   0.682  0.00  0.00     0.149 HD
ENDBRANCH  37  38
ENDBRANCH  36  37
ENDBRANCH  35  36
ENDBRANCH  34  35
ENDBRANCH  33  34
ENDBRANCH  32  33
ENDBRANCH  31  32
ENDBRANCH  27  31
ENDBRANCH  26  27
ENDBRANCH  22  26
ENDBRANCH  21  22
ENDBRANCH   1  21
TORSDOF 19
