MODEL 1
REMARK VINA RESULT:      -6.4      0.000      0.000
REMARK  4 active torsions:
REMARK  status: ('A' for Active; 'I' for Inactive)
REMARK    1  A    between atoms: C_5  and  C_3 
REMARK    2  A    between atoms: O_22  and  C_3 
REMARK    3  A    between atoms: O_21  and  C_6 
REMARK    4  A    between atoms: O_22  and  C_9 
REMARK       I    between atoms: N_11  and  C_10 
ROOT
HETATM    1  C   UNK N   1      19.977  16.835   4.185  0.00  0.00     0.182 A 
HETATM    2  C   UNK N   1      21.166  18.464   3.485  0.00  0.00     0.130 A 
HETATM    3  C   UNK N   1      20.000  18.455   2.811  0.00  0.00     0.153 A 
HETATM    4  C   UNK N   1      22.133  19.436   3.207  0.00  0.00     0.188 A 
HETATM    5  C   UNK N   1      20.630  20.327   1.570  0.00  0.00     0.679 A 
HETATM    6  N   UNK N   1      20.382  21.201   0.671  0.00  0.00    -0.234 N 
ATOM      7  HN  UNK N   1      21.050  21.950   0.490  1.00  0.00     0.174 HD
HETATM    8  N   UNK N   1      21.179  17.449   4.362  0.00  0.00    -0.346 N 
ATOM      9  HN  UNK N   1      21.921  17.195   5.014  1.00  0.00     0.167 HD
HETATM   10  N   UNK N   1      19.229  17.443   3.225  0.00  0.00    -0.336 N 
HETATM   11  N   UNK N   1      19.702  19.364   1.854  0.00  0.00    -0.174 N 
HETATM   12  N   UNK N   1      21.830  20.357   2.241  0.00  0.00    -0.168 N 
ATOM     13  HN  UNK N   1      22.510  21.083   2.013  1.00  0.00     0.186 HD
HETATM   14  H   UNK N   1      19.547  21.152   0.153  0.00  0.00     0.174 HD
HETATM   15  H   UNK N   1      18.330  17.196   2.909  0.00  0.00     0.168 HD
HETATM   16  H   UNK N   1      18.843  19.333   1.376  0.00  0.00     0.186 HD
ENDROOT
BRANCH   4  17
HETATM   17  O   UNK N   1      23.339  19.495   3.835  0.00  0.00    -0.332 OA
BRANCH  17  18
HETATM   18  C   UNK N   1      24.446  20.131   3.311  0.00  0.00     0.202 C 
BRANCH  18  19
HETATM   19  C   UNK N   1      25.546  20.267   4.355  0.00  0.00     0.108 A 
HETATM   20  C   UNK N   1      26.943  20.164   3.719  0.00  0.00     0.035 A 
HETATM   21  C   UNK N   1      27.657  19.025   4.462  0.00  0.00     0.086 A 
HETATM   22  C   UNK N   1      26.579  18.519   5.338  0.00  0.00     0.111 A 
HETATM   23  N   UNK N   1      25.490  19.169   5.274  0.00  0.00    -0.368 N 
ATOM     24  HN  UNK N   1      24.661  18.934   5.819  1.00  0.00     0.161 HD
BRANCH  22  25
HETATM   25  O   UNK N   1      26.728  17.464   6.161  0.00  0.00    -0.350 OA
HETATM   26  H   UNK N   1      27.141  17.571   6.995  0.00  0.00     0.219 HD
ENDBRANCH  22  25
ENDBRANCH  18  19
ENDBRANCH  17  18
ENDBRANCH   4  17
TORSDOF 4
ENDMDL
MODEL 2
REMARK VINA RESULT:      -6.2     12.352     15.649
REMARK  4 active torsions:
REMARK  status: ('A' for Active; 'I' for Inactive)
REMARK    1  A    between atoms: C_5  and  C_3 
REMARK    2  A    between atoms: O_22  and  C_3 
REMARK    3  A    between atoms: O_21  and  C_6 
REMARK    4  A    between atoms: O_22  and  C_9 
REMARK       I    between atoms: N_11  and  C_10 
ROOT
HETATM    1  C   UNK N   1      35.272  12.257  13.612  0.00  0.00     0.182 A 
HETATM    2  C   UNK N   1      35.480  13.572  11.943  0.00  0.00     0.130 A 
HETATM    3  C   UNK N   1      36.674  13.007  12.204  0.00  0.00     0.153 A 
HETATM    4  C   UNK N   1      35.346  14.487  10.893  0.00  0.00     0.188 A 
HETATM    5  C   UNK N   1      37.677  14.169  10.446  0.00  0.00     0.679 A 
HETATM    6  N   UNK N   1      38.706  14.451   9.743  0.00  0.00    -0.234 N 
ATOM      7  HN  UNK N   1      38.619  15.074   8.940  1.00  0.00     0.174 HD
HETATM    8  N   UNK N   1      34.573  13.115  12.820  0.00  0.00    -0.346 N 
ATOM      9  HN  UNK N   1      33.583  13.356  12.880  1.00  0.00     0.167 HD
HETATM   10  N   UNK N   1      36.580  12.176  13.247  0.00  0.00    -0.336 N 
HETATM   11  N   UNK N   1      37.785  13.282  11.481  0.00  0.00    -0.174 N 
HETATM   12  N   UNK N   1      36.469  14.762  10.161  0.00  0.00    -0.168 N 
ATOM     13  HN  UNK N   1      36.409  15.423   9.385  1.00  0.00     0.186 HD
HETATM   14  H   UNK N   1      39.582  14.069   9.975  0.00  0.00     0.174 HD
HETATM   15  H   UNK N   1      37.292  11.632  13.656  0.00  0.00     0.168 HD
HETATM   16  H   UNK N   1      38.646  12.856  11.694  0.00  0.00     0.186 HD
ENDROOT
BRANCH   4  17
HETATM   17  O   UNK N   1      34.175  15.109  10.585  0.00  0.00    -0.332 OA
BRANCH  17  18
HETATM   18  C   UNK N   1      33.568  15.030   9.348  0.00  0.00     0.202 C 
BRANCH  18  19
HETATM   19  C   UNK N   1      33.071  16.396   8.893  0.00  0.00     0.108 A 
HETATM   20  C   UNK N   1      33.040  16.503   7.359  0.00  0.00     0.035 A 
HETATM   21  C   UNK N   1      33.898  17.727   7.008  0.00  0.00     0.086 A 
HETATM   22  C   UNK N   1      34.423  18.113   8.335  0.00  0.00     0.111 A 
HETATM   23  N   UNK N   1      33.990  17.416   9.304  0.00  0.00    -0.368 N 
ATOM     24  HN  UNK N   1      34.267  17.565  10.274  1.00  0.00     0.161 HD
BRANCH  22  25
HETATM   25  O   UNK N   1      35.282  19.131   8.524  0.00  0.00    -0.350 OA
HETATM   26  H   UNK N   1      35.427  19.473   9.384  0.00  0.00     0.219 HD
ENDBRANCH  22  25
ENDBRANCH  18  19
ENDBRANCH  17  18
ENDBRANCH   4  17
TORSDOF 4
ENDMDL
MODEL 3
REMARK VINA RESULT:      -6.2      6.648      8.990
REMARK  4 active torsions:
REMARK  status: ('A' for Active; 'I' for Inactive)
REMARK    1  A    between atoms: C_5  and  C_3 
REMARK    2  A    between atoms: O_22  and  C_3 
REMARK    3  A    between atoms: O_21  and  C_6 
REMARK    4  A    between atoms: O_22  and  C_9 
REMARK       I    between atoms: N_11  and  C_10 
ROOT
HETATM    1  C   UNK N   1      28.598  17.914   9.488  0.00  0.00     0.182 A 
HETATM    2  C   UNK N   1      29.345  17.661   7.503  0.00  0.00     0.130 A 
HETATM    3  C   UNK N   1      28.265  18.465   7.463  0.00  0.00     0.153 A 
HETATM    4  C   UNK N   1      30.022  17.328   6.325  0.00  0.00     0.188 A 
HETATM    5  C   UNK N   1      28.436  18.681   5.146  0.00  0.00     0.679 A 
HETATM    6  N   UNK N   1      28.011  19.158   4.039  0.00  0.00    -0.234 N 
ATOM      7  HN  UNK N   1      28.521  18.972   3.175  1.00  0.00     0.174 HD
HETATM    8  N   UNK N   1      29.579  17.296   8.773  0.00  0.00    -0.346 N 
ATOM      9  HN  UNK N   1      30.323  16.694   9.125  1.00  0.00     0.167 HD
HETATM   10  N   UNK N   1      27.770  18.644   8.692  0.00  0.00    -0.336 N 
HETATM   11  N   UNK N   1      27.787  18.988   6.310  0.00  0.00    -0.174 N 
HETATM   12  N   UNK N   1      29.539  17.860   5.160  0.00  0.00    -0.168 N 
ATOM     13  HN  UNK N   1      30.009  17.642   4.280  1.00  0.00     0.186 HD
HETATM   14  H   UNK N   1      27.193  19.704   4.018  0.00  0.00     0.174 HD
HETATM   15  H   UNK N   1      26.988  19.180   8.960  0.00  0.00     0.168 HD
HETATM   16  H   UNK N   1      26.995  19.571   6.309  0.00  0.00     0.186 HD
ENDROOT
BRANCH   4  17
HETATM   17  O   UNK N   1      31.107  16.508   6.289  0.00  0.00    -0.332 OA
BRANCH  17  18
HETATM   18  C   UNK N   1      32.315  16.859   5.719  0.00  0.00     0.202 C 
BRANCH  18  19
HETATM   19  C   UNK N   1      33.474  16.550   6.658  0.00  0.00     0.108 A 
HETATM   20  C   UNK N   1      32.979  16.217   8.075  0.00  0.00     0.035 A 
HETATM   21  C   UNK N   1      33.698  17.201   9.010  0.00  0.00     0.086 A 
HETATM   22  C   UNK N   1      34.416  18.059   8.044  0.00  0.00     0.111 A 
HETATM   23  N   UNK N   1      34.293  17.713   6.828  0.00  0.00    -0.368 N 
ATOM     24  HN  UNK N   1      34.729  18.212   6.054  1.00  0.00     0.161 HD
BRANCH  22  25
HETATM   25  O   UNK N   1      35.163  19.117   8.408  0.00  0.00    -0.350 OA
HETATM   26  H   UNK N   1      35.918  19.356   7.906  0.00  0.00     0.219 HD
ENDBRANCH  22  25
ENDBRANCH  18  19
ENDBRANCH  17  18
ENDBRANCH   4  17
TORSDOF 4
ENDMDL
MODEL 4
REMARK VINA RESULT:      -6.1      5.941      7.726
REMARK  4 active torsions:
REMARK  status: ('A' for Active; 'I' for Inactive)
REMARK    1  A    between atoms: C_5  and  C_3 
REMARK    2  A    between atoms: O_22  and  C_3 
REMARK    3  A    between atoms: O_21  and  C_6 
REMARK    4  A    between atoms: O_22  and  C_9 
REMARK       I    between atoms: N_11  and  C_10 
ROOT
HETATM    1  C   UNK N   1      22.419  16.547   6.138  0.00  0.00     0.182 A 
HETATM    2  C   UNK N   1      20.987  15.955   7.606  0.00  0.00     0.130 A 
HETATM    3  C   UNK N   1      20.842  17.272   7.364  0.00  0.00     0.153 A 
HETATM    4  C   UNK N   1      20.166  15.315   8.543  0.00  0.00     0.188 A 
HETATM    5  C   UNK N   1      19.100  17.429   8.907  0.00  0.00     0.679 A 
HETATM    6  N   UNK N   1      18.215  18.118   9.520  0.00  0.00    -0.234 N 
ATOM      7  HN  UNK N   1      17.571  17.662  10.167  1.00  0.00     0.174 HD
HETATM    8  N   UNK N   1      21.978  15.470   6.844  0.00  0.00    -0.346 N 
ATOM      9  HN  UNK N   1      22.324  14.511   6.802  1.00  0.00     0.167 HD
HETATM   10  N   UNK N   1      21.728  17.678   6.447  0.00  0.00    -0.336 N 
HETATM   11  N   UNK N   1      19.916  18.033   7.992  0.00  0.00    -0.174 N 
HETATM   12  N   UNK N   1      19.229  16.086   9.176  0.00  0.00    -0.168 N 
ATOM     13  HN  UNK N   1      18.610  15.654   9.864  1.00  0.00     0.186 HD
HETATM   14  H   UNK N   1      18.154  19.088   9.369  0.00  0.00     0.174 HD
HETATM   15  H   UNK N   1      21.850  18.583   6.080  0.00  0.00     0.168 HD
HETATM   16  H   UNK N   1      19.834  18.994   7.797  0.00  0.00     0.186 HD
ENDROOT
BRANCH   4  17
HETATM   17  O   UNK N   1      20.268  13.994   8.851  0.00  0.00    -0.332 OA
BRANCH  17  18
HETATM   18  C   UNK N   1      20.823  13.521  10.022  0.00  0.00     0.202 C 
BRANCH  18  19
HETATM   19  C   UNK N   1      21.960  12.549   9.736  0.00  0.00     0.108 A 
HETATM   20  C   UNK N   1      22.337  11.737  10.988  0.00  0.00     0.035 A 
HETATM   21  C   UNK N   1      23.838  11.981  11.206  0.00  0.00     0.086 A 
HETATM   22  C   UNK N   1      24.133  12.982  10.159  0.00  0.00     0.111 A 
HETATM   23  N   UNK N   1      23.153  13.270   9.404  0.00  0.00    -0.368 N 
ATOM     24  HN  UNK N   1      23.208  13.944   8.642  1.00  0.00     0.161 HD
BRANCH  22  25
HETATM   25  O   UNK N   1      25.344  13.543   9.992  0.00  0.00    -0.350 OA
HETATM   26  H   UNK N   1      25.854  13.347   9.230  0.00  0.00     0.219 HD
ENDBRANCH  22  25
ENDBRANCH  18  19
ENDBRANCH  17  18
ENDBRANCH   4  17
TORSDOF 4
ENDMDL
MODEL 5
REMARK VINA RESULT:      -6.0      6.613     10.747
REMARK  4 active torsions:
REMARK  status: ('A' for Active; 'I' for Inactive)
REMARK    1  A    between atoms: C_5  and  C_3 
REMARK    2  A    between atoms: O_22  and  C_3 
REMARK    3  A    between atoms: O_21  and  C_6 
REMARK    4  A    between atoms: O_22  and  C_9 
REMARK       I    between atoms: N_11  and  C_10 
ROOT
HETATM    1  C   UNK N   1      32.649  17.242   4.611  0.00  0.00     0.182 A 
HETATM    2  C   UNK N   1      32.132  17.243   6.683  0.00  0.00     0.130 A 
HETATM    3  C   UNK N   1      33.474  17.218   6.569  0.00  0.00     0.153 A 
HETATM    4  C   UNK N   1      31.530  17.241   7.947  0.00  0.00     0.188 A 
HETATM    5  C   UNK N   1      33.732  17.199   8.888  0.00  0.00     0.679 A 
HETATM    6  N   UNK N   1      34.480  17.177   9.924  0.00  0.00    -0.234 N 
ATOM      7  HN  UNK N   1      34.065  17.229  10.854  1.00  0.00     0.174 HD
HETATM    8  N   UNK N   1      31.583  17.258   5.458  0.00  0.00    -0.346 N 
ATOM      9  HN  UNK N   1      30.593  17.278   5.216  1.00  0.00     0.167 HD
HETATM   10  N   UNK N   1      33.833  17.216   5.281  0.00  0.00    -0.336 N 
HETATM   11  N   UNK N   1      34.297  17.195   7.643  0.00  0.00    -0.174 N 
HETATM   12  N   UNK N   1      32.364  17.221   9.032  0.00  0.00    -0.168 N 
ATOM     13  HN  UNK N   1      31.962  17.221   9.969  1.00  0.00     0.186 HD
HETATM   14  H   UNK N   1      35.457  17.109   9.826  0.00  0.00     0.174 HD
HETATM   15  H   UNK N   1      34.743  17.199   4.904  0.00  0.00     0.168 HD
HETATM   16  H   UNK N   1      35.274  17.176   7.531  0.00  0.00     0.186 HD
ENDROOT
BRANCH   4  17
HETATM   17  O   UNK N   1      30.183  17.247   8.136  0.00  0.00    -0.332 OA
BRANCH  17  18
HETATM   18  C   UNK N   1      29.455  18.383   8.429  0.00  0.00     0.202 C 
BRANCH  18  19
HETATM   19  C   UNK N   1      28.147  18.412   7.649  0.00  0.00     0.108 A 
HETATM   20  C   UNK N   1      28.395  18.531   6.136  0.00  0.00     0.035 A 
HETATM   21  C   UNK N   1      27.618  19.776   5.683  0.00  0.00     0.086 A 
HETATM   22  C   UNK N   1      27.120  20.302   6.971  0.00  0.00     0.111 A 
HETATM   23  N   UNK N   1      27.401  19.588   7.984  0.00  0.00    -0.368 N 
ATOM     24  HN  UNK N   1      27.125  19.828   8.935  1.00  0.00     0.161 HD
BRANCH  22  25
HETATM   25  O   UNK N   1      26.407  21.438   7.081  0.00  0.00    -0.350 OA
HETATM   26  H   UNK N   1      25.538  21.417   7.431  0.00  0.00     0.219 HD
ENDBRANCH  22  25
ENDBRANCH  18  19
ENDBRANCH  17  18
ENDBRANCH   4  17
TORSDOF 4
ENDMDL
MODEL 6
REMARK VINA RESULT:      -5.9     13.180     16.445
REMARK  4 active torsions:
REMARK  status: ('A' for Active; 'I' for Inactive)
REMARK    1  A    between atoms: C_5  and  C_3 
REMARK    2  A    between atoms: O_22  and  C_3 
REMARK    3  A    between atoms: O_21  and  C_6 
REMARK    4  A    between atoms: O_22  and  C_9 
REMARK       I    between atoms: N_11  and  C_10 
ROOT
HETATM    1  C   UNK N   1      34.359  11.085  12.753  0.00  0.00     0.182 A 
HETATM    2  C   UNK N   1      35.434  12.929  12.703  0.00  0.00     0.130 A 
HETATM    3  C   UNK N   1      35.461  12.443  13.959  0.00  0.00     0.153 A 
HETATM    4  C   UNK N   1      36.065  14.142  12.402  0.00  0.00     0.188 A 
HETATM    5  C   UNK N   1      36.715  14.264  14.704  0.00  0.00     0.679 A 
HETATM    6  N   UNK N   1      37.316  14.893  15.640  0.00  0.00    -0.234 N 
ATOM      7  HN  UNK N   1      37.827  15.751  15.432  1.00  0.00     0.174 HD
HETATM    8  N   UNK N   1      34.742  12.090  11.918  0.00  0.00    -0.346 N 
ATOM      9  HN  UNK N   1      34.548  12.182  10.921  1.00  0.00     0.167 HD
HETATM   10  N   UNK N   1      34.794  11.286  14.027  0.00  0.00    -0.336 N 
HETATM   11  N   UNK N   1      36.087  13.081  14.976  0.00  0.00    -0.174 N 
HETATM   12  N   UNK N   1      36.700  14.784  13.430  0.00  0.00    -0.168 N 
ATOM     13  HN  UNK N   1      37.173  15.670  13.248  1.00  0.00     0.186 HD
HETATM   14  H   UNK N   1      37.285  14.551  16.562  0.00  0.00     0.174 HD
HETATM   15  H   UNK N   1      34.651  10.712  14.814  0.00  0.00     0.168 HD
HETATM   16  H   UNK N   1      36.090  12.704  15.884  0.00  0.00     0.186 HD
ENDROOT
BRANCH   4  17
HETATM   17  O   UNK N   1      36.062  14.700  11.161  0.00  0.00    -0.332 OA
BRANCH  17  18
HETATM   18  C   UNK N   1      35.796  16.033  10.921  0.00  0.00     0.202 C 
BRANCH  18  19
HETATM   19  C   UNK N   1      34.567  16.195  10.037  0.00  0.00     0.108 A 
HETATM   20  C   UNK N   1      34.532  15.140   8.919  0.00  0.00     0.035 A 
HETATM   21  C   UNK N   1      34.439  15.927   7.604  0.00  0.00     0.086 A 
HETATM   22  C   UNK N   1      34.554  17.321   8.083  0.00  0.00     0.111 A 
HETATM   23  N   UNK N   1      34.620  17.449   9.345  0.00  0.00    -0.368 N 
ATOM     24  HN  UNK N   1      34.705  18.348   9.816  1.00  0.00     0.161 HD
BRANCH  22  25
HETATM   25  O   UNK N   1      34.570  18.387   7.261  0.00  0.00    -0.350 OA
HETATM   26  H   UNK N   1      35.301  18.533   6.693  0.00  0.00     0.219 HD
ENDBRANCH  22  25
ENDBRANCH  18  19
ENDBRANCH  17  18
ENDBRANCH   4  17
TORSDOF 4
ENDMDL
MODEL 7
REMARK VINA RESULT:      -5.9      1.179      2.797
REMARK  4 active torsions:
REMARK  status: ('A' for Active; 'I' for Inactive)
REMARK    1  A    between atoms: C_5  and  C_3 
REMARK    2  A    between atoms: O_22  and  C_3 
REMARK    3  A    between atoms: O_21  and  C_6 
REMARK    4  A    between atoms: O_22  and  C_9 
REMARK       I    between atoms: N_11  and  C_10 
ROOT
HETATM    1  C   UNK N   1      20.972  20.754   1.830  0.00  0.00     0.182 A 
HETATM    2  C   UNK N   1      21.317  19.217   3.271  0.00  0.00     0.130 A 
HETATM    3  C   UNK N   1      20.168  18.953   2.619  0.00  0.00     0.153 A 
HETATM    4  C   UNK N   1      21.770  18.358   4.279  0.00  0.00     0.188 A 
HETATM    5  C   UNK N   1      19.831  17.012   3.870  0.00  0.00     0.679 A 
HETATM    6  N   UNK N   1      19.136  15.978   4.154  0.00  0.00    -0.234 N 
ATOM      7  HN  UNK N   1      19.474  15.311   4.848  1.00  0.00     0.174 HD
HETATM    8  N   UNK N   1      21.848  20.352   2.791  0.00  0.00    -0.346 N 
ATOM      9  HN  UNK N   1      22.712  20.810   3.081  1.00  0.00     0.167 HD
HETATM   10  N   UNK N   1      19.920  19.900   1.707  0.00  0.00    -0.336 N 
HETATM   11  N   UNK N   1      19.406  17.868   2.892  0.00  0.00    -0.174 N 
HETATM   12  N   UNK N   1      21.000  17.260   4.552  0.00  0.00    -0.168 N 
ATOM     13  HN  UNK N   1      21.299  16.610   5.280  1.00  0.00     0.186 HD
HETATM   14  H   UNK N   1      18.274  15.824   3.704  0.00  0.00     0.174 HD
HETATM   15  H   UNK N   1      19.155  19.964   1.091  0.00  0.00     0.168 HD
HETATM   16  H   UNK N   1      18.570  17.700   2.402  0.00  0.00     0.186 HD
ENDROOT
BRANCH   4  17
HETATM   17  O   UNK N   1      22.910  18.572   4.990  0.00  0.00    -0.332 OA
BRANCH  17  18
HETATM   18  C   UNK N   1      24.178  18.346   4.492  0.00  0.00     0.202 C 
BRANCH  18  19
HETATM   19  C   UNK N   1      25.035  19.602   4.585  0.00  0.00     0.108 A 
HETATM   20  C   UNK N   1      26.106  19.636   3.482  0.00  0.00     0.035 A 
HETATM   21  C   UNK N   1      27.450  19.785   4.211  0.00  0.00     0.086 A 
HETATM   22  C   UNK N   1      27.033  19.695   5.626  0.00  0.00     0.111 A 
HETATM   23  N   UNK N   1      25.780  19.599   5.809  0.00  0.00    -0.368 N 
ATOM     24  HN  UNK N   1      25.348  19.526   6.729  1.00  0.00     0.161 HD
BRANCH  22  25
HETATM   25  O   UNK N   1      27.898  19.728   6.656  0.00  0.00    -0.350 OA
HETATM   26  H   UNK N   1      28.781  20.013   6.521  0.00  0.00     0.219 HD
ENDBRANCH  22  25
ENDBRANCH  18  19
ENDBRANCH  17  18
ENDBRANCH   4  17
TORSDOF 4
ENDMDL
MODEL 8
REMARK VINA RESULT:      -5.9      5.724      8.268
REMARK  4 active torsions:
REMARK  status: ('A' for Active; 'I' for Inactive)
REMARK    1  A    between atoms: C_5  and  C_3 
REMARK    2  A    between atoms: O_22  and  C_3 
REMARK    3  A    between atoms: O_21  and  C_6 
REMARK    4  A    between atoms: O_22  and  C_9 
REMARK       I    between atoms: N_11  and  C_10 
ROOT
HETATM    1  C   UNK N   1      27.144  20.207   4.170  0.00  0.00     0.182 A 
HETATM    2  C   UNK N   1      28.256  18.848   5.385  0.00  0.00     0.130 A 
HETATM    3  C   UNK N   1      27.481  19.610   6.181  0.00  0.00     0.153 A 
HETATM    4  C   UNK N   1      29.095  17.874   5.938  0.00  0.00     0.188 A 
HETATM    5  C   UNK N   1      28.274  18.529   8.091  0.00  0.00     0.679 A 
HETATM    6  N   UNK N   1      28.286  18.378   9.360  0.00  0.00    -0.234 N 
ATOM      7  HN  UNK N   1      28.849  17.639   9.780  1.00  0.00     0.174 HD
HETATM    8  N   UNK N   1      28.063  19.205   4.106  0.00  0.00    -0.346 N 
ATOM      9  HN  UNK N   1      28.504  18.814   3.273  1.00  0.00     0.167 HD
HETATM   10  N   UNK N   1      26.770  20.476   5.451  0.00  0.00    -0.336 N 
HETATM   11  N   UNK N   1      27.466  19.478   7.528  0.00  0.00    -0.174 N 
HETATM   12  N   UNK N   1      29.077  17.741   7.300  0.00  0.00    -0.168 N 
ATOM     13  HN  UNK N   1      29.675  17.039   7.740  1.00  0.00     0.186 HD
HETATM   14  H   UNK N   1      27.752  18.974   9.932  0.00  0.00     0.174 HD
HETATM   15  H   UNK N   1      26.125  21.150   5.766  0.00  0.00     0.168 HD
HETATM   16  H   UNK N   1      26.892  20.049   8.086  0.00  0.00     0.186 HD
ENDROOT
BRANCH   4  17
HETATM   17  O   UNK N   1      29.917  17.083   5.196  0.00  0.00    -0.332 OA
BRANCH  17  18
HETATM   18  C   UNK N   1      31.077  17.531   4.598  0.00  0.00     0.202 C 
BRANCH  18  19
HETATM   19  C   UNK N   1      32.288  16.756   5.102  0.00  0.00     0.108 A 
HETATM   20  C   UNK N   1      31.960  15.968   6.382  0.00  0.00     0.035 A 
HETATM   21  C   UNK N   1      32.982  16.431   7.430  0.00  0.00     0.086 A 
HETATM   22  C   UNK N   1      33.692  17.502   6.701  0.00  0.00     0.111 A 
HETATM   23  N   UNK N   1      33.324  17.663   5.496  0.00  0.00    -0.368 N 
ATOM     24  HN  UNK N   1      33.723  18.366   4.874  1.00  0.00     0.161 HD
BRANCH  22  25
HETATM   25  O   UNK N   1      34.669  18.249   7.249  0.00  0.00    -0.350 OA
HETATM   26  H   UNK N   1      34.853  18.185   8.165  0.00  0.00     0.219 HD
ENDBRANCH  22  25
ENDBRANCH  18  19
ENDBRANCH  17  18
ENDBRANCH   4  17
TORSDOF 4
ENDMDL
MODEL 9
REMARK VINA RESULT:      -5.8      7.628      9.783
REMARK  4 active torsions:
REMARK  status: ('A' for Active; 'I' for Inactive)
REMARK    1  A    between atoms: C_5  and  C_3 
REMARK    2  A    between atoms: O_22  and  C_3 
REMARK    3  A    between atoms: O_21  and  C_6 
REMARK    4  A    between atoms: O_22  and  C_9 
REMARK       I    between atoms: N_11  and  C_10 
ROOT
HETATM    1  C   UNK N   1      28.429  17.940   9.359  0.00  0.00     0.182 A 
HETATM    2  C   UNK N   1      29.822  17.516   7.797  0.00  0.00     0.130 A 
HETATM    3  C   UNK N   1      28.653  17.897   7.247  0.00  0.00     0.153 A 
HETATM    4  C   UNK N   1      30.906  17.172   6.982  0.00  0.00     0.188 A 
HETATM    5  C   UNK N   1      29.513  17.646   5.093  0.00  0.00     0.679 A 
HETATM    6  N   UNK N   1      29.371  17.705   3.824  0.00  0.00    -0.234 N 
ATOM      7  HN  UNK N   1      30.164  17.511   3.213  1.00  0.00     0.174 HD
HETATM    8  N   UNK N   1      29.709  17.534   9.134  0.00  0.00    -0.346 N 
ATOM      9  HN  UNK N   1      30.421  17.297   9.825  1.00  0.00     0.167 HD
HETATM   10  N   UNK N   1      27.755  18.171   8.200  0.00  0.00    -0.336 N 
HETATM   11  N   UNK N   1      28.466  17.972   5.908  0.00  0.00    -0.174 N 
HETATM   12  N   UNK N   1      30.716  17.250   5.629  0.00  0.00    -0.168 N 
ATOM     13  HN  UNK N   1      31.486  17.010   5.003  1.00  0.00     0.186 HD
HETATM   14  H   UNK N   1      28.497  17.938   3.436  0.00  0.00     0.174 HD
HETATM   15  H   UNK N   1      26.823  18.469   8.089  0.00  0.00     0.168 HD
HETATM   16  H   UNK N   1      27.600  18.252   5.534  0.00  0.00     0.186 HD
ENDROOT
BRANCH   4  17
HETATM   17  O   UNK N   1      32.109  16.761   7.469  0.00  0.00    -0.332 OA
BRANCH  17  18
HETATM   18  C   UNK N   1      33.222  17.574   7.548  0.00  0.00     0.202 C 
BRANCH  18  19
HETATM   19  C   UNK N   1      34.299  16.944   8.421  0.00  0.00     0.108 A 
HETATM   20  C   UNK N   1      34.759  15.588   7.859  0.00  0.00     0.035 A 
HETATM   21  C   UNK N   1      34.553  14.575   8.994  0.00  0.00     0.086 A 
HETATM   22  C   UNK N   1      33.894  15.409  10.022  0.00  0.00     0.111 A 
HETATM   23  N   UNK N   1      33.766  16.634   9.714  0.00  0.00    -0.368 N 
ATOM     24  HN  UNK N   1      33.329  17.326  10.322  1.00  0.00     0.161 HD
BRANCH  22  25
HETATM   25  O   UNK N   1      33.470  14.928  11.205  0.00  0.00    -0.350 OA
HETATM   26  H   UNK N   1      33.301  15.512  11.918  0.00  0.00     0.219 HD
ENDBRANCH  22  25
ENDBRANCH  18  19
ENDBRANCH  17  18
ENDBRANCH   4  17
TORSDOF 4
ENDMDL
