REMARK  7 active torsions:
REMARK  status: ('A' for Active; 'I' for Inactive)
REMARK    1  A    between atoms: C_4  and  C_1 
REMARK    2  A    between atoms: O_22  and  C_1 
REMARK    3  A    between atoms: C_6  and  O_19 
REMARK    4  A    between atoms: O_20  and  C_7 
REMARK    5  A    between atoms: N_11  and  C_8 
REMARK    6  A    between atoms: C_10  and  N_18 
REMARK    7  A    between atoms: P_24  and  O_22 
ROOT
HETATM    1  C   UNK N   1      -0.438  -1.370  -0.392  0.00  0.00     0.179 C 
HETATM    2  C   UNK N   1       0.723  -2.323  -0.139  0.00  0.00     0.182 C 
HETATM    3  C   UNK N   1       1.793  -1.299   0.191  0.00  0.00     0.198 C 
HETATM    4  C   UNK N   1       1.463  -0.219  -0.858  0.00  0.00     0.262 C 
HETATM    5  O   UNK N   1       0.087  -0.332  -1.176  0.00  0.00    -0.353 OA
ENDROOT
BRANCH   4   6
HETATM    6  N   UNK N   1       1.725   1.158  -0.417  0.00  0.00    -0.297 N 
HETATM    7  C   UNK N   1       0.765   2.112  -0.273  0.00  0.00     0.188 A 
HETATM    8  N   UNK N   1       1.293   3.306   0.102  0.00  0.00    -0.346 N 
HETATM    9  C   UNK N   1       2.612   3.072   0.183  0.00  0.00     0.122 A 
ATOM     10  HN  UNK N   1       0.800   4.181   0.281  1.00  0.00     0.167 HD
HETATM   11  C   UNK N   1       3.638   3.941   0.495  0.00  0.00     0.131 A 
HETATM   12  C   UNK N   1       2.875   1.781  -0.120  0.00  0.00     0.142 A 
HETATM   13  N   UNK N   1       4.912   3.451   0.492  0.00  0.00    -0.337 N 
HETATM   14  C   UNK N   1       5.162   2.132   0.185  0.00  0.00     0.183 A 
ATOM     15  HN  UNK N   1       5.690   4.071   0.719  1.00  0.00     0.168 HD
HETATM   16  N   UNK N   1       4.133   1.281  -0.130  0.00  0.00    -0.336 N 
ATOM     17  HN  UNK N   1       4.310   0.304  -0.365  1.00  0.00     0.168 HD
BRANCH  11  18
HETATM   18  N   UNK N   1       3.383   5.296   0.792  0.00  0.00    -0.383 N 
HETATM   19  H   UNK N   1       4.113   5.923   0.999  0.00  0.00     0.157 HD
HETATM   20  H   UNK N   1       2.454   5.622   0.792  0.00  0.00     0.157 HD
ENDBRANCH  11  18
ENDBRANCH   4   6
BRANCH   3  21
HETATM   21  O   UNK N   1       1.570  -0.808   1.483  0.00  0.00    -0.388 OA
HETATM   22  H   UNK N   1       1.787  -0.505   2.379  0.00  0.00     0.210 HD
ENDBRANCH   3  21
BRANCH   2  23
HETATM   23  O   UNK N   1       1.056  -2.993  -1.323  0.00  0.00    -0.390 OA
HETATM   24  H   UNK N   1       0.769  -3.425  -2.143  0.00  0.00     0.210 HD
ENDBRANCH   2  23
BRANCH   1  25
HETATM   25  C   UNK N   1      -1.633  -1.955  -1.143  0.00  0.00     0.211 C 
BRANCH  25  26
HETATM   26  O   UNK N   1      -2.376  -2.920  -0.441  0.00  0.00    -0.324 OA
BRANCH  26  27
HETATM   27  P   UNK N   1      -3.401  -2.118   0.741  0.00  0.00     0.243 P 
HETATM   28  O   UNK N   1      -5.034  -2.568   0.362  0.00  0.00    -0.337 OA
HETATM   29  H   UNK N   1      -5.708  -1.904   0.150  0.00  0.00     0.218 HD
HETATM   30  S   UNK N   1      -4.525  -1.398  -0.975  0.00  0.00    -0.087 SA
HETATM   31  H   UNK N   1      -4.486  -0.564  -2.049  0.00  0.00     0.111 HD
HETATM   32  S   UNK N   1      -3.646  -3.754   1.369  0.00  0.00    -0.026 SA
ENDBRANCH  26  27
ENDBRANCH  25  26
ENDBRANCH   1  25
TORSDOF 7
