MODEL 1
REMARK VINA RESULT:      -7.7      0.000      0.000
REMARK  17 active torsions:
REMARK  status: ('A' for Active; 'I' for Inactive)
REMARK    1  A    between atoms: C_1  and  N_2 
REMARK    2  A    between atoms: C_4  and  O_9 
REMARK    3  A    between atoms: C_7  and  C_13 
REMARK    4  A    between atoms: C_8  and  O_14 
REMARK    5  A    between atoms: C_13  and  O_16 
REMARK    6  A    between atoms: O_16  and  P_18 
REMARK    7  A    between atoms: P_18  and  O_19 
REMARK    8  A    between atoms: P_18  and  O_20 
REMARK    9  A    between atoms: O_19  and  P_22 
REMARK   10  A    between atoms: P_22  and  O_23 
REMARK   11  A    between atoms: P_22  and  O_24 
REMARK   12  A    between atoms: C_26  and  O_23 
REMARK   13  A    between atoms: C_28  and  O_31 
REMARK   14  A    between atoms: C_29  and  C_33 
REMARK   15  A    between atoms: C_30  and  O_34 
REMARK   16  A    between atoms: C_32  and  O_35 
REMARK   17  A    between atoms: C_33  and  O_36 
ROOT
HETATM    1  P   UNK N   1      33.030  16.625   5.346  0.00  0.00     0.401 P 
HETATM    2  O   UNK N   1      33.367  16.585   3.830  0.00  0.00    -0.631 OA
ENDROOT
BRANCH   1   3
HETATM    3  O   UNK N   1      31.305  16.912   5.476  0.00  0.00    -0.294 OA
BRANCH   3   4
HETATM    4  C   UNK N   1      31.045  17.537   6.698  0.00  0.00     0.215 C 
BRANCH   4   5
HETATM    5  C   UNK N   1      30.108  16.662   7.538  0.00  0.00     0.180 C 
HETATM    6  O   UNK N   1      28.957  16.381   6.781  0.00  0.00    -0.353 OA
HETATM    7  C   UNK N   1      27.991  17.352   7.148  0.00  0.00     0.263 C 
HETATM    8  C   UNK N   1      28.520  18.188   8.303  0.00  0.00     0.198 C 
HETATM    9  C   UNK N   1      29.608  17.310   8.813  0.00  0.00     0.182 C 
BRANCH   7  10
HETATM   10  N   UNK N   1      27.577  18.144   5.980  0.00  0.00    -0.280 N 
HETATM   11  C   UNK N   1      26.697  17.685   5.006  0.00  0.00     0.331 A 
HETATM   12  N   UNK N   1      26.301  18.516   3.993  0.00  0.00    -0.275 N 
HETATM   13  O   UNK N   1      26.252  16.550   5.045  0.00  0.00    -0.246 OA
HETATM   14  C   UNK N   1      26.753  19.803   3.925  0.00  0.00     0.250 A 
HETATM   15  H   UNK N   1      25.681  18.181   3.305  0.00  0.00     0.173 HD
HETATM   16  O   UNK N   1      26.380  20.533   3.027  0.00  0.00    -0.268 OA
HETATM   17  C   UNK N   1      27.636  20.278   4.888  0.00  0.00     0.092 A 
HETATM   18  C   UNK N   1      28.035  19.425   5.914  0.00  0.00     0.104 A 
ENDBRANCH   7  10
BRANCH   8  19
HETATM   19  O   UNK N   1      27.538  18.385   9.272  0.00  0.00    -0.388 OA
HETATM   20  H   UNK N   1      26.744  17.828   9.291  0.00  0.00     0.210 HD
ENDBRANCH   8  19
BRANCH   9  21
HETATM   21  O   UNK N   1      30.596  18.032   9.484  0.00  0.00    -0.390 OA
HETATM   22  H   UNK N   1      31.455  18.483   9.460  0.00  0.00     0.210 HD
ENDBRANCH   9  21
ENDBRANCH   4   5
ENDBRANCH   3   4
ENDBRANCH   1   3
BRANCH   1  23
HETATM   23  O   UNK N   1      33.497  15.090   6.013  0.00  0.00    -0.195 OA
BRANCH  23  24
HETATM   24  P   UNK N   1      34.446  15.501   7.400  0.00  0.00     0.404 P 
HETATM   25  O   UNK N   1      35.536  15.645   6.301  0.00  0.00    -0.631 OA
BRANCH  24  26
HETATM   26  O   UNK N   1      35.662  14.508   8.142  0.00  0.00    -0.263 OA
BRANCH  26  27
HETATM   27  C   UNK N   1      35.014  13.848   9.197  0.00  0.00     0.304 C 
HETATM   28  O   UNK N   1      34.200  14.754   9.936  0.00  0.00    -0.340 OA
HETATM   29  C   UNK N   1      34.855  15.257  11.090  0.00  0.00     0.253 C 
HETATM   30  C   UNK N   1      35.287  14.143  12.084  0.00  0.00     0.189 C 
HETATM   31  C   UNK N   1      35.400  12.774  11.420  0.00  0.00     0.183 C 
HETATM   32  C   UNK N   1      35.982  12.981  10.035  0.00  0.00     0.205 C 
BRANCH  29  33
HETATM   33  C   UNK N   1      35.887  16.310  10.768  0.00  0.00     0.172 C 
HETATM   34  O   UNK N   1      35.532  17.463  10.593  0.00  0.00    -0.648 OA
BRANCH  33  35
HETATM   35  O   UNK N   1      37.194  15.995  10.686  0.00  0.00    -0.774 OA
HETATM   36  H   UNK N   1      37.832  15.309  10.678  0.00  0.00     0.167 HD
ENDBRANCH  33  35
ENDBRANCH  29  33
BRANCH  30  37
HETATM   37  O   UNK N   1      36.490  14.468  12.717  0.00  0.00    -0.390 OA
HETATM   38  H   UNK N   1      37.448  14.383  12.587  0.00  0.00     0.210 HD
ENDBRANCH  30  37
BRANCH  31  39
HETATM   39  O   UNK N   1      34.136  12.181  11.330  0.00  0.00    -0.390 OA
HETATM   40  H   UNK N   1      33.497  11.783  11.941  0.00  0.00     0.210 HD
ENDBRANCH  31  39
BRANCH  32  41
HETATM   41  O   UNK N   1      36.204  11.751   9.411  0.00  0.00    -0.388 OA
HETATM   42  H   UNK N   1      36.674  11.594   8.578  0.00  0.00     0.210 HD
ENDBRANCH  32  41
ENDBRANCH  26  27
ENDBRANCH  24  26
BRANCH  24  43
HETATM   43  O   UNK N   1      34.002  13.821   7.390  0.00  0.00    -0.307 OA
HETATM   44  H   UNK N   1      34.176  13.191   6.673  0.00  0.00     0.222 HD
ENDBRANCH  24  43
ENDBRANCH  23  24
ENDBRANCH   1  23
BRANCH   1  45
HETATM   45  O   UNK N   1      34.025  17.873   6.011  0.00  0.00    -0.307 OA
HETATM   46  H   UNK N   1      34.701  17.654   6.671  0.00  0.00     0.222 HD
ENDBRANCH   1  45
TORSDOF 17
ENDMDL
MODEL 2
REMARK VINA RESULT:      -7.6      1.096      2.176
REMARK  17 active torsions:
REMARK  status: ('A' for Active; 'I' for Inactive)
REMARK    1  A    between atoms: C_1  and  N_2 
REMARK    2  A    between atoms: C_4  and  O_9 
REMARK    3  A    between atoms: C_7  and  C_13 
REMARK    4  A    between atoms: C_8  and  O_14 
REMARK    5  A    between atoms: C_13  and  O_16 
REMARK    6  A    between atoms: O_16  and  P_18 
REMARK    7  A    between atoms: P_18  and  O_19 
REMARK    8  A    between atoms: P_18  and  O_20 
REMARK    9  A    between atoms: O_19  and  P_22 
REMARK   10  A    between atoms: P_22  and  O_23 
REMARK   11  A    between atoms: P_22  and  O_24 
REMARK   12  A    between atoms: C_26  and  O_23 
REMARK   13  A    between atoms: C_28  and  O_31 
REMARK   14  A    between atoms: C_29  and  C_33 
REMARK   15  A    between atoms: C_30  and  O_34 
REMARK   16  A    between atoms: C_32  and  O_35 
REMARK   17  A    between atoms: C_33  and  O_36 
ROOT
HETATM    1  P   UNK N   1      33.141  16.300   5.781  0.00  0.00     0.401 P 
HETATM    2  O   UNK N   1      32.973  16.647   4.277  0.00  0.00    -0.631 OA
ENDROOT
BRANCH   1   3
HETATM    3  O   UNK N   1      32.188  17.466   6.680  0.00  0.00    -0.294 OA
BRANCH   3   4
HETATM    4  C   UNK N   1      30.878  17.444   6.194  0.00  0.00     0.215 C 
BRANCH   4   5
HETATM    5  C   UNK N   1      29.981  16.659   7.158  0.00  0.00     0.180 C 
HETATM    6  O   UNK N   1      28.747  16.420   6.530  0.00  0.00    -0.353 OA
HETATM    7  C   UNK N   1      27.878  17.460   6.947  0.00  0.00     0.263 C 
HETATM    8  C   UNK N   1      28.565  18.305   8.008  0.00  0.00     0.198 C 
HETATM    9  C   UNK N   1      29.647  17.383   8.447  0.00  0.00     0.182 C 
BRANCH   7  10
HETATM   10  N   UNK N   1      27.395  18.231   5.790  0.00  0.00    -0.280 N 
HETATM   11  C   UNK N   1      26.386  17.797   4.938  0.00  0.00     0.331 A 
HETATM   12  N   UNK N   1      25.940  18.612   3.933  0.00  0.00    -0.275 N 
HETATM   13  O   UNK N   1      25.871  16.700   5.080  0.00  0.00    -0.246 OA
HETATM   14  C   UNK N   1      26.469  19.859   3.755  0.00  0.00     0.250 A 
HETATM   15  H   UNK N   1      25.227  18.296   3.331  0.00  0.00     0.173 HD
HETATM   16  O   UNK N   1      26.051  20.576   2.865  0.00  0.00    -0.268 OA
HETATM   17  C   UNK N   1      27.481  20.307   4.595  0.00  0.00     0.092 A 
HETATM   18  C   UNK N   1      27.930  19.471   5.614  0.00  0.00     0.104 A 
ENDBRANCH   7  10
BRANCH   8  19
HETATM   19  O   UNK N   1      27.697  18.597   9.058  0.00  0.00    -0.388 OA
HETATM   20  H   UNK N   1      26.738  18.622   8.913  0.00  0.00     0.210 HD
ENDBRANCH   8  19
BRANCH   9  21
HETATM   21  O   UNK N   1      30.736  18.069   8.987  0.00  0.00    -0.390 OA
HETATM   22  H   UNK N   1      31.088  18.658   9.672  0.00  0.00     0.210 HD
ENDBRANCH   9  21
ENDBRANCH   4   5
ENDBRANCH   3   4
ENDBRANCH   1   3
BRANCH   1  23
HETATM   23  O   UNK N   1      32.569  14.673   5.997  0.00  0.00    -0.195 OA
BRANCH  23  24
HETATM   24  P   UNK N   1      33.837  13.891   6.875  0.00  0.00     0.404 P 
HETATM   25  O   UNK N   1      32.793  12.740   6.869  0.00  0.00    -0.631 OA
BRANCH  24  26
HETATM   26  O   UNK N   1      33.849  13.553   8.578  0.00  0.00    -0.263 OA
BRANCH  26  27
HETATM   27  C   UNK N   1      34.322  14.724   9.190  0.00  0.00     0.304 C 
HETATM   28  O   UNK N   1      35.635  15.037   8.734  0.00  0.00    -0.340 OA
HETATM   29  C   UNK N   1      36.644  14.563   9.613  0.00  0.00     0.253 C 
HETATM   30  C   UNK N   1      36.527  15.145  11.049  0.00  0.00     0.189 C 
HETATM   31  C   UNK N   1      35.125  15.659  11.363  0.00  0.00     0.183 C 
HETATM   32  C   UNK N   1      34.132  14.708  10.724  0.00  0.00     0.205 C 
BRANCH  29  33
HETATM   33  C   UNK N   1      36.866  13.075   9.505  0.00  0.00     0.172 C 
HETATM   34  O   UNK N   1      37.692  12.648   8.716  0.00  0.00    -0.648 OA
BRANCH  33  35
HETATM   35  O   UNK N   1      36.176  12.215  10.278  0.00  0.00    -0.774 OA
HETATM   36  H   UNK N   1      35.330  11.902  10.535  0.00  0.00     0.167 HD
ENDBRANCH  33  35
ENDBRANCH  29  33
BRANCH  30  37
HETATM   37  O   UNK N   1      36.919  14.207  12.009  0.00  0.00    -0.390 OA
HETATM   38  H   UNK N   1      37.504  13.440  12.106  0.00  0.00     0.210 HD
ENDBRANCH  30  37
BRANCH  31  39
HETATM   39  O   UNK N   1      34.962  16.949  10.845  0.00  0.00    -0.390 OA
HETATM   40  H   UNK N   1      35.498  17.753  10.770  0.00  0.00     0.210 HD
ENDBRANCH  31  39
BRANCH  32  41
HETATM   41  O   UNK N   1      32.825  15.069  11.061  0.00  0.00    -0.388 OA
HETATM   42  H   UNK N   1      32.036  14.995  10.504  0.00  0.00     0.210 HD
ENDBRANCH  32  41
ENDBRANCH  26  27
ENDBRANCH  24  26
BRANCH  24  43
HETATM   43  O   UNK N   1      33.104  15.173   7.793  0.00  0.00    -0.307 OA
HETATM   44  H   UNK N   1      33.353  15.443   8.690  0.00  0.00     0.222 HD
ENDBRANCH  24  43
ENDBRANCH  23  24
ENDBRANCH   1  23
BRANCH   1  45
HETATM   45  O   UNK N   1      34.841  16.362   6.087  0.00  0.00    -0.307 OA
HETATM   46  H   UNK N   1      35.168  16.461   6.995  0.00  0.00     0.222 HD
ENDBRANCH   1  45
TORSDOF 17
ENDMDL
MODEL 3
REMARK VINA RESULT:      -7.4      4.221      9.081
REMARK  17 active torsions:
REMARK  status: ('A' for Active; 'I' for Inactive)
REMARK    1  A    between atoms: C_1  and  N_2 
REMARK    2  A    between atoms: C_4  and  O_9 
REMARK    3  A    between atoms: C_7  and  C_13 
REMARK    4  A    between atoms: C_8  and  O_14 
REMARK    5  A    between atoms: C_13  and  O_16 
REMARK    6  A    between atoms: O_16  and  P_18 
REMARK    7  A    between atoms: P_18  and  O_19 
REMARK    8  A    between atoms: P_18  and  O_20 
REMARK    9  A    between atoms: O_19  and  P_22 
REMARK   10  A    between atoms: P_22  and  O_23 
REMARK   11  A    between atoms: P_22  and  O_24 
REMARK   12  A    between atoms: C_26  and  O_23 
REMARK   13  A    between atoms: C_28  and  O_31 
REMARK   14  A    between atoms: C_29  and  C_33 
REMARK   15  A    between atoms: C_30  and  O_34 
REMARK   16  A    between atoms: C_32  and  O_35 
REMARK   17  A    between atoms: C_33  and  O_36 
ROOT
HETATM    1  P   UNK N   1      33.531  10.538  10.263  0.00  0.00     0.401 P 
HETATM    2  O   UNK N   1      33.643   9.167   9.542  0.00  0.00    -0.631 OA
ENDROOT
BRANCH   1   3
HETATM    3  O   UNK N   1      33.501  10.206  11.984  0.00  0.00    -0.294 OA
BRANCH   3   4
HETATM    4  C   UNK N   1      34.721  10.601  12.538  0.00  0.00     0.215 C 
BRANCH   4   5
HETATM    5  C   UNK N   1      34.480  11.666  13.613  0.00  0.00     0.180 C 
HETATM    6  O   UNK N   1      34.628  12.936  13.028  0.00  0.00    -0.353 OA
HETATM    7  C   UNK N   1      35.967  13.335  13.271  0.00  0.00     0.263 C 
HETATM    8  C   UNK N   1      36.643  12.325  14.185  0.00  0.00     0.198 C 
HETATM    9  C   UNK N   1      35.461  11.636  14.768  0.00  0.00     0.182 C 
BRANCH   7  10
HETATM   10  N   UNK N   1      36.680  13.565  12.005  0.00  0.00    -0.280 N 
HETATM   11  C   UNK N   1      36.475  14.673  11.191  0.00  0.00     0.331 A 
HETATM   12  N   UNK N   1      37.239  14.852  10.070  0.00  0.00    -0.275 N 
HETATM   13  O   UNK N   1      35.630  15.509  11.468  0.00  0.00    -0.246 OA
HETATM   14  C   UNK N   1      38.215  13.956   9.737  0.00  0.00     0.250 A 
HETATM   15  H   UNK N   1      37.084  15.638   9.496  0.00  0.00     0.173 HD
HETATM   16  O   UNK N   1      38.894  14.137   8.745  0.00  0.00    -0.268 OA
HETATM   17  C   UNK N   1      38.431  12.840  10.537  0.00  0.00     0.092 A 
HETATM   18  C   UNK N   1      37.648  12.666  11.675  0.00  0.00     0.104 A 
ENDBRANCH   7  10
BRANCH   8  19
HETATM   19  O   UNK N   1      37.391  12.963  15.172  0.00  0.00    -0.388 OA
HETATM   20  H   UNK N   1      38.019  13.664  14.941  0.00  0.00     0.210 HD
ENDBRANCH   8  19
BRANCH   9  21
HETATM   21  O   UNK N   1      35.763  10.341  15.195  0.00  0.00    -0.390 OA
HETATM   22  H   UNK N   1      35.474   9.427  15.339  0.00  0.00     0.210 HD
ENDBRANCH   9  21
ENDBRANCH   4   5
ENDBRANCH   3   4
ENDBRANCH   1   3
BRANCH   1  23
HETATM   23  O   UNK N   1      34.918  11.475   9.795  0.00  0.00    -0.195 OA
BRANCH  23  24
HETATM   24  P   UNK N   1      34.344  12.460   8.493  0.00  0.00     0.404 P 
HETATM   25  O   UNK N   1      35.866  12.495   8.179  0.00  0.00    -0.631 OA
BRANCH  24  26
HETATM   26  O   UNK N   1      34.518  14.182   8.356  0.00  0.00    -0.263 OA
BRANCH  26  27
HETATM   27  C   UNK N   1      33.275  14.715   8.733  0.00  0.00     0.304 C 
HETATM   28  O   UNK N   1      32.214  14.054   8.050  0.00  0.00    -0.340 OA
HETATM   29  C   UNK N   1      31.792  14.755   6.890  0.00  0.00     0.253 C 
HETATM   30  C   UNK N   1      31.291  16.195   7.193  0.00  0.00     0.189 C 
HETATM   31  C   UNK N   1      31.819  16.735   8.519  0.00  0.00     0.183 C 
HETATM   32  C   UNK N   1      33.251  16.260   8.671  0.00  0.00     0.205 C 
BRANCH  29  33
HETATM   33  C   UNK N   1      32.749  14.604   5.733  0.00  0.00     0.172 C 
HETATM   34  O   UNK N   1      32.590  13.692   4.940  0.00  0.00    -0.648 OA
BRANCH  33  35
HETATM   35  O   UNK N   1      33.763  15.472   5.556  0.00  0.00    -0.774 OA
HETATM   36  H   UNK N   1      34.066  16.238   5.109  0.00  0.00     0.167 HD
ENDBRANCH  33  35
ENDBRANCH  29  33
BRANCH  30  37
HETATM   37  O   UNK N   1      31.616  17.073   6.155  0.00  0.00    -0.390 OA
HETATM   38  H   UNK N   1      31.198  17.534   5.411  0.00  0.00     0.210 HD
ENDBRANCH  30  37
BRANCH  31  39
HETATM   39  O   UNK N   1      31.036  16.257   9.575  0.00  0.00    -0.390 OA
HETATM   40  H   UNK N   1      30.962  15.435  10.083  0.00  0.00     0.210 HD
ENDBRANCH  31  39
BRANCH  32  41
HETATM   41  O   UNK N   1      33.826  16.806   9.821  0.00  0.00    -0.388 OA
HETATM   42  H   UNK N   1      34.409  17.579   9.873  0.00  0.00     0.210 HD
ENDBRANCH  32  41
ENDBRANCH  26  27
ENDBRANCH  24  26
BRANCH  24  43
HETATM   43  O   UNK N   1      34.173  13.250  10.032  0.00  0.00    -0.307 OA
HETATM   44  H   UNK N   1      33.805  14.136  10.178  0.00  0.00     0.222 HD
ENDBRANCH  24  43
ENDBRANCH  23  24
ENDBRANCH   1  23
BRANCH   1  45
HETATM   45  O   UNK N   1      32.096  11.275   9.640  0.00  0.00    -0.307 OA
HETATM   46  H   UNK N   1      31.900  11.230   8.691  0.00  0.00     0.222 HD
ENDBRANCH   1  45
TORSDOF 17
ENDMDL
MODEL 4
REMARK VINA RESULT:      -7.3      9.121     11.608
REMARK  17 active torsions:
REMARK  status: ('A' for Active; 'I' for Inactive)
REMARK    1  A    between atoms: C_1  and  N_2 
REMARK    2  A    between atoms: C_4  and  O_9 
REMARK    3  A    between atoms: C_7  and  C_13 
REMARK    4  A    between atoms: C_8  and  O_14 
REMARK    5  A    between atoms: C_13  and  O_16 
REMARK    6  A    between atoms: O_16  and  P_18 
REMARK    7  A    between atoms: P_18  and  O_19 
REMARK    8  A    between atoms: P_18  and  O_20 
REMARK    9  A    between atoms: O_19  and  P_22 
REMARK   10  A    between atoms: P_22  and  O_23 
REMARK   11  A    between atoms: P_22  and  O_24 
REMARK   12  A    between atoms: C_26  and  O_23 
REMARK   13  A    between atoms: C_28  and  O_31 
REMARK   14  A    between atoms: C_29  and  C_33 
REMARK   15  A    between atoms: C_30  and  O_34 
REMARK   16  A    between atoms: C_32  and  O_35 
REMARK   17  A    between atoms: C_33  and  O_36 
ROOT
HETATM    1  P   UNK N   1      19.367  16.525   8.200  0.00  0.00     0.401 P 
HETATM    2  O   UNK N   1      19.217  17.863   8.974  0.00  0.00    -0.631 OA
ENDROOT
BRANCH   1   3
HETATM    3  O   UNK N   1      20.876  16.617   7.313  0.00  0.00    -0.294 OA
BRANCH   3   4
HETATM    4  C   UNK N   1      20.590  16.819   5.960  0.00  0.00     0.215 C 
BRANCH   4   5
HETATM    5  C   UNK N   1      21.103  15.630   5.139  0.00  0.00     0.180 C 
HETATM    6  O   UNK N   1      21.906  16.119   4.094  0.00  0.00    -0.353 OA
HETATM    7  C   UNK N   1      21.062  16.232   2.961  0.00  0.00     0.263 C 
HETATM    8  C   UNK N   1      19.698  15.640   3.278  0.00  0.00     0.198 C 
HETATM    9  C   UNK N   1      20.021  14.808   4.469  0.00  0.00     0.182 C 
BRANCH   7  10
HETATM   10  N   UNK N   1      21.012  17.622   2.483  0.00  0.00    -0.280 N 
HETATM   11  C   UNK N   1      20.439  18.007   1.276  0.00  0.00     0.331 A 
HETATM   12  N   UNK N   1      20.362  19.332   0.944  0.00  0.00    -0.275 N 
HETATM   13  O   UNK N   1      19.981  17.178   0.506  0.00  0.00    -0.246 OA
HETATM   14  C   UNK N   1      20.838  20.295   1.789  0.00  0.00     0.250 A 
HETATM   15  H   UNK N   1      19.959  19.595   0.085  0.00  0.00     0.173 HD
HETATM   16  O   UNK N   1      20.750  21.469   1.485  0.00  0.00    -0.268 OA
HETATM   17  C   UNK N   1      21.418  19.928   2.998  0.00  0.00     0.092 A 
HETATM   18  C   UNK N   1      21.493  18.577   3.327  0.00  0.00     0.104 A 
ENDBRANCH   7  10
BRANCH   8  19
HETATM   19  O   UNK N   1      19.235  14.852   2.226  0.00  0.00    -0.388 OA
HETATM   20  H   UNK N   1      18.816  13.995   2.399  0.00  0.00     0.210 HD
ENDBRANCH   8  19
BRANCH   9  21
HETATM   21  O   UNK N   1      18.907  14.600   5.284  0.00  0.00    -0.390 OA
HETATM   22  H   UNK N   1      18.546  14.316   6.138  0.00  0.00     0.210 HD
ENDBRANCH   9  21
ENDBRANCH   4   5
ENDBRANCH   3   4
ENDBRANCH   1   3
BRANCH   1  23
HETATM   23  O   UNK N   1      19.373  15.251   9.383  0.00  0.00    -0.195 OA
BRANCH  23  24
HETATM   24  P   UNK N   1      20.828  14.374   9.054  0.00  0.00     0.404 P 
HETATM   25  O   UNK N   1      20.016  13.992   7.786  0.00  0.00    -0.631 OA
BRANCH  24  26
HETATM   26  O   UNK N   1      21.032  12.652   9.152  0.00  0.00    -0.263 OA
BRANCH  26  27
HETATM   27  C   UNK N   1      22.313  12.397   8.638  0.00  0.00     0.304 C 
HETATM   28  O   UNK N   1      22.845  11.193   9.184  0.00  0.00    -0.340 OA
HETATM   29  C   UNK N   1      23.698  11.429  10.294  0.00  0.00     0.253 C 
HETATM   30  C   UNK N   1      24.915  12.333   9.950  0.00  0.00     0.189 C 
HETATM   31  C   UNK N   1      24.685  13.179   8.702  0.00  0.00     0.183 C 
HETATM   32  C   UNK N   1      23.238  13.633   8.714  0.00  0.00     0.205 C 
BRANCH  29  33
HETATM   33  C   UNK N   1      22.941  11.770  11.554  0.00  0.00     0.172 C 
HETATM   34  O   UNK N   1      23.555  12.147  12.537  0.00  0.00    -0.648 OA
BRANCH  33  35
HETATM   35  O   UNK N   1      21.598  11.677  11.600  0.00  0.00    -0.774 OA
HETATM   36  H   UNK N   1      20.818  11.878  12.080  0.00  0.00     0.167 HD
ENDBRANCH  33  35
ENDBRANCH  29  33
BRANCH  30  37
HETATM   37  O   UNK N   1      25.257  13.153  11.028  0.00  0.00    -0.390 OA
HETATM   38  H   UNK N   1      24.840  13.718  11.698  0.00  0.00     0.210 HD
ENDBRANCH  30  37
BRANCH  31  39
HETATM   39  O   UNK N   1      24.944  12.421   7.555  0.00  0.00    -0.390 OA
HETATM   40  H   UNK N   1      25.704  12.251   6.977  0.00  0.00     0.210 HD
ENDBRANCH  31  39
BRANCH  32  41
HETATM   41  O   UNK N   1      22.990  14.498   7.646  0.00  0.00    -0.388 OA
HETATM   42  H   UNK N   1      22.787  14.254   6.730  0.00  0.00     0.210 HD
ENDBRANCH  32  41
ENDBRANCH  26  27
ENDBRANCH  24  26
BRANCH  24  43
HETATM   43  O   UNK N   1      19.944  13.693  10.388  0.00  0.00    -0.307 OA
HETATM   44  H   UNK N   1      19.274  12.995  10.328  0.00  0.00     0.222 HD
ENDBRANCH  24  43
ENDBRANCH  23  24
ENDBRANCH   1  23
BRANCH   1  45
HETATM   45  O   UNK N   1      17.952  16.395   7.215  0.00  0.00    -0.307 OA
HETATM   46  H   UNK N   1      17.072  16.437   7.621  0.00  0.00     0.222 HD
ENDBRANCH   1  45
TORSDOF 17
ENDMDL
MODEL 5
REMARK VINA RESULT:      -7.2      2.441      4.286
REMARK  17 active torsions:
REMARK  status: ('A' for Active; 'I' for Inactive)
REMARK    1  A    between atoms: C_1  and  N_2 
REMARK    2  A    between atoms: C_4  and  O_9 
REMARK    3  A    between atoms: C_7  and  C_13 
REMARK    4  A    between atoms: C_8  and  O_14 
REMARK    5  A    between atoms: C_13  and  O_16 
REMARK    6  A    between atoms: O_16  and  P_18 
REMARK    7  A    between atoms: P_18  and  O_19 
REMARK    8  A    between atoms: P_18  and  O_20 
REMARK    9  A    between atoms: O_19  and  P_22 
REMARK   10  A    between atoms: P_22  and  O_23 
REMARK   11  A    between atoms: P_22  and  O_24 
REMARK   12  A    between atoms: C_26  and  O_23 
REMARK   13  A    between atoms: C_28  and  O_31 
REMARK   14  A    between atoms: C_29  and  C_33 
REMARK   15  A    between atoms: C_30  and  O_34 
REMARK   16  A    between atoms: C_32  and  O_35 
REMARK   17  A    between atoms: C_33  and  O_36 
ROOT
HETATM    1  P   UNK N   1      34.514  17.660   8.655  0.00  0.00     0.401 P 
HETATM    2  O   UNK N   1      34.787  19.151   8.317  0.00  0.00    -0.631 OA
ENDROOT
BRANCH   1   3
HETATM    3  O   UNK N   1      34.905  16.734   7.219  0.00  0.00    -0.294 OA
BRANCH   3   4
HETATM    4  C   UNK N   1      33.878  16.897   6.286  0.00  0.00     0.215 C 
BRANCH   4   5
HETATM    5  C   UNK N   1      33.894  15.734   5.289  0.00  0.00     0.180 C 
HETATM    6  O   UNK N   1      32.980  16.012   4.258  0.00  0.00    -0.353 OA
HETATM    7  C   UNK N   1      31.766  15.374   4.618  0.00  0.00     0.263 C 
HETATM    8  C   UNK N   1      31.982  14.530   5.864  0.00  0.00     0.198 C 
HETATM    9  C   UNK N   1      33.464  14.399   5.863  0.00  0.00     0.182 C 
BRANCH   7  10
HETATM   10  N   UNK N   1      30.677  16.356   4.744  0.00  0.00    -0.280 N 
HETATM   11  C   UNK N   1      29.915  16.809   3.673  0.00  0.00     0.331 A 
HETATM   12  N   UNK N   1      28.868  17.663   3.889  0.00  0.00    -0.275 N 
HETATM   13  O   UNK N   1      30.151  16.442   2.534  0.00  0.00    -0.246 OA
HETATM   14  C   UNK N   1      28.550  18.077   5.152  0.00  0.00     0.250 A 
HETATM   15  H   UNK N   1      28.335  17.982   3.124  0.00  0.00     0.173 HD
HETATM   16  O   UNK N   1      27.608  18.826   5.328  0.00  0.00    -0.268 OA
HETATM   17  C   UNK N   1      29.304  17.638   6.234  0.00  0.00     0.092 A 
HETATM   18  C   UNK N   1      30.369  16.770   6.004  0.00  0.00     0.104 A 
ENDBRANCH   7  10
BRANCH   8  19
HETATM   19  O   UNK N   1      31.368  13.286   5.741  0.00  0.00    -0.388 OA
HETATM   20  H   UNK N   1      31.495  12.749   4.944  0.00  0.00     0.210 HD
ENDBRANCH   8  19
BRANCH   9  21
HETATM   21  O   UNK N   1      33.972  14.165   7.142  0.00  0.00    -0.390 OA
HETATM   22  H   UNK N   1      33.823  14.121   8.099  0.00  0.00     0.210 HD
ENDBRANCH   9  21
ENDBRANCH   4   5
ENDBRANCH   3   4
ENDBRANCH   1   3
BRANCH   1  23
HETATM   23  O   UNK N   1      35.531  17.249  10.003  0.00  0.00    -0.195 OA
BRANCH  23  24
HETATM   24  P   UNK N   1      35.585  15.520   9.982  0.00  0.00     0.404 P 
HETATM   25  O   UNK N   1      34.408  15.720  10.976  0.00  0.00    -0.631 OA
BRANCH  24  26
HETATM   26  O   UNK N   1      36.175  14.497  11.255  0.00  0.00    -0.263 OA
BRANCH  26  27
HETATM   27  C   UNK N   1      36.567  13.305  10.626  0.00  0.00     0.304 C 
HETATM   28  O   UNK N   1      35.459  12.421  10.484  0.00  0.00    -0.340 OA
HETATM   29  C   UNK N   1      35.390  11.461  11.527  0.00  0.00     0.253 C 
HETATM   30  C   UNK N   1      36.658  10.567  11.621  0.00  0.00     0.189 C 
HETATM   31  C   UNK N   1      37.878  11.205  10.964  0.00  0.00     0.183 C 
HETATM   32  C   UNK N   1      37.836  12.691  11.261  0.00  0.00     0.205 C 
BRANCH  29  33
HETATM   33  C   UNK N   1      34.876  12.039  12.823  0.00  0.00     0.172 C 
HETATM   34  O   UNK N   1      34.918  11.364  13.838  0.00  0.00    -0.648 OA
BRANCH  33  35
HETATM   35  O   UNK N   1      34.387  13.292  12.875  0.00  0.00    -0.774 OA
HETATM   36  H   UNK N   1      34.326  14.086  13.369  0.00  0.00     0.167 HD
ENDBRANCH  33  35
ENDBRANCH  29  33
BRANCH  30  37
HETATM   37  O   UNK N   1      36.947  10.235  12.948  0.00  0.00    -0.390 OA
HETATM   38  H   UNK N   1      37.139   9.459  13.497  0.00  0.00     0.210 HD
ENDBRANCH  30  37
BRANCH  31  39
HETATM   39  O   UNK N   1      37.846  10.987   9.583  0.00  0.00    -0.390 OA
HETATM   40  H   UNK N   1      37.168  10.831   8.907  0.00  0.00     0.210 HD
ENDBRANCH  31  39
BRANCH  32  41
HETATM   41  O   UNK N   1      38.984  13.318  10.771  0.00  0.00    -0.388 OA
HETATM   42  H   UNK N   1      39.865  13.327  11.176  0.00  0.00     0.210 HD
ENDBRANCH  32  41
ENDBRANCH  26  27
ENDBRANCH  24  26
BRANCH  24  43
HETATM   43  O   UNK N   1      36.975  16.206  10.770  0.00  0.00    -0.307 OA
HETATM   44  H   UNK N   1      36.985  17.020  11.297  0.00  0.00     0.222 HD
ENDBRANCH  24  43
ENDBRANCH  23  24
ENDBRANCH   1  23
BRANCH   1  45
HETATM   45  O   UNK N   1      32.855  17.587   9.137  0.00  0.00    -0.307 OA
HETATM   46  H   UNK N   1      32.626  17.506  10.076  0.00  0.00     0.222 HD
ENDBRANCH   1  45
TORSDOF 17
ENDMDL
MODEL 6
REMARK VINA RESULT:      -7.2      9.413     11.654
REMARK  17 active torsions:
REMARK  status: ('A' for Active; 'I' for Inactive)
REMARK    1  A    between atoms: C_1  and  N_2 
REMARK    2  A    between atoms: C_4  and  O_9 
REMARK    3  A    between atoms: C_7  and  C_13 
REMARK    4  A    between atoms: C_8  and  O_14 
REMARK    5  A    between atoms: C_13  and  O_16 
REMARK    6  A    between atoms: O_16  and  P_18 
REMARK    7  A    between atoms: P_18  and  O_19 
REMARK    8  A    between atoms: P_18  and  O_20 
REMARK    9  A    between atoms: O_19  and  P_22 
REMARK   10  A    between atoms: P_22  and  O_23 
REMARK   11  A    between atoms: P_22  and  O_24 
REMARK   12  A    between atoms: C_26  and  O_23 
REMARK   13  A    between atoms: C_28  and  O_31 
REMARK   14  A    between atoms: C_29  and  C_33 
REMARK   15  A    between atoms: C_30  and  O_34 
REMARK   16  A    between atoms: C_32  and  O_35 
REMARK   17  A    between atoms: C_33  and  O_36 
ROOT
HETATM    1  P   UNK N   1      19.022  16.738   8.244  0.00  0.00     0.401 P 
HETATM    2  O   UNK N   1      18.318  17.915   8.972  0.00  0.00    -0.631 OA
ENDROOT
BRANCH   1   3
HETATM    3  O   UNK N   1      20.662  17.258   7.905  0.00  0.00    -0.294 OA
BRANCH   3   4
HETATM    4  C   UNK N   1      20.885  17.170   6.528  0.00  0.00     0.215 C 
BRANCH   4   5
HETATM    5  C   UNK N   1      22.303  16.650   6.266  0.00  0.00     0.180 C 
HETATM    6  O   UNK N   1      23.048  17.668   5.647  0.00  0.00    -0.353 OA
HETATM    7  C   UNK N   1      22.961  17.435   4.251  0.00  0.00     0.263 C 
HETATM    8  C   UNK N   1      22.249  16.116   3.997  0.00  0.00     0.198 C 
HETATM    9  C   UNK N   1      22.380  15.463   5.327  0.00  0.00     0.182 C 
BRANCH   7  10
HETATM   10  N   UNK N   1      22.349  18.585   3.567  0.00  0.00    -0.280 N 
HETATM   11  C   UNK N   1      23.019  19.774   3.302  0.00  0.00     0.331 A 
HETATM   12  N   UNK N   1      22.400  20.765   2.588  0.00  0.00    -0.275 N 
HETATM   13  O   UNK N   1      24.166  19.948   3.680  0.00  0.00    -0.246 OA
HETATM   14  C   UNK N   1      21.127  20.602   2.122  0.00  0.00     0.250 A 
HETATM   15  H   UNK N   1      22.881  21.606   2.408  0.00  0.00     0.173 HD
HETATM   16  O   UNK N   1      20.597  21.487   1.478  0.00  0.00    -0.268 OA
HETATM   17  C   UNK N   1      20.441  19.421   2.382  0.00  0.00     0.092 A 
HETATM   18  C   UNK N   1      21.077  18.419   3.109  0.00  0.00     0.104 A 
ENDBRANCH   7  10
BRANCH   8  19
HETATM   19  O   UNK N   1      22.896  15.377   3.009  0.00  0.00    -0.388 OA
HETATM   20  H   UNK N   1      23.487  14.646   3.246  0.00  0.00     0.210 HD
ENDBRANCH   8  19
BRANCH   9  21
HETATM   21  O   UNK N   1      21.375  14.521   5.553  0.00  0.00    -0.390 OA
HETATM   22  H   UNK N   1      21.046  13.615   5.440  0.00  0.00     0.210 HD
ENDBRANCH   9  21
ENDBRANCH   4   5
ENDBRANCH   3   4
ENDBRANCH   1   3
BRANCH   1  23
HETATM   23  O   UNK N   1      18.971  15.371   9.315  0.00  0.00    -0.195 OA
BRANCH  23  24
HETATM   24  P   UNK N   1      20.504  14.600   9.093  0.00  0.00     0.404 P 
HETATM   25  O   UNK N   1      19.854  14.262   7.723  0.00  0.00    -0.631 OA
BRANCH  24  26
HETATM   26  O   UNK N   1      20.803  12.890   9.106  0.00  0.00    -0.263 OA
BRANCH  26  27
HETATM   27  C   UNK N   1      22.198  12.754   9.180  0.00  0.00     0.304 C 
HETATM   28  O   UNK N   1      22.798  13.018   7.915  0.00  0.00    -0.340 OA
HETATM   29  C   UNK N   1      23.052  11.834   7.174  0.00  0.00     0.253 C 
HETATM   30  C   UNK N   1      23.995  10.842   7.910  0.00  0.00     0.189 C 
HETATM   31  C   UNK N   1      24.032  11.074   9.417  0.00  0.00     0.183 C 
HETATM   32  C   UNK N   1      22.628  11.435   9.863  0.00  0.00     0.205 C 
BRANCH  29  33
HETATM   33  C   UNK N   1      21.805  11.248   6.559  0.00  0.00     0.172 C 
HETATM   34  O   UNK N   1      21.855  10.147   6.037  0.00  0.00    -0.648 OA
BRANCH  33  35
HETATM   35  O   UNK N   1      20.636  11.916   6.594  0.00  0.00    -0.774 OA
HETATM   36  H   UNK N   1      19.720  11.897   6.397  0.00  0.00     0.167 HD
ENDBRANCH  33  35
ENDBRANCH  29  33
BRANCH  30  37
HETATM   37  O   UNK N   1      23.646   9.516   7.638  0.00  0.00    -0.390 OA
HETATM   38  H   UNK N   1      23.265   8.740   8.079  0.00  0.00     0.210 HD
ENDBRANCH  30  37
BRANCH  31  39
HETATM   39  O   UNK N   1      24.918  12.114   9.719  0.00  0.00    -0.390 OA
HETATM   40  H   UNK N   1      24.873  12.973  10.166  0.00  0.00     0.210 HD
ENDBRANCH  31  39
BRANCH  32  41
HETATM   41  O   UNK N   1      22.576  11.562  11.252  0.00  0.00    -0.388 OA
HETATM   42  H   UNK N   1      23.193  12.049  11.819  0.00  0.00     0.210 HD
ENDBRANCH  32  41
ENDBRANCH  26  27
ENDBRANCH  24  26
BRANCH  24  43
HETATM   43  O   UNK N   1      19.529  13.783  10.278  0.00  0.00    -0.307 OA
HETATM   44  H   UNK N   1      18.575  13.901  10.409  0.00  0.00     0.222 HD
ENDBRANCH  24  43
ENDBRANCH  23  24
ENDBRANCH   1  23
BRANCH   1  45
HETATM   45  O   UNK N   1      18.060  16.414   6.844  0.00  0.00    -0.307 OA
HETATM   46  H   UNK N   1      18.307  16.794   5.987  0.00  0.00     0.222 HD
ENDBRANCH   1  45
TORSDOF 17
ENDMDL
MODEL 7
REMARK VINA RESULT:      -7.1      8.475     11.137
REMARK  17 active torsions:
REMARK  status: ('A' for Active; 'I' for Inactive)
REMARK    1  A    between atoms: C_1  and  N_2 
REMARK    2  A    between atoms: C_4  and  O_9 
REMARK    3  A    between atoms: C_7  and  C_13 
REMARK    4  A    between atoms: C_8  and  O_14 
REMARK    5  A    between atoms: C_13  and  O_16 
REMARK    6  A    between atoms: O_16  and  P_18 
REMARK    7  A    between atoms: P_18  and  O_19 
REMARK    8  A    between atoms: P_18  and  O_20 
REMARK    9  A    between atoms: O_19  and  P_22 
REMARK   10  A    between atoms: P_22  and  O_23 
REMARK   11  A    between atoms: P_22  and  O_24 
REMARK   12  A    between atoms: C_26  and  O_23 
REMARK   13  A    between atoms: C_28  and  O_31 
REMARK   14  A    between atoms: C_29  and  C_33 
REMARK   15  A    between atoms: C_30  and  O_34 
REMARK   16  A    between atoms: C_32  and  O_35 
REMARK   17  A    between atoms: C_33  and  O_36 
ROOT
HETATM    1  P   UNK N   1      19.387  16.573   8.268  0.00  0.00     0.401 P 
HETATM    2  O   UNK N   1      19.021  17.822   9.115  0.00  0.00    -0.631 OA
ENDROOT
BRANCH   1   3
HETATM    3  O   UNK N   1      20.991  16.853   7.616  0.00  0.00    -0.294 OA
BRANCH   3   4
HETATM    4  C   UNK N   1      20.869  17.242   6.279  0.00  0.00     0.215 C 
BRANCH   4   5
HETATM    5  C   UNK N   1      20.928  16.008   5.373  0.00  0.00     0.180 C 
HETATM    6  O   UNK N   1      22.257  15.818   4.958  0.00  0.00    -0.353 OA
HETATM    7  C   UNK N   1      22.376  16.455   3.696  0.00  0.00     0.263 C 
HETATM    8  C   UNK N   1      21.009  16.936   3.236  0.00  0.00     0.198 C 
HETATM    9  C   UNK N   1      20.116  16.117   4.099  0.00  0.00     0.182 C 
BRANCH   7  10
HETATM   10  N   UNK N   1      23.397  17.513   3.739  0.00  0.00    -0.280 N 
HETATM   11  C   UNK N   1      24.763  17.268   3.815  0.00  0.00     0.331 A 
HETATM   12  N   UNK N   1      25.650  18.310   3.769  0.00  0.00    -0.275 N 
HETATM   13  O   UNK N   1      25.194  16.130   3.903  0.00  0.00    -0.246 OA
HETATM   14  C   UNK N   1      25.213  19.598   3.643  0.00  0.00     0.250 A 
HETATM   15  H   UNK N   1      26.617  18.127   3.827  0.00  0.00     0.173 HD
HETATM   16  O   UNK N   1      26.015  20.510   3.590  0.00  0.00    -0.268 OA
HETATM   17  C   UNK N   1      23.850  19.861   3.571  0.00  0.00     0.092 A 
HETATM   18  C   UNK N   1      22.955  18.796   3.619  0.00  0.00     0.104 A 
ENDBRANCH   7  10
BRANCH   8  19
HETATM   19  O   UNK N   1      20.803  16.651   1.887  0.00  0.00    -0.388 OA
HETATM   20  H   UNK N   1      20.270  15.886   1.620  0.00  0.00     0.210 HD
ENDBRANCH   8  19
BRANCH   9  21
HETATM   21  O   UNK N   1      18.872  16.720   4.293  0.00  0.00    -0.390 OA
HETATM   22  H   UNK N   1      18.097  17.163   3.914  0.00  0.00     0.210 HD
ENDBRANCH   9  21
ENDBRANCH   4   5
ENDBRANCH   3   4
ENDBRANCH   1   3
BRANCH   1  23
HETATM   23  O   UNK N   1      19.339  15.202   9.336  0.00  0.00    -0.195 OA
BRANCH  23  24
HETATM   24  P   UNK N   1      20.814  14.359   9.011  0.00  0.00     0.404 P 
HETATM   25  O   UNK N   1      20.041  14.017   7.708  0.00  0.00    -0.631 OA
BRANCH  24  26
HETATM   26  O   UNK N   1      21.042  12.638   9.047  0.00  0.00    -0.263 OA
BRANCH  26  27
HETATM   27  C   UNK N   1      22.324  12.418   8.521  0.00  0.00     0.304 C 
HETATM   28  O   UNK N   1      22.891  11.226   9.056  0.00  0.00    -0.340 OA
HETATM   29  C   UNK N   1      23.746  11.476  10.161  0.00  0.00     0.253 C 
HETATM   30  C   UNK N   1      24.937  12.413   9.813  0.00  0.00     0.189 C 
HETATM   31  C   UNK N   1      24.676  13.261   8.572  0.00  0.00     0.183 C 
HETATM   32  C   UNK N   1      23.218  13.677   8.597  0.00  0.00     0.205 C 
BRANCH  29  33
HETATM   33  C   UNK N   1      22.991  11.790  11.428  0.00  0.00     0.172 C 
HETATM   34  O   UNK N   1      23.603  12.169  12.412  0.00  0.00    -0.648 OA
BRANCH  33  35
HETATM   35  O   UNK N   1      21.650  11.672  11.482  0.00  0.00    -0.774 OA
HETATM   36  H   UNK N   1      20.827  11.957  11.135  0.00  0.00     0.167 HD
ENDBRANCH  33  35
ENDBRANCH  29  33
BRANCH  30  37
HETATM   37  O   UNK N   1      25.267  13.235  10.894  0.00  0.00    -0.390 OA
HETATM   38  H   UNK N   1      25.702  13.190  11.760  0.00  0.00     0.210 HD
ENDBRANCH  30  37
BRANCH  31  39
HETATM   39  O   UNK N   1      24.946  12.516   7.419  0.00  0.00    -0.390 OA
HETATM   40  H   UNK N   1      25.342  12.678   6.549  0.00  0.00     0.210 HD
ENDBRANCH  31  39
BRANCH  32  41
HETATM   41  O   UNK N   1      22.940  14.542   7.537  0.00  0.00    -0.388 OA
HETATM   42  H   UNK N   1      23.192  14.428   6.607  0.00  0.00     0.210 HD
ENDBRANCH  32  41
ENDBRANCH  26  27
ENDBRANCH  24  26
BRANCH  24  43
HETATM   43  O   UNK N   1      19.907  13.614  10.293  0.00  0.00    -0.307 OA
HETATM   44  H   UNK N   1      18.973  13.777  10.498  0.00  0.00     0.222 HD
ENDBRANCH  24  43
ENDBRANCH  23  24
ENDBRANCH   1  23
BRANCH   1  45
HETATM   45  O   UNK N   1      18.136  16.430   7.084  0.00  0.00    -0.307 OA
HETATM   46  H   UNK N   1      18.332  16.597   6.148  0.00  0.00     0.222 HD
ENDBRANCH   1  45
TORSDOF 17
ENDMDL
MODEL 8
REMARK VINA RESULT:      -7.1      2.746      4.391
REMARK  17 active torsions:
REMARK  status: ('A' for Active; 'I' for Inactive)
REMARK    1  A    between atoms: C_1  and  N_2 
REMARK    2  A    between atoms: C_4  and  O_9 
REMARK    3  A    between atoms: C_7  and  C_13 
REMARK    4  A    between atoms: C_8  and  O_14 
REMARK    5  A    between atoms: C_13  and  O_16 
REMARK    6  A    between atoms: O_16  and  P_18 
REMARK    7  A    between atoms: P_18  and  O_19 
REMARK    8  A    between atoms: P_18  and  O_20 
REMARK    9  A    between atoms: O_19  and  P_22 
REMARK   10  A    between atoms: P_22  and  O_23 
REMARK   11  A    between atoms: P_22  and  O_24 
REMARK   12  A    between atoms: C_26  and  O_23 
REMARK   13  A    between atoms: C_28  and  O_31 
REMARK   14  A    between atoms: C_29  and  C_33 
REMARK   15  A    between atoms: C_30  and  O_34 
REMARK   16  A    between atoms: C_32  and  O_35 
REMARK   17  A    between atoms: C_33  and  O_36 
ROOT
HETATM    1  P   UNK N   1      33.653  12.111   6.619  0.00  0.00     0.401 P 
HETATM    2  O   UNK N   1      33.045  12.585   7.967  0.00  0.00    -0.631 OA
ENDROOT
BRANCH   1   3
HETATM    3  O   UNK N   1      32.640  12.765   5.346  0.00  0.00    -0.294 OA
BRANCH   3   4
HETATM    4  C   UNK N   1      32.225  14.047   5.717  0.00  0.00     0.215 C 
BRANCH   4   5
HETATM    5  C   UNK N   1      33.189  15.090   5.140  0.00  0.00     0.180 C 
HETATM    6  O   UNK N   1      33.395  16.092   6.104  0.00  0.00    -0.353 OA
HETATM    7  C   UNK N   1      32.473  17.128   5.806  0.00  0.00     0.263 C 
HETATM    8  C   UNK N   1      31.760  16.818   4.499  0.00  0.00     0.198 C 
HETATM    9  C   UNK N   1      32.681  15.810   3.908  0.00  0.00     0.182 C 
BRANCH   7  10
HETATM   10  N   UNK N   1      31.565  17.360   6.940  0.00  0.00    -0.280 N 
HETATM   11  C   UNK N   1      31.957  17.942   8.140  0.00  0.00     0.331 A 
HETATM   12  N   UNK N   1      31.031  18.197   9.115  0.00  0.00    -0.275 N 
HETATM   13  O   UNK N   1      33.121  18.252   8.338  0.00  0.00    -0.246 OA
HETATM   14  C   UNK N   1      29.713  17.892   8.925  0.00  0.00     0.250 A 
HETATM   15  H   UNK N   1      31.319  18.605   9.964  0.00  0.00     0.173 HD
HETATM   16  O   UNK N   1      28.901  18.137   9.796  0.00  0.00    -0.268 OA
HETATM   17  C   UNK N   1      29.303  17.305   7.734  0.00  0.00     0.092 A 
HETATM   18  C   UNK N   1      30.253  17.049   6.748  0.00  0.00     0.104 A 
ENDBRANCH   7  10
BRANCH   8  19
HETATM   19  O   UNK N   1      31.672  17.951   3.694  0.00  0.00    -0.388 OA
HETATM   20  H   UNK N   1      31.982  17.930   2.775  0.00  0.00     0.210 HD
ENDBRANCH   8  19
BRANCH   9  21
HETATM   21  O   UNK N   1      32.029  14.964   3.009  0.00  0.00    -0.390 OA
HETATM   22  H   UNK N   1      31.790  14.062   2.743  0.00  0.00     0.210 HD
ENDBRANCH   9  21
ENDBRANCH   4   5
ENDBRANCH   3   4
ENDBRANCH   1   3
BRANCH   1  23
HETATM   23  O   UNK N   1      35.278  12.723   6.550  0.00  0.00    -0.195 OA
BRANCH  23  24
HETATM   24  P   UNK N   1      35.428  13.691   7.976  0.00  0.00     0.404 P 
HETATM   25  O   UNK N   1      36.547  14.341   7.116  0.00  0.00    -0.631 OA
BRANCH  24  26
HETATM   26  O   UNK N   1      36.707  13.602   9.147  0.00  0.00    -0.263 OA
BRANCH  26  27
HETATM   27  C   UNK N   1      36.120  13.066  10.303  0.00  0.00     0.304 C 
HETATM   28  O   UNK N   1      34.921  13.762  10.631  0.00  0.00    -0.340 OA
HETATM   29  C   UNK N   1      35.127  14.775  11.604  0.00  0.00     0.253 C 
HETATM   30  C   UNK N   1      35.699  14.230  12.943  0.00  0.00     0.189 C 
HETATM   31  C   UNK N   1      36.391  12.879  12.780  0.00  0.00     0.183 C 
HETATM   32  C   UNK N   1      37.134  12.899  11.458  0.00  0.00     0.205 C 
BRANCH  29  33
HETATM   33  C   UNK N   1      35.792  16.005  11.039  0.00  0.00     0.172 C 
HETATM   34  O   UNK N   1      35.110  16.969  10.735  0.00  0.00    -0.648 OA
BRANCH  33  35
HETATM   35  O   UNK N   1      37.128  16.059  10.881  0.00  0.00    -0.774 OA
HETATM   36  H   UNK N   1      37.956  15.677  11.100  0.00  0.00     0.167 HD
ENDBRANCH  33  35
ENDBRANCH  29  33
BRANCH  30  37
HETATM   37  O   UNK N   1      36.574  15.148  13.531  0.00  0.00    -0.390 OA
HETATM   38  H   UNK N   1      36.609  15.776  14.269  0.00  0.00     0.210 HD
ENDBRANCH  30  37
BRANCH  31  39
HETATM   39  O   UNK N   1      35.441  11.852  12.787  0.00  0.00    -0.390 OA
HETATM   40  H   UNK N   1      35.005  11.297  13.451  0.00  0.00     0.210 HD
ENDBRANCH  31  39
BRANCH  32  41
HETATM   41  O   UNK N   1      37.872  11.724  11.297  0.00  0.00    -0.388 OA
HETATM   42  H   UNK N   1      38.423  11.283  11.963  0.00  0.00     0.210 HD
ENDBRANCH  32  41
ENDBRANCH  26  27
ENDBRANCH  24  26
BRANCH  24  43
HETATM   43  O   UNK N   1      35.945  12.053   8.244  0.00  0.00    -0.307 OA
HETATM   44  H   UNK N   1      36.854  11.724   8.160  0.00  0.00     0.222 HD
ENDBRANCH  24  43
ENDBRANCH  23  24
ENDBRANCH   1  23
BRANCH   1  45
HETATM   45  O   UNK N   1      33.687  10.385   6.705  0.00  0.00    -0.307 OA
HETATM   46  H   UNK N   1      33.355   9.855   5.964  0.00  0.00     0.222 HD
ENDBRANCH   1  45
TORSDOF 17
ENDMDL
MODEL 9
REMARK VINA RESULT:      -7.0      1.932      3.372
REMARK  17 active torsions:
REMARK  status: ('A' for Active; 'I' for Inactive)
REMARK    1  A    between atoms: C_1  and  N_2 
REMARK    2  A    between atoms: C_4  and  O_9 
REMARK    3  A    between atoms: C_7  and  C_13 
REMARK    4  A    between atoms: C_8  and  O_14 
REMARK    5  A    between atoms: C_13  and  O_16 
REMARK    6  A    between atoms: O_16  and  P_18 
REMARK    7  A    between atoms: P_18  and  O_19 
REMARK    8  A    between atoms: P_18  and  O_20 
REMARK    9  A    between atoms: O_19  and  P_22 
REMARK   10  A    between atoms: P_22  and  O_23 
REMARK   11  A    between atoms: P_22  and  O_24 
REMARK   12  A    between atoms: C_26  and  O_23 
REMARK   13  A    between atoms: C_28  and  O_31 
REMARK   14  A    between atoms: C_29  and  C_33 
REMARK   15  A    between atoms: C_30  and  O_34 
REMARK   16  A    between atoms: C_32  and  O_35 
REMARK   17  A    between atoms: C_33  and  O_36 
ROOT
HETATM    1  P   UNK N   1      33.313  15.263   3.985  0.00  0.00     0.401 P 
HETATM    2  O   UNK N   1      32.609  14.364   5.037  0.00  0.00    -0.631 OA
ENDROOT
BRANCH   1   3
HETATM    3  O   UNK N   1      32.058  15.902   2.941  0.00  0.00    -0.294 OA
BRANCH   3   4
HETATM    4  C   UNK N   1      31.196  16.692   3.707  0.00  0.00     0.215 C 
BRANCH   4   5
HETATM    5  C   UNK N   1      29.748  16.453   3.266  0.00  0.00     0.180 C 
HETATM    6  O   UNK N   1      28.916  17.358   3.948  0.00  0.00    -0.353 OA
HETATM    7  C   UNK N   1      28.431  16.672   5.090  0.00  0.00     0.263 C 
HETATM    8  C   UNK N   1      28.865  15.216   5.035  0.00  0.00     0.198 C 
HETATM    9  C   UNK N   1      29.204  15.077   3.593  0.00  0.00     0.182 C 
BRANCH   7  10
HETATM   10  N   UNK N   1      28.829  17.366   6.325  0.00  0.00    -0.280 N 
HETATM   11  C   UNK N   1      28.175  18.486   6.829  0.00  0.00     0.331 A 
HETATM   12  N   UNK N   1      28.560  19.023   8.027  0.00  0.00    -0.275 N 
HETATM   13  O   UNK N   1      27.243  18.993   6.227  0.00  0.00    -0.246 OA
HETATM   14  C   UNK N   1      29.581  18.470   8.747  0.00  0.00     0.250 A 
HETATM   15  H   UNK N   1      28.094  19.818   8.375  0.00  0.00     0.173 HD
HETATM   16  O   UNK N   1      29.902  18.952   9.816  0.00  0.00    -0.268 OA
HETATM   17  C   UNK N   1      30.249  17.354   8.256  0.00  0.00     0.092 A 
HETATM   18  C   UNK N   1      29.851  16.815   7.035  0.00  0.00     0.104 A 
ENDBRANCH   7  10
BRANCH   8  19
HETATM   19  O   UNK N   1      27.819  14.366   5.389  0.00  0.00    -0.388 OA
HETATM   20  H   UNK N   1      26.926  14.508   5.038  0.00  0.00     0.210 HD
ENDBRANCH   8  19
BRANCH   9  21
HETATM   21  O   UNK N   1      30.128  14.055   3.365  0.00  0.00    -0.390 OA
HETATM   22  H   UNK N   1      30.742  13.397   3.725  0.00  0.00     0.210 HD
ENDBRANCH   9  21
ENDBRANCH   4   5
ENDBRANCH   3   4
ENDBRANCH   1   3
BRANCH   1  23
HETATM   23  O   UNK N   1      34.146  16.513   4.860  0.00  0.00    -0.195 OA
BRANCH  23  24
HETATM   24  P   UNK N   1      33.870  16.124   6.523  0.00  0.00     0.404 P 
HETATM   25  O   UNK N   1      34.527  17.521   6.700  0.00  0.00    -0.631 OA
BRANCH  24  26
HETATM   26  O   UNK N   1      35.078  15.670   7.684  0.00  0.00    -0.263 OA
BRANCH  26  27
HETATM   27  C   UNK N   1      34.464  14.719   8.512  0.00  0.00     0.304 C 
HETATM   28  O   UNK N   1      33.821  15.350   9.616  0.00  0.00    -0.340 OA
HETATM   29  C   UNK N   1      34.629  15.360  10.784  0.00  0.00     0.253 C 
HETATM   30  C   UNK N   1      35.030  13.937  11.263  0.00  0.00     0.189 C 
HETATM   31  C   UNK N   1      34.936  12.894  10.153  0.00  0.00     0.183 C 
HETATM   32  C   UNK N   1      35.407  13.546   8.867  0.00  0.00     0.205 C 
BRANCH  29  33
HETATM   33  C   UNK N   1      35.733  16.387  10.725  0.00  0.00     0.172 C 
HETATM   34  O   UNK N   1      35.451  17.559  10.538  0.00  0.00    -0.648 OA
BRANCH  33  35
HETATM   35  O   UNK N   1      37.020  16.029  10.892  0.00  0.00    -0.774 OA
HETATM   36  H   UNK N   1      37.627  15.322  10.991  0.00  0.00     0.167 HD
ENDBRANCH  33  35
ENDBRANCH  29  33
BRANCH  30  37
HETATM   37  O   UNK N   1      36.314  13.932  11.816  0.00  0.00    -0.390 OA
HETATM   38  H   UNK N   1      37.028  14.546  12.047  0.00  0.00     0.210 HD
ENDBRANCH  30  37
BRANCH  31  39
HETATM   39  O   UNK N   1      33.613  12.458  10.018  0.00  0.00    -0.390 OA
HETATM   40  H   UNK N   1      33.035  11.811  10.450  0.00  0.00     0.210 HD
ENDBRANCH  31  39
BRANCH  32  41
HETATM   41  O   UNK N   1      35.440  12.611   7.831  0.00  0.00    -0.388 OA
HETATM   42  H   UNK N   1      35.214  11.670   7.884  0.00  0.00     0.210 HD
ENDBRANCH  32  41
ENDBRANCH  26  27
ENDBRANCH  24  26
BRANCH  24  43
HETATM   43  O   UNK N   1      35.102  15.122   5.815  0.00  0.00    -0.307 OA
HETATM   44  H   UNK N   1      35.149  14.155   5.870  0.00  0.00     0.222 HD
ENDBRANCH  24  43
ENDBRANCH  23  24
ENDBRANCH   1  23
BRANCH   1  45
HETATM   45  O   UNK N   1      34.464  14.243   3.197  0.00  0.00    -0.307 OA
HETATM   46  H   UNK N   1      34.477  14.183   2.228  0.00  0.00     0.222 HD
ENDBRANCH   1  45
TORSDOF 17
ENDMDL
