MODEL 1
REMARK VINA RESULT:      -5.1      0.000      0.000
REMARK  12 active torsions:
REMARK  status: ('A' for Active; 'I' for Inactive)
REMARK    1  A    between atoms: C_3  and  C_2 
REMARK    2  A    between atoms: C_5  and  C_4 
REMARK    3  A    between atoms: C_6  and  C_4 
REMARK    4  A    between atoms: C_8  and  C_5 
REMARK    5  A    between atoms: C_9  and  C_6 
REMARK    6  A    between atoms: C_7  and  C_11 
REMARK    7  A    between atoms: C_10  and  C_8 
REMARK    8  A    between atoms: C_12  and  C_9 
REMARK    9  A    between atoms: C_15  and  C_10 
REMARK   10  A    between atoms: C_16  and  C_11 
REMARK   11  A    between atoms: C_18  and  C_12 
REMARK   12  A    between atoms: O_21  and  C_18 
ROOT
HETATM    1  C   UNK N   1      25.713  24.673  -6.090  0.00  0.00    -0.018 C 
HETATM    2  C   UNK N   1      25.908  23.987  -4.976  0.00  0.00     0.047 C 
HETATM    3  C   UNK N   1      25.830  26.158  -5.868  0.00  0.00     0.020 C 
HETATM    4  C   UNK N   1      26.420  26.296  -4.442  0.00  0.00     0.071 C 
HETATM    5  C   UNK N   1      26.253  24.907  -3.920  0.00  0.00     0.154 C 
HETATM    6  O   UNK N   1      26.540  24.548  -2.790  0.00  0.00    -0.293 OA
ENDROOT
BRANCH   3   7
HETATM    7  C   UNK N   1      26.705  26.875  -6.901  0.00  0.00     0.009 C 
BRANCH   7   8
HETATM    8  C   UNK N   1      28.110  27.151  -6.373  0.00  0.00     0.001 C 
BRANCH   8   9
HETATM    9  C   UNK N   1      29.124  26.149  -6.894  0.00  0.00     0.000 C 
BRANCH   9  10
HETATM   10  C   UNK N   1      29.662  25.299  -5.762  0.00  0.00     0.000 C 
BRANCH  10  11
HETATM   11  C   UNK N   1      29.368  23.846  -6.057  0.00  0.00     0.001 C 
BRANCH  11  12
HETATM   12  C   UNK N   1      29.430  23.051  -4.770  0.00  0.00     0.010 C 
BRANCH  12  13
HETATM   13  C   UNK N   1      29.966  23.921  -3.650  0.00  0.00     0.110 C 
BRANCH  13  14
HETATM   14  C   UNK N   1      29.809  23.224  -2.337  0.00  0.00     0.139 C 
HETATM   15  O   UNK N   1      30.795  22.955  -1.673  0.00  0.00    -0.650 OA
BRANCH  14  16
HETATM   16  O   UNK N   1      28.584  22.893  -1.884  0.00  0.00    -0.776 OA
HETATM   17  H   UNK N   1      28.413  22.777  -0.970  0.00  0.00     0.167 HD
ENDBRANCH  14  16
ENDBRANCH  13  14
ENDBRANCH  12  13
ENDBRANCH  11  12
ENDBRANCH  10  11
ENDBRANCH   9  10
ENDBRANCH   8   9
ENDBRANCH   7   8
ENDBRANCH   3   7
BRANCH   4  18
HETATM   18  C   UNK N   1      25.686  27.401  -3.670  0.00  0.00     0.040 C 
BRANCH  18  19
HETATM   19  C   UNK N   1      26.542  28.595  -3.383  0.00  0.00    -0.030 C 
HETATM   20  C   UNK N   1      26.498  29.676  -4.154  0.00  0.00    -0.031 C 
BRANCH  20  21
HETATM   21  C   UNK N   1      27.345  30.856  -3.837  0.00  0.00     0.022 C 
HETATM   22  C   UNK N   1      27.947  30.676  -2.459  0.00  0.00     0.009 C 
ENDBRANCH  20  21
ENDBRANCH  18  19
ENDBRANCH   4  18
TORSDOF 12
ENDMDL
MODEL 2
REMARK VINA RESULT:      -5.1      2.698      6.867
REMARK  12 active torsions:
REMARK  status: ('A' for Active; 'I' for Inactive)
REMARK    1  A    between atoms: C_3  and  C_2 
REMARK    2  A    between atoms: C_5  and  C_4 
REMARK    3  A    between atoms: C_6  and  C_4 
REMARK    4  A    between atoms: C_8  and  C_5 
REMARK    5  A    between atoms: C_9  and  C_6 
REMARK    6  A    between atoms: C_7  and  C_11 
REMARK    7  A    between atoms: C_10  and  C_8 
REMARK    8  A    between atoms: C_12  and  C_9 
REMARK    9  A    between atoms: C_15  and  C_10 
REMARK   10  A    between atoms: C_16  and  C_11 
REMARK   11  A    between atoms: C_18  and  C_12 
REMARK   12  A    between atoms: O_21  and  C_18 
ROOT
HETATM    1  C   UNK N   1      30.384  24.187  -4.739  0.00  0.00    -0.018 C 
HETATM    2  C   UNK N   1      30.519  24.398  -3.441  0.00  0.00     0.047 C 
HETATM    3  C   UNK N   1      30.270  22.721  -5.066  0.00  0.00     0.020 C 
HETATM    4  C   UNK N   1      30.074  22.028  -3.693  0.00  0.00     0.071 C 
HETATM    5  C   UNK N   1      30.429  23.134  -2.754  0.00  0.00     0.154 C 
HETATM    6  O   UNK N   1      30.465  23.030  -1.539  0.00  0.00    -0.293 OA
ENDROOT
BRANCH   3   7
HETATM    7  C   UNK N   1      29.126  22.383  -6.025  0.00  0.00     0.009 C 
BRANCH   7   8
HETATM    8  C   UNK N   1      28.214  23.581  -6.279  0.00  0.00     0.001 C 
BRANCH   8   9
HETATM    9  C   UNK N   1      26.745  23.211  -6.183  0.00  0.00     0.000 C 
BRANCH   9  10
HETATM   10  C   UNK N   1      26.002  24.204  -5.314  0.00  0.00     0.000 C 
BRANCH  10  11
HETATM   11  C   UNK N   1      26.608  24.193  -3.929  0.00  0.00     0.001 C 
BRANCH  11  12
HETATM   12  C   UNK N   1      26.921  25.614  -3.509  0.00  0.00     0.010 C 
BRANCH  12  13
HETATM   13  C   UNK N   1      26.369  26.589  -4.529  0.00  0.00     0.110 C 
BRANCH  13  14
HETATM   14  C   UNK N   1      25.979  27.867  -3.861  0.00  0.00     0.139 C 
HETATM   15  O   UNK N   1      25.461  27.842  -2.758  0.00  0.00    -0.650 OA
BRANCH  14  16
HETATM   16  O   UNK N   1      26.199  29.049  -4.471  0.00  0.00    -0.776 OA
HETATM   17  H   UNK N   1      25.753  29.829  -4.206  0.00  0.00     0.167 HD
ENDBRANCH  14  16
ENDBRANCH  13  14
ENDBRANCH  12  13
ENDBRANCH  11  12
ENDBRANCH  10  11
ENDBRANCH   9  10
ENDBRANCH   8   9
ENDBRANCH   7   8
ENDBRANCH   3   7
BRANCH   4  18
HETATM   18  C   UNK N   1      30.941  20.765  -3.609  0.00  0.00     0.040 C 
BRANCH  18  19
HETATM   19  C   UNK N   1      32.344  20.975  -4.090  0.00  0.00    -0.030 C 
HETATM   20  C   UNK N   1      33.377  20.891  -3.260  0.00  0.00    -0.031 C 
BRANCH  20  21
HETATM   21  C   UNK N   1      34.761  21.085  -3.766  0.00  0.00     0.022 C 
HETATM   22  C   UNK N   1      34.704  21.452  -5.234  0.00  0.00     0.009 C 
ENDBRANCH  20  21
ENDBRANCH  18  19
ENDBRANCH   4  18
TORSDOF 12
ENDMDL
MODEL 3
REMARK VINA RESULT:      -5.0      1.978      2.997
REMARK  12 active torsions:
REMARK  status: ('A' for Active; 'I' for Inactive)
REMARK    1  A    between atoms: C_3  and  C_2 
REMARK    2  A    between atoms: C_5  and  C_4 
REMARK    3  A    between atoms: C_6  and  C_4 
REMARK    4  A    between atoms: C_8  and  C_5 
REMARK    5  A    between atoms: C_9  and  C_6 
REMARK    6  A    between atoms: C_7  and  C_11 
REMARK    7  A    between atoms: C_10  and  C_8 
REMARK    8  A    between atoms: C_12  and  C_9 
REMARK    9  A    between atoms: C_15  and  C_10 
REMARK   10  A    between atoms: C_16  and  C_11 
REMARK   11  A    between atoms: C_18  and  C_12 
REMARK   12  A    between atoms: O_21  and  C_18 
ROOT
HETATM    1  C   UNK N   1      25.994  26.067  -9.464  0.00  0.00    -0.018 C 
HETATM    2  C   UNK N   1      25.257  24.995  -9.700  0.00  0.00     0.047 C 
HETATM    3  C   UNK N   1      26.536  26.085  -8.059  0.00  0.00     0.020 C 
HETATM    4  C   UNK N   1      26.240  24.667  -7.508  0.00  0.00     0.071 C 
HETATM    5  C   UNK N   1      25.288  24.146  -8.535  0.00  0.00     0.154 C 
HETATM    6  O   UNK N   1      24.739  23.058  -8.487  0.00  0.00    -0.293 OA
ENDROOT
BRANCH   3   7
HETATM    7  C   UNK N   1      28.029  26.412  -7.971  0.00  0.00     0.009 C 
BRANCH   7   8
HETATM    8  C   UNK N   1      28.297  27.664  -7.141  0.00  0.00     0.001 C 
BRANCH   8   9
HETATM    9  C   UNK N   1      29.276  27.402  -6.010  0.00  0.00     0.000 C 
BRANCH   9  10
HETATM   10  C   UNK N   1      29.253  25.940  -5.615  0.00  0.00     0.000 C 
BRANCH  10  11
HETATM   11  C   UNK N   1      29.368  25.837  -4.111  0.00  0.00     0.001 C 
BRANCH  11  12
HETATM   12  C   UNK N   1      30.360  24.749  -3.758  0.00  0.00     0.010 C 
BRANCH  12  13
HETATM   13  C   UNK N   1      29.640  23.425  -3.602  0.00  0.00     0.110 C 
BRANCH  13  14
HETATM   14  C   UNK N   1      29.407  23.133  -2.155  0.00  0.00     0.139 C 
HETATM   15  O   UNK N   1      30.356  22.979  -1.406  0.00  0.00    -0.650 OA
BRANCH  14  16
HETATM   16  O   UNK N   1      28.152  23.040  -1.673  0.00  0.00    -0.776 OA
HETATM   17  H   UNK N   1      27.805  22.228  -1.358  0.00  0.00     0.167 HD
ENDBRANCH  14  16
ENDBRANCH  13  14
ENDBRANCH  12  13
ENDBRANCH  11  12
ENDBRANCH  10  11
ENDBRANCH   9  10
ENDBRANCH   8   9
ENDBRANCH   7   8
ENDBRANCH   3   7
BRANCH   4  18
HETATM   18  C   UNK N   1      25.702  24.758  -6.073  0.00  0.00     0.040 C 
BRANCH  18  19
HETATM   19  C   UNK N   1      25.287  26.143  -5.682  0.00  0.00    -0.030 C 
HETATM   20  C   UNK N   1      25.822  26.751  -4.630  0.00  0.00    -0.031 C 
BRANCH  20  21
HETATM   21  C   UNK N   1      25.405  28.133  -4.273  0.00  0.00     0.022 C 
HETATM   22  C   UNK N   1      26.540  28.819  -3.544  0.00  0.00     0.009 C 
ENDBRANCH  20  21
ENDBRANCH  18  19
ENDBRANCH   4  18
TORSDOF 12
ENDMDL
MODEL 4
REMARK VINA RESULT:      -4.9     10.885     13.778
REMARK  12 active torsions:
REMARK  status: ('A' for Active; 'I' for Inactive)
REMARK    1  A    between atoms: C_3  and  C_2 
REMARK    2  A    between atoms: C_5  and  C_4 
REMARK    3  A    between atoms: C_6  and  C_4 
REMARK    4  A    between atoms: C_8  and  C_5 
REMARK    5  A    between atoms: C_9  and  C_6 
REMARK    6  A    between atoms: C_7  and  C_11 
REMARK    7  A    between atoms: C_10  and  C_8 
REMARK    8  A    between atoms: C_12  and  C_9 
REMARK    9  A    between atoms: C_15  and  C_10 
REMARK   10  A    between atoms: C_16  and  C_11 
REMARK   11  A    between atoms: C_18  and  C_12 
REMARK   12  A    between atoms: O_21  and  C_18 
ROOT
HETATM    1  C   UNK N   1      28.183  18.793   6.970  0.00  0.00    -0.018 C 
HETATM    2  C   UNK N   1      27.741  20.012   7.227  0.00  0.00     0.047 C 
HETATM    3  C   UNK N   1      28.138  18.472   5.499  0.00  0.00     0.020 C 
HETATM    4  C   UNK N   1      27.843  19.830   4.811  0.00  0.00     0.071 C 
HETATM    5  C   UNK N   1      27.435  20.667   5.979  0.00  0.00     0.154 C 
HETATM    6  O   UNK N   1      27.057  21.824   5.908  0.00  0.00    -0.293 OA
ENDROOT
BRANCH   3   7
HETATM    7  C   UNK N   1      29.427  17.847   4.958  0.00  0.00     0.009 C 
BRANCH   7   8
HETATM    8  C   UNK N   1      29.360  16.322   4.929  0.00  0.00     0.001 C 
BRANCH   8   9
HETATM    9  C   UNK N   1      30.085  15.696   6.107  0.00  0.00     0.000 C 
BRANCH   9  10
HETATM   10  C   UNK N   1      31.202  16.599   6.586  0.00  0.00     0.000 C 
BRANCH  10  11
HETATM   11  C   UNK N   1      30.985  16.915   8.048  0.00  0.00     0.001 C 
BRANCH  11  12
HETATM   12  C   UNK N   1      32.002  17.944   8.494  0.00  0.00     0.010 C 
BRANCH  12  13
HETATM   13  C   UNK N   1      33.383  17.321   8.539  0.00  0.00     0.110 C 
BRANCH  13  14
HETATM   14  C   UNK N   1      34.359  18.178   7.799  0.00  0.00     0.139 C 
HETATM   15  O   UNK N   1      34.550  17.991   6.610  0.00  0.00    -0.650 OA
BRANCH  14  16
HETATM   16  O   UNK N   1      35.029  19.156   8.440  0.00  0.00    -0.776 OA
HETATM   17  H   UNK N   1      35.346  19.043   9.315  0.00  0.00     0.167 HD
ENDBRANCH  14  16
ENDBRANCH  13  14
ENDBRANCH  12  13
ENDBRANCH  11  12
ENDBRANCH  10  11
ENDBRANCH   9  10
ENDBRANCH   8   9
ENDBRANCH   7   8
ENDBRANCH   3   7
BRANCH   4  18
HETATM   18  C   UNK N   1      26.790  19.647   3.710  0.00  0.00     0.040 C 
BRANCH  18  19
HETATM   19  C   UNK N   1      25.884  18.478   3.943  0.00  0.00    -0.030 C 
HETATM   20  C   UNK N   1      25.937  17.399   3.170  0.00  0.00    -0.031 C 
BRANCH  20  21
HETATM   21  C   UNK N   1      25.039  16.245   3.434  0.00  0.00     0.022 C 
HETATM   22  C   UNK N   1      25.185  15.238   2.312  0.00  0.00     0.009 C 
ENDBRANCH  20  21
ENDBRANCH  18  19
ENDBRANCH   4  18
TORSDOF 12
ENDMDL
MODEL 5
REMARK VINA RESULT:      -4.9     13.035     15.584
REMARK  12 active torsions:
REMARK  status: ('A' for Active; 'I' for Inactive)
REMARK    1  A    between atoms: C_3  and  C_2 
REMARK    2  A    between atoms: C_5  and  C_4 
REMARK    3  A    between atoms: C_6  and  C_4 
REMARK    4  A    between atoms: C_8  and  C_5 
REMARK    5  A    between atoms: C_9  and  C_6 
REMARK    6  A    between atoms: C_7  and  C_11 
REMARK    7  A    between atoms: C_10  and  C_8 
REMARK    8  A    between atoms: C_12  and  C_9 
REMARK    9  A    between atoms: C_15  and  C_10 
REMARK   10  A    between atoms: C_16  and  C_11 
REMARK   11  A    between atoms: C_18  and  C_12 
REMARK   12  A    between atoms: O_21  and  C_18 
ROOT
HETATM    1  C   UNK N   1      22.823  16.499   5.153  0.00  0.00    -0.018 C 
HETATM    2  C   UNK N   1      22.687  17.699   5.691  0.00  0.00     0.047 C 
HETATM    3  C   UNK N   1      21.658  15.600   5.471  0.00  0.00     0.020 C 
HETATM    4  C   UNK N   1      20.594  16.542   6.092  0.00  0.00     0.071 C 
HETATM    5  C   UNK N   1      21.405  17.770   6.347  0.00  0.00     0.154 C 
HETATM    6  O   UNK N   1      20.986  18.781   6.887  0.00  0.00    -0.293 OA
ENDROOT
BRANCH   3   7
HETATM    7  C   UNK N   1      21.096  14.855   4.257  0.00  0.00     0.009 C 
BRANCH   7   8
HETATM    8  C   UNK N   1      22.081  14.827   3.091  0.00  0.00     0.001 C 
BRANCH   8   9
HETATM    9  C   UNK N   1      21.440  15.277   1.791  0.00  0.00     0.000 C 
BRANCH   9  10
HETATM   10  C   UNK N   1      20.185  16.078   2.065  0.00  0.00     0.000 C 
BRANCH  10  11
HETATM   11  C   UNK N   1      20.368  17.478   1.524  0.00  0.00     0.001 C 
BRANCH  11  12
HETATM   12  C   UNK N   1      20.653  18.425   2.670  0.00  0.00     0.010 C 
BRANCH  12  13
HETATM   13  C   UNK N   1      20.173  19.819   2.320  0.00  0.00     0.110 C 
BRANCH  13  14
HETATM   14  C   UNK N   1      21.017  20.396   1.231  0.00  0.00     0.139 C 
HETATM   15  O   UNK N   1      22.168  20.724   1.464  0.00  0.00    -0.650 OA
BRANCH  14  16
HETATM   16  O   UNK N   1      20.514  20.554  -0.009  0.00  0.00    -0.776 OA
HETATM   17  H   UNK N   1      19.949  19.914  -0.396  0.00  0.00     0.167 HD
ENDBRANCH  14  16
ENDBRANCH  13  14
ENDBRANCH  12  13
ENDBRANCH  11  12
ENDBRANCH  10  11
ENDBRANCH   9  10
ENDBRANCH   8   9
ENDBRANCH   7   8
ENDBRANCH   3   7
BRANCH   4  18
HETATM   18  C   UNK N   1      19.958  15.883   7.323  0.00  0.00     0.040 C 
BRANCH  18  19
HETATM   19  C   UNK N   1      20.821  14.830   7.946  0.00  0.00    -0.030 C 
HETATM   20  C   UNK N   1      20.907  14.700   9.265  0.00  0.00    -0.031 C 
BRANCH  20  21
HETATM   21  C   UNK N   1      21.757  13.635   9.858  0.00  0.00     0.022 C 
HETATM   22  C   UNK N   1      21.731  12.421   8.955  0.00  0.00     0.009 C 
ENDBRANCH  20  21
ENDBRANCH  18  19
ENDBRANCH   4  18
TORSDOF 12
ENDMDL
MODEL 6
REMARK VINA RESULT:      -4.8      1.987      5.329
REMARK  12 active torsions:
REMARK  status: ('A' for Active; 'I' for Inactive)
REMARK    1  A    between atoms: C_3  and  C_2 
REMARK    2  A    between atoms: C_5  and  C_4 
REMARK    3  A    between atoms: C_6  and  C_4 
REMARK    4  A    between atoms: C_8  and  C_5 
REMARK    5  A    between atoms: C_9  and  C_6 
REMARK    6  A    between atoms: C_7  and  C_11 
REMARK    7  A    between atoms: C_10  and  C_8 
REMARK    8  A    between atoms: C_12  and  C_9 
REMARK    9  A    between atoms: C_15  and  C_10 
REMARK   10  A    between atoms: C_16  and  C_11 
REMARK   11  A    between atoms: C_18  and  C_12 
REMARK   12  A    between atoms: O_21  and  C_18 
ROOT
HETATM    1  C   UNK N   1      31.042  21.925  -4.410  0.00  0.00    -0.018 C 
HETATM    2  C   UNK N   1      31.362  21.978  -3.128  0.00  0.00     0.047 C 
HETATM    3  C   UNK N   1      29.764  22.665  -4.706  0.00  0.00     0.020 C 
HETATM    4  C   UNK N   1      29.459  23.455  -3.407  0.00  0.00     0.071 C 
HETATM    5  C   UNK N   1      30.404  22.812  -2.445  0.00  0.00     0.154 C 
HETATM    6  O   UNK N   1      30.481  23.084  -1.259  0.00  0.00    -0.293 OA
ENDROOT
BRANCH   3   7
HETATM    7  C   UNK N   1      29.852  23.602  -5.914  0.00  0.00     0.009 C 
BRANCH   7   8
HETATM    8  C   UNK N   1      30.185  25.035  -5.509  0.00  0.00     0.001 C 
BRANCH   8   9
HETATM    9  C   UNK N   1      29.725  26.044  -6.547  0.00  0.00     0.000 C 
BRANCH   9  10
HETATM   10  C   UNK N   1      29.051  27.224  -5.880  0.00  0.00     0.000 C 
BRANCH  10  11
HETATM   11  C   UNK N   1      29.331  27.174  -4.395  0.00  0.00     0.001 C 
BRANCH  11  12
HETATM   12  C   UNK N   1      28.650  28.344  -3.717  0.00  0.00     0.010 C 
BRANCH  12  13
HETATM   13  C   UNK N   1      27.469  28.806  -4.546  0.00  0.00     0.110 C 
BRANCH  13  14
HETATM   14  C   UNK N   1      26.326  29.172  -3.656  0.00  0.00     0.139 C 
HETATM   15  O   UNK N   1      25.753  28.305  -3.018  0.00  0.00    -0.650 OA
BRANCH  14  16
HETATM   16  O   UNK N   1      25.927  30.455  -3.552  0.00  0.00    -0.776 OA
HETATM   17  H   UNK N   1      25.917  31.028  -4.293  0.00  0.00     0.167 HD
ENDBRANCH  14  16
ENDBRANCH  13  14
ENDBRANCH  12  13
ENDBRANCH  11  12
ENDBRANCH  10  11
ENDBRANCH   9  10
ENDBRANCH   8   9
ENDBRANCH   7   8
ENDBRANCH   3   7
BRANCH   4  18
HETATM   18  C   UNK N   1      27.967  23.349  -3.062  0.00  0.00     0.040 C 
BRANCH  18  19
HETATM   19  C   UNK N   1      27.159  24.508  -3.557  0.00  0.00    -0.030 C 
HETATM   20  C   UNK N   1      26.483  24.440  -4.698  0.00  0.00    -0.031 C 
BRANCH  20  21
HETATM   21  C   UNK N   1      25.674  25.599  -5.159  0.00  0.00     0.022 C 
HETATM   22  C   UNK N   1      25.712  25.658  -6.671  0.00  0.00     0.009 C 
ENDBRANCH  20  21
ENDBRANCH  18  19
ENDBRANCH   4  18
TORSDOF 12
ENDMDL
MODEL 7
REMARK VINA RESULT:      -4.8      2.228      4.918
REMARK  12 active torsions:
REMARK  status: ('A' for Active; 'I' for Inactive)
REMARK    1  A    between atoms: C_3  and  C_2 
REMARK    2  A    between atoms: C_5  and  C_4 
REMARK    3  A    between atoms: C_6  and  C_4 
REMARK    4  A    between atoms: C_8  and  C_5 
REMARK    5  A    between atoms: C_9  and  C_6 
REMARK    6  A    between atoms: C_7  and  C_11 
REMARK    7  A    between atoms: C_10  and  C_8 
REMARK    8  A    between atoms: C_12  and  C_9 
REMARK    9  A    between atoms: C_15  and  C_10 
REMARK   10  A    between atoms: C_16  and  C_11 
REMARK   11  A    between atoms: C_18  and  C_12 
REMARK   12  A    between atoms: O_21  and  C_18 
ROOT
HETATM    1  C   UNK N   1      26.746  28.193  -5.831  0.00  0.00    -0.018 C 
HETATM    2  C   UNK N   1      27.903  28.221  -6.469  0.00  0.00     0.047 C 
HETATM    3  C   UNK N   1      25.794  27.192  -6.430  0.00  0.00     0.020 C 
HETATM    4  C   UNK N   1      26.661  26.366  -7.414  0.00  0.00     0.071 C 
HETATM    5  C   UNK N   1      27.893  27.206  -7.493  0.00  0.00     0.154 C 
HETATM    6  O   UNK N   1      28.854  26.968  -8.206  0.00  0.00    -0.293 OA
ENDROOT
BRANCH   3   7
HETATM    7  C   UNK N   1      25.113  26.286  -5.399  0.00  0.00     0.009 C 
BRANCH   7   8
HETATM    8  C   UNK N   1      26.091  25.776  -4.345  0.00  0.00     0.001 C 
BRANCH   8   9
HETATM    9  C   UNK N   1      26.267  24.269  -4.409  0.00  0.00     0.000 C 
BRANCH   9  10
HETATM   10  C   UNK N   1      27.699  23.915  -4.751  0.00  0.00     0.000 C 
BRANCH  10  11
HETATM   11  C   UNK N   1      28.588  25.092  -4.422  0.00  0.00     0.001 C 
BRANCH  11  12
HETATM   12  C   UNK N   1      29.846  24.596  -3.743  0.00  0.00     0.010 C 
BRANCH  12  13
HETATM   13  C   UNK N   1      29.499  23.522  -2.732  0.00  0.00     0.110 C 
BRANCH  13  14
HETATM   14  C   UNK N   1      30.444  22.371  -2.858  0.00  0.00     0.139 C 
HETATM   15  O   UNK N   1      30.206  21.474  -3.649  0.00  0.00    -0.650 OA
BRANCH  14  16
HETATM   16  O   UNK N   1      31.560  22.320  -2.103  0.00  0.00    -0.776 OA
HETATM   17  H   UNK N   1      32.406  22.501  -2.463  0.00  0.00     0.167 HD
ENDBRANCH  14  16
ENDBRANCH  13  14
ENDBRANCH  12  13
ENDBRANCH  11  12
ENDBRANCH  10  11
ENDBRANCH   9  10
ENDBRANCH   8   9
ENDBRANCH   7   8
ENDBRANCH   3   7
BRANCH   4  18
HETATM   18  C   UNK N   1      25.905  26.150  -8.732  0.00  0.00     0.040 C 
BRANCH  18  19
HETATM   19  C   UNK N   1      25.448  24.738  -8.929  0.00  0.00    -0.030 C 
HETATM   20  C   UNK N   1      25.967  23.740  -8.223  0.00  0.00    -0.031 C 
BRANCH  20  21
HETATM   21  C   UNK N   1      25.482  22.349  -8.425  0.00  0.00     0.022 C 
HETATM   22  C   UNK N   1      24.971  21.807  -7.108  0.00  0.00     0.009 C 
ENDBRANCH  20  21
ENDBRANCH  18  19
ENDBRANCH   4  18
TORSDOF 12
ENDMDL
MODEL 8
REMARK VINA RESULT:      -4.7     22.336     26.339
REMARK  12 active torsions:
REMARK  status: ('A' for Active; 'I' for Inactive)
REMARK    1  A    between atoms: C_3  and  C_2 
REMARK    2  A    between atoms: C_5  and  C_4 
REMARK    3  A    between atoms: C_6  and  C_4 
REMARK    4  A    between atoms: C_8  and  C_5 
REMARK    5  A    between atoms: C_9  and  C_6 
REMARK    6  A    between atoms: C_7  and  C_11 
REMARK    7  A    between atoms: C_10  and  C_8 
REMARK    8  A    between atoms: C_12  and  C_9 
REMARK    9  A    between atoms: C_15  and  C_10 
REMARK   10  A    between atoms: C_16  and  C_11 
REMARK   11  A    between atoms: C_18  and  C_12 
REMARK   12  A    between atoms: O_21  and  C_18 
ROOT
HETATM    1  C   UNK N   1      35.961  12.461  15.859  0.00  0.00    -0.018 C 
HETATM    2  C   UNK N   1      35.852  13.498  16.672  0.00  0.00     0.047 C 
HETATM    3  C   UNK N   1      35.622  11.165  16.545  0.00  0.00     0.020 C 
HETATM    4  C   UNK N   1      34.994  11.589  17.897  0.00  0.00     0.071 C 
HETATM    5  C   UNK N   1      35.356  13.037  17.946  0.00  0.00     0.154 C 
HETATM    6  O   UNK N   1      35.107  13.787  18.875  0.00  0.00    -0.293 OA
ENDROOT
BRANCH   3   7
HETATM    7  C   UNK N   1      34.668  10.269  15.749  0.00  0.00     0.009 C 
BRANCH   7   8
HETATM    8  C   UNK N   1      33.864  11.057  14.718  0.00  0.00     0.001 C 
BRANCH   8   9
HETATM    9  C   UNK N   1      33.948  10.439  13.334  0.00  0.00     0.000 C 
BRANCH   9  10
HETATM   10  C   UNK N   1      35.381  10.421  12.845  0.00  0.00     0.000 C 
BRANCH  10  11
HETATM   11  C   UNK N   1      35.389  10.597  11.344  0.00  0.00     0.001 C 
BRANCH  11  12
HETATM   12  C   UNK N   1      35.687  12.044  11.011  0.00  0.00     0.010 C 
BRANCH  12  13
HETATM   13  C   UNK N   1      36.479  12.681  12.135  0.00  0.00     0.110 C 
BRANCH  13  14
HETATM   14  C   UNK N   1      35.815  13.943  12.582  0.00  0.00     0.139 C 
HETATM   15  O   UNK N   1      34.616  14.089  12.418  0.00  0.00    -0.650 OA
BRANCH  14  16
HETATM   16  O   UNK N   1      36.535  14.921  13.166  0.00  0.00    -0.776 OA
HETATM   17  H   UNK N   1      36.125  15.624  13.631  0.00  0.00     0.167 HD
ENDBRANCH  14  16
ENDBRANCH  13  14
ENDBRANCH  12  13
ENDBRANCH  11  12
ENDBRANCH  10  11
ENDBRANCH   9  10
ENDBRANCH   8   9
ENDBRANCH   7   8
ENDBRANCH   3   7
BRANCH   4  18
HETATM   18  C   UNK N   1      35.544  10.716  19.033  0.00  0.00     0.040 C 
BRANCH  18  19
HETATM   19  C   UNK N   1      34.509   9.832  19.657  0.00  0.00    -0.030 C 
HETATM   20  C   UNK N   1      33.959   8.830  18.979  0.00  0.00    -0.031 C 
BRANCH  20  21
HETATM   21  C   UNK N   1      32.946   7.956  19.627  0.00  0.00     0.022 C 
HETATM   22  C   UNK N   1      31.924   8.821  20.332  0.00  0.00     0.009 C 
ENDBRANCH  20  21
ENDBRANCH  18  19
ENDBRANCH   4  18
TORSDOF 12
ENDMDL
MODEL 9
REMARK VINA RESULT:      -4.6      1.737      2.600
REMARK  12 active torsions:
REMARK  status: ('A' for Active; 'I' for Inactive)
REMARK    1  A    between atoms: C_3  and  C_2 
REMARK    2  A    between atoms: C_5  and  C_4 
REMARK    3  A    between atoms: C_6  and  C_4 
REMARK    4  A    between atoms: C_8  and  C_5 
REMARK    5  A    between atoms: C_9  and  C_6 
REMARK    6  A    between atoms: C_7  and  C_11 
REMARK    7  A    between atoms: C_10  and  C_8 
REMARK    8  A    between atoms: C_12  and  C_9 
REMARK    9  A    between atoms: C_15  and  C_10 
REMARK   10  A    between atoms: C_16  and  C_11 
REMARK   11  A    between atoms: C_18  and  C_12 
REMARK   12  A    between atoms: O_21  and  C_18 
ROOT
HETATM    1  C   UNK N   1      25.451  27.332  -5.907  0.00  0.00    -0.018 C 
HETATM    2  C   UNK N   1      25.133  27.677  -4.671  0.00  0.00     0.047 C 
HETATM    3  C   UNK N   1      26.751  26.573  -5.966  0.00  0.00     0.020 C 
HETATM    4  C   UNK N   1      27.080  26.244  -4.488  0.00  0.00     0.071 C 
HETATM    5  C   UNK N   1      26.116  27.130  -3.769  0.00  0.00     0.154 C 
HETATM    6  O   UNK N   1      26.046  27.245  -2.557  0.00  0.00    -0.293 OA
ENDROOT
BRANCH   3   7
HETATM    7  C   UNK N   1      26.691  25.301  -6.816  0.00  0.00     0.009 C 
BRANCH   7   8
HETATM    8  C   UNK N   1      26.309  24.075  -5.992  0.00  0.00     0.001 C 
BRANCH   8   9
HETATM    9  C   UNK N   1      27.065  22.833  -6.430  0.00  0.00     0.000 C 
BRANCH   9  10
HETATM   10  C   UNK N   1      28.517  23.164  -6.706  0.00  0.00     0.000 C 
BRANCH  10  11
HETATM   11  C   UNK N   1      29.394  22.262  -5.868  0.00  0.00     0.001 C 
BRANCH  11  12
HETATM   12  C   UNK N   1      30.141  23.096  -4.849  0.00  0.00     0.010 C 
BRANCH  12  13
HETATM   13  C   UNK N   1      29.460  22.993  -3.499  0.00  0.00     0.110 C 
BRANCH  13  14
HETATM   14  C   UNK N   1      30.423  22.487  -2.474  0.00  0.00     0.139 C 
HETATM   15  O   UNK N   1      30.510  23.047  -1.394  0.00  0.00    -0.650 OA
BRANCH  14  16
HETATM   16  O   UNK N   1      31.196  21.415  -2.736  0.00  0.00    -0.776 OA
HETATM   17  H   UNK N   1      32.041  21.502  -3.132  0.00  0.00     0.167 HD
ENDBRANCH  14  16
ENDBRANCH  13  14
ENDBRANCH  12  13
ENDBRANCH  11  12
ENDBRANCH  10  11
ENDBRANCH   9  10
ENDBRANCH   8   9
ENDBRANCH   7   8
ENDBRANCH   3   7
BRANCH   4  18
HETATM   18  C   UNK N   1      28.567  26.496  -4.208  0.00  0.00     0.040 C 
BRANCH  18  19
HETATM   19  C   UNK N   1      29.139  27.626  -5.007  0.00  0.00    -0.030 C 
HETATM   20  C   UNK N   1      29.233  28.850  -4.501  0.00  0.00    -0.031 C 
BRANCH  20  21
HETATM   21  C   UNK N   1      29.821  29.950  -5.309  0.00  0.00     0.022 C 
HETATM   22  C   UNK N   1      28.870  30.301  -6.433  0.00  0.00     0.009 C 
ENDBRANCH  20  21
ENDBRANCH  18  19
ENDBRANCH   4  18
TORSDOF 12
ENDMDL
