REMARK  15 active torsions:
REMARK  status: ('A' for Active; 'I' for Inactive)
REMARK    1  A    between atoms: C_3  and  C_2 
REMARK    2  A    between atoms: C_4  and  C_2 
REMARK    3  A    between atoms: C_6  and  C_3 
REMARK    4  A    between atoms: C_8  and  C_4 
REMARK    5  A    between atoms: C_7  and  C_5 
REMARK    6  A    between atoms: S_26  and  C_5 
REMARK    7  A    between atoms: C_12  and  C_6 
REMARK    8  A    between atoms: C_6  and  N_14 
REMARK    9  A    between atoms: C_13  and  C_7 
REMARK   10  A    between atoms: C_7  and  N_17 
REMARK   11  A    between atoms: C_8  and  O_18 
REMARK   12  A    between atoms: C_9  and  N_15 
REMARK   13  A    between atoms: C_11  and  S_25 
REMARK   14  A    between atoms: O_21  and  C_12 
REMARK   15  A    between atoms: O_23  and  C_13 
ROOT
HETATM    1  C   UNK N   1       1.442  -5.092  -0.248  0.00  0.00     0.208 A 
HETATM    2  C   UNK N   1       1.824  -6.491   0.051  0.00  0.00     0.247 A 
HETATM    3  C   UNK N   1       3.044  -4.954  -0.355  0.00  0.00     0.179 A 
HETATM    4  N   UNK N   1       3.122  -6.360  -0.074  0.00  0.00    -0.319 N 
HETATM    5  O   UNK N   1       1.155  -7.482   0.267  0.00  0.00    -0.271 OA
ENDROOT
BRANCH   1   6
HETATM    6  N   UNK N   1       0.881  -4.436   0.914  0.00  0.00    -0.359 N 
HETATM    7  C   UNK N   1       0.303  -3.284   0.841  0.00  0.00     0.111 C 
ATOM      8  HN  UNK N   1       0.945  -4.899   1.820  1.00  0.00     0.162 HD
BRANCH   7   9
HETATM    9  C   UNK N   1       0.138  -2.577  -0.480  0.00  0.00     0.083 C 
BRANCH   9  10
HETATM   10  C   UNK N   1      -1.145  -2.940  -1.242  0.00  0.00     0.010 C 
BRANCH  10  11
HETATM   11  C   UNK N   1      -1.678  -4.363  -1.027  0.00  0.00     0.036 C 
BRANCH  11  12
HETATM   12  C   UNK N   1      -2.701  -4.437   0.109  0.00  0.00     0.173 C 
BRANCH  12  13
HETATM   13  C   UNK N   1      -3.922  -3.611  -0.212  0.00  0.00     0.163 C 
HETATM   14  O   UNK N   1      -5.023  -4.131  -0.289  0.00  0.00    -0.648 OA
BRANCH  13  15
HETATM   15  O   UNK N   1      -3.803  -2.282  -0.402  0.00  0.00    -0.775 OA
HETATM   16  H   UNK N   1      -2.962  -1.891  -0.534  0.00  0.00     0.167 HD
ENDBRANCH  13  15
ENDBRANCH  12  13
BRANCH  12  17
HETATM   17  N   UNK N   1      -3.065  -5.830   0.319  0.00  0.00    -0.418 N 
HETATM   18  H   UNK N   1      -4.038  -6.097   0.466  0.00  0.00     0.150 HD
HETATM   19  H   UNK N   1      -2.340  -6.547   0.319  0.00  0.00     0.150 HD
ENDBRANCH  12  17
ENDBRANCH  11  12
ENDBRANCH  10  11
ENDBRANCH   9  10
ENDBRANCH   7   9
BRANCH   7  20
HETATM   20  O   UNK N   1      -0.162  -2.703   1.963  0.00  0.00    -0.350 OA
HETATM   21  H   UNK N   1       0.026  -2.221   2.744  0.00  0.00     0.219 HD
ENDBRANCH   7  20
ENDBRANCH   1   6
BRANCH   3  22
HETATM   22  S   UNK N   1       3.601  -4.558  -2.043  0.00  0.00    -0.154 SA
HETATM   23  H   UNK N   1       4.065  -4.770  -3.303  0.00  0.00     0.103 HD
ENDBRANCH   3  22
BRANCH   4  24
HETATM   24  C   UNK N   1       4.299  -7.237  -0.029  0.00  0.00     0.198 C 
BRANCH  24  25
HETATM   25  C   UNK N   1       5.343  -6.698   0.958  0.00  0.00     0.144 C 
BRANCH  25  26
HETATM   26  S   UNK N   1       6.209  -5.205   0.364  0.00  0.00     0.013 S 
HETATM   27  C   UNK N   1       7.508  -5.382   1.616  0.00  0.00     0.127 C 
HETATM   28  O   UNK N   1       7.033  -5.997  -0.662  0.00  0.00    -0.258 OA
ENDBRANCH  25  26
ENDBRANCH  24  25
BRANCH  24  29
HETATM   29  C   UNK N   1       4.069  -8.693   0.334  0.00  0.00     0.164 C 
HETATM   30  O   UNK N   1       5.009  -9.471   0.270  0.00  0.00    -0.648 OA
BRANCH  29  31
HETATM   31  O   UNK N   1       2.882  -9.157   0.756  0.00  0.00    -0.775 OA
HETATM   32  H   UNK N   1       2.188  -8.601   1.050  0.00  0.00     0.167 HD
ENDBRANCH  29  31
ENDBRANCH  24  29
ENDBRANCH   4  24
TORSDOF 15
