MODEL 1
REMARK VINA RESULT:      -5.8      0.000      0.000
REMARK  6 active torsions:
REMARK  status: ('A' for Active; 'I' for Inactive)
REMARK    1  A    between atoms: C_4  and  C_1 
REMARK    2  A    between atoms: O_17  and  C_1 
REMARK    3  A    between atoms: C_6  and  O_18 
REMARK    4  A    between atoms: C_7  and  O_19 
REMARK    5  A    between atoms: C_9  and  O_20 
REMARK    6  A    between atoms: C_10  and  N_16 
ROOT
HETATM    1  C   UNK N   1      20.810  12.702  10.867  0.00  0.00     0.179 A 
HETATM    2  C   UNK N   1      23.761  13.888   7.765  0.00  0.00     0.187 A 
HETATM    3  C   UNK N   1      23.192  12.657   9.426  0.00  0.00     0.103 A 
HETATM    4  C   UNK N   1      22.198  13.536   9.187  0.00  0.00     0.139 A 
HETATM    5  C   UNK N   1      23.099  11.624  10.501  0.00  0.00     0.273 A 
HETATM    6  N   UNK N   1      20.993  13.563   9.919  0.00  0.00    -0.337 N 
ATOM      7  HN  UNK N   1      20.274  14.253   9.704  1.00  0.00     0.168 HD
HETATM    8  N   UNK N   1      21.815  11.726  11.191  0.00  0.00    -0.355 N 
HETATM    9  N   UNK N   1      24.193  12.861   8.548  0.00  0.00    -0.349 N 
ATOM     10  HN  UNK N   1      25.079  12.360   8.484  1.00  0.00     0.166 HD
HETATM   11  N   UNK N   1      22.530  14.313   8.148  0.00  0.00    -0.297 N 
HETATM   12  H   UNK N   1      21.626  11.089  11.918  0.00  0.00     0.163 HD
ENDROOT
BRANCH  11  13
HETATM   13  C   UNK N   1      21.704  15.381   7.573  0.00  0.00     0.262 C 
HETATM   14  C   UNK N   1      20.662  14.892   6.578  0.00  0.00     0.198 C 
HETATM   15  C   UNK N   1      19.807  16.137   6.482  0.00  0.00     0.182 C 
HETATM   16  C   UNK N   1      19.997  16.785   7.873  0.00  0.00     0.179 C 
HETATM   17  O   UNK N   1      20.951  16.016   8.578  0.00  0.00    -0.353 OA
BRANCH  14  18
HETATM   18  O   UNK N   1      19.921  13.860   7.166  0.00  0.00    -0.388 OA
HETATM   19  H   UNK N   1      19.211  13.240   7.400  0.00  0.00     0.210 HD
ENDBRANCH  14  18
BRANCH  15  20
HETATM   20  O   UNK N   1      18.480  15.836   6.156  0.00  0.00    -0.390 OA
HETATM   21  H   UNK N   1      17.749  16.287   5.706  0.00  0.00     0.210 HD
ENDBRANCH  15  20
BRANCH  16  22
HETATM   22  C   UNK N   1      18.722  16.916   8.696  0.00  0.00     0.198 C 
BRANCH  22  23
HETATM   23  O   UNK N   1      18.428  15.697   9.314  0.00  0.00    -0.398 OA
HETATM   24  H   UNK N   1      18.347  14.884   8.791  0.00  0.00     0.209 HD
ENDBRANCH  22  23
ENDBRANCH  16  22
ENDBRANCH  11  13
BRANCH   5  25
HETATM   25  O   UNK N   1      24.132  11.806  11.420  0.00  0.00    -0.371 OA
HETATM   26  H   UNK N   1      24.732  11.220  11.908  0.00  0.00     0.212 HD
ENDBRANCH   5  25
TORSDOF 6
ENDMDL
MODEL 2
REMARK VINA RESULT:      -5.6      1.807      2.684
REMARK  6 active torsions:
REMARK  status: ('A' for Active; 'I' for Inactive)
REMARK    1  A    between atoms: C_4  and  C_1 
REMARK    2  A    between atoms: O_17  and  C_1 
REMARK    3  A    between atoms: C_6  and  O_18 
REMARK    4  A    between atoms: C_7  and  O_19 
REMARK    5  A    between atoms: C_9  and  O_20 
REMARK    6  A    between atoms: C_10  and  N_16 
ROOT
HETATM    1  C   UNK N   1      21.142  12.260  10.983  0.00  0.00     0.179 A 
HETATM    2  C   UNK N   1      25.299  13.151   9.692  0.00  0.00     0.187 A 
HETATM    3  C   UNK N   1      23.918  12.397  11.149  0.00  0.00     0.103 A 
HETATM    4  C   UNK N   1      23.215  12.863  10.097  0.00  0.00     0.139 A 
HETATM    5  C   UNK N   1      23.257  11.766  12.331  0.00  0.00     0.273 A 
HETATM    6  N   UNK N   1      21.808  12.799  10.014  0.00  0.00    -0.337 N 
ATOM      7  HN  UNK N   1      21.323  13.172   9.199  1.00  0.00     0.168 HD
HETATM    8  N   UNK N   1      21.808  11.736  12.144  0.00  0.00    -0.355 N 
HETATM    9  N   UNK N   1      25.234  12.573  10.923  0.00  0.00    -0.349 N 
ATOM     10  HN  UNK N   1      26.011  12.329  11.537  1.00  0.00     0.166 HD
HETATM   11  N   UNK N   1      24.059  13.335   9.171  0.00  0.00    -0.297 N 
HETATM   12  H   UNK N   1      21.257  11.332  12.853  0.00  0.00     0.163 HD
ENDROOT
BRANCH  11  13
HETATM   13  C   UNK N   1      23.680  13.912   7.876  0.00  0.00     0.262 C 
HETATM   14  C   UNK N   1      23.461  12.882   6.778  0.00  0.00     0.198 C 
HETATM   15  C   UNK N   1      22.765  13.755   5.755  0.00  0.00     0.182 C 
HETATM   16  C   UNK N   1      22.057  14.810   6.637  0.00  0.00     0.179 C 
HETATM   17  O   UNK N   1      22.445  14.579   7.976  0.00  0.00    -0.353 OA
BRANCH  14  18
HETATM   18  O   UNK N   1      22.571  11.905   7.241  0.00  0.00    -0.388 OA
HETATM   19  H   UNK N   1      21.814  11.306   7.335  0.00  0.00     0.210 HD
ENDBRANCH  14  18
BRANCH  15  20
HETATM   20  O   UNK N   1      21.909  13.014   4.932  0.00  0.00    -0.390 OA
HETATM   21  H   UNK N   1      21.975  12.565   4.074  0.00  0.00     0.210 HD
ENDBRANCH  15  20
BRANCH  16  22
HETATM   22  C   UNK N   1      20.538  14.816   6.528  0.00  0.00     0.198 C 
BRANCH  22  23
HETATM   23  O   UNK N   1      20.003  13.757   7.268  0.00  0.00    -0.398 OA
HETATM   24  H   UNK N   1      19.343  13.164   6.876  0.00  0.00     0.209 HD
ENDBRANCH  22  23
ENDBRANCH  16  22
ENDBRANCH  11  13
BRANCH   5  25
HETATM   25  O   UNK N   1      23.559  12.491  13.483  0.00  0.00    -0.371 OA
HETATM   26  H   UNK N   1      24.349  12.936  13.830  0.00  0.00     0.212 HD
ENDBRANCH   5  25
TORSDOF 6
ENDMDL
MODEL 3
REMARK VINA RESULT:      -5.6     12.526     14.958
REMARK  6 active torsions:
REMARK  status: ('A' for Active; 'I' for Inactive)
REMARK    1  A    between atoms: C_4  and  C_1 
REMARK    2  A    between atoms: O_17  and  C_1 
REMARK    3  A    between atoms: C_6  and  O_18 
REMARK    4  A    between atoms: C_7  and  O_19 
REMARK    5  A    between atoms: C_9  and  O_20 
REMARK    6  A    between atoms: C_10  and  N_16 
ROOT
HETATM    1  C   UNK N   1      32.836  14.964   7.597  0.00  0.00     0.179 A 
HETATM    2  C   UNK N   1      35.283  16.547  10.951  0.00  0.00     0.187 A 
HETATM    3  C   UNK N   1      34.236  16.842   9.103  0.00  0.00     0.103 A 
HETATM    4  C   UNK N   1      34.156  15.538   9.434  0.00  0.00     0.139 A 
HETATM    5  C   UNK N   1      33.576  17.394   7.881  0.00  0.00     0.273 A 
HETATM    6  N   UNK N   1      33.451  14.584   8.670  0.00  0.00    -0.337 N 
ATOM      7  HN  UNK N   1      33.426  13.607   8.960  1.00  0.00     0.168 HD
HETATM    8  N   UNK N   1      32.866  16.335   7.167  0.00  0.00    -0.355 N 
HETATM    9  N   UNK N   1      34.947  17.501  10.038  0.00  0.00    -0.349 N 
ATOM     10  HN  UNK N   1      35.184  18.493  10.059  1.00  0.00     0.166 HD
HETATM   11  N   UNK N   1      34.799  15.332  10.590  0.00  0.00    -0.297 N 
HETATM   12  H   UNK N   1      32.378  16.575   6.346  0.00  0.00     0.163 HD
ENDROOT
BRANCH  11  13
HETATM   13  C   UNK N   1      34.924  14.047  11.289  0.00  0.00     0.262 C 
HETATM   14  C   UNK N   1      36.222  13.307  11.000  0.00  0.00     0.198 C 
HETATM   15  C   UNK N   1      36.171  12.276  12.107  0.00  0.00     0.182 C 
HETATM   16  C   UNK N   1      35.367  13.004  13.210  0.00  0.00     0.179 C 
HETATM   17  O   UNK N   1      34.941  14.244  12.682  0.00  0.00    -0.353 OA
BRANCH  14  18
HETATM   18  O   UNK N   1      37.299  14.175  11.219  0.00  0.00    -0.388 OA
HETATM   19  H   UNK N   1      38.050  14.777  11.093  0.00  0.00     0.210 HD
ENDBRANCH  14  18
BRANCH  15  20
HETATM   20  O   UNK N   1      37.450  11.863  12.497  0.00  0.00    -0.390 OA
HETATM   21  H   UNK N   1      37.821  11.272  13.171  0.00  0.00     0.210 HD
ENDBRANCH  15  20
BRANCH  16  22
HETATM   22  C   UNK N   1      36.127  13.226  14.512  0.00  0.00     0.198 C 
BRANCH  22  23
HETATM   23  O   UNK N   1      37.112  14.201  14.328  0.00  0.00    -0.398 OA
HETATM   24  H   UNK N   1      38.047  13.952  14.266  0.00  0.00     0.209 HD
ENDBRANCH  22  23
ENDBRANCH  16  22
ENDBRANCH  11  13
BRANCH   5  25
HETATM   25  O   UNK N   1      34.537  17.954   7.039  0.00  0.00    -0.371 OA
HETATM   26  H   UNK N   1      35.379  18.420   7.168  0.00  0.00     0.212 HD
ENDBRANCH   5  25
TORSDOF 6
ENDMDL
MODEL 4
REMARK VINA RESULT:      -5.5     12.770     15.427
REMARK  6 active torsions:
REMARK  status: ('A' for Active; 'I' for Inactive)
REMARK    1  A    between atoms: C_4  and  C_1 
REMARK    2  A    between atoms: O_17  and  C_1 
REMARK    3  A    between atoms: C_6  and  O_18 
REMARK    4  A    between atoms: C_7  and  O_19 
REMARK    5  A    between atoms: C_9  and  O_20 
REMARK    6  A    between atoms: C_10  and  N_16 
ROOT
HETATM    1  C   UNK N   1      35.442  16.778  11.326  0.00  0.00     0.179 A 
HETATM    2  C   UNK N   1      34.134  12.753   9.975  0.00  0.00     0.187 A 
HETATM    3  C   UNK N   1      34.282  14.869   9.664  0.00  0.00     0.103 A 
HETATM    4  C   UNK N   1      34.821  14.576  10.864  0.00  0.00     0.139 A 
HETATM    5  C   UNK N   1      34.257  16.261   9.121  0.00  0.00     0.273 A 
HETATM    6  N   UNK N   1      35.404  15.543  11.710  0.00  0.00    -0.337 N 
ATOM      7  HN  UNK N   1      35.793  15.272  12.612  1.00  0.00     0.168 HD
HETATM    8  N   UNK N   1      34.892  17.182  10.061  0.00  0.00    -0.355 N 
HETATM    9  N   UNK N   1      33.834  13.738   9.084  0.00  0.00    -0.349 N 
ATOM     10  HN  UNK N   1      33.373  13.641   8.180  1.00  0.00     0.166 HD
HETATM   11  N   UNK N   1      34.744  13.257  11.077  0.00  0.00    -0.297 N 
HETATM   12  H   UNK N   1      34.950  18.133   9.812  0.00  0.00     0.163 HD
ENDROOT
BRANCH  11  13
HETATM   13  C   UNK N   1      35.236  12.546  12.264  0.00  0.00     0.262 C 
HETATM   14  C   UNK N   1      36.720  12.215  12.217  0.00  0.00     0.198 C 
HETATM   15  C   UNK N   1      36.937  11.844  13.668  0.00  0.00     0.182 C 
HETATM   16  C   UNK N   1      35.870  12.695  14.397  0.00  0.00     0.179 C 
HETATM   17  O   UNK N   1      35.097  13.349  13.412  0.00  0.00    -0.353 OA
BRANCH  14  18
HETATM   18  O   UNK N   1      37.438  13.380  11.919  0.00  0.00    -0.388 OA
HETATM   19  H   UNK N   1      37.825  14.269  11.955  0.00  0.00     0.210 HD
ENDBRANCH  14  18
BRANCH  15  20
HETATM   20  O   UNK N   1      38.253  12.086  14.079  0.00  0.00    -0.390 OA
HETATM   21  H   UNK N   1      39.138  11.792  13.808  0.00  0.00     0.210 HD
ENDBRANCH  15  20
BRANCH  16  22
HETATM   22  C   UNK N   1      36.429  13.713  15.382  0.00  0.00     0.198 C 
BRANCH  22  23
HETATM   23  O   UNK N   1      37.127  14.709  14.692  0.00  0.00    -0.398 OA
HETATM   24  H   UNK N   1      36.794  15.050  13.847  0.00  0.00     0.209 HD
ENDBRANCH  22  23
ENDBRANCH  16  22
ENDBRANCH  11  13
BRANCH   5  25
HETATM   25  O   UNK N   1      32.937  16.659   8.906  0.00  0.00    -0.371 OA
HETATM   26  H   UNK N   1      32.486  17.233   8.267  0.00  0.00     0.212 HD
ENDBRANCH   5  25
TORSDOF 6
ENDMDL
MODEL 5
REMARK VINA RESULT:      -5.5      9.004     11.728
REMARK  6 active torsions:
REMARK  status: ('A' for Active; 'I' for Inactive)
REMARK    1  A    between atoms: C_4  and  C_1 
REMARK    2  A    between atoms: O_17  and  C_1 
REMARK    3  A    between atoms: C_6  and  O_18 
REMARK    4  A    between atoms: C_7  and  O_19 
REMARK    5  A    between atoms: C_9  and  O_20 
REMARK    6  A    between atoms: C_10  and  N_16 
ROOT
HETATM    1  C   UNK N   1      29.527  16.998  10.123  0.00  0.00     0.179 A 
HETATM    2  C   UNK N   1      31.122  17.062   5.976  0.00  0.00     0.187 A 
HETATM    3  C   UNK N   1      29.527  17.403   7.368  0.00  0.00     0.103 A 
HETATM    4  C   UNK N   1      30.579  16.895   8.042  0.00  0.00     0.139 A 
HETATM    5  C   UNK N   1      28.256  17.790   8.052  0.00  0.00     0.273 A 
HETATM    6  N   UNK N   1      30.579  16.685   9.436  0.00  0.00    -0.337 N 
ATOM      7  HN  UNK N   1      31.398  16.292   9.898  1.00  0.00     0.168 HD
HETATM    8  N   UNK N   1      28.360  17.546   9.489  0.00  0.00    -0.355 N 
HETATM    9  N   UNK N   1      29.840  17.512   6.062  0.00  0.00    -0.349 N 
ATOM     10  HN  UNK N   1      29.248  17.855   5.305  1.00  0.00     0.166 HD
HETATM   11  N   UNK N   1      31.590  16.679   7.192  0.00  0.00    -0.297 N 
HETATM   12  H   UNK N   1      27.587  17.772  10.055  0.00  0.00     0.163 HD
ENDROOT
BRANCH  11  13
HETATM   13  C   UNK N   1      32.912  16.148   7.543  0.00  0.00     0.262 C 
HETATM   14  C   UNK N   1      33.834  17.163   8.202  0.00  0.00     0.198 C 
HETATM   15  C   UNK N   1      34.898  16.226   8.730  0.00  0.00     0.182 C 
HETATM   16  C   UNK N   1      34.108  14.917   8.969  0.00  0.00     0.179 C 
HETATM   17  O   UNK N   1      32.791  15.120   8.498  0.00  0.00    -0.353 OA
BRANCH  14  18
HETATM   18  O   UNK N   1      33.161  17.759   9.276  0.00  0.00    -0.388 OA
HETATM   19  H   UNK N   1      32.918  18.080  10.159  0.00  0.00     0.210 HD
ENDBRANCH  14  18
BRANCH  15  20
HETATM   20  O   UNK N   1      35.530  16.739   9.868  0.00  0.00    -0.390 OA
HETATM   21  H   UNK N   1      35.454  16.618  10.828  0.00  0.00     0.210 HD
ENDBRANCH  15  20
BRANCH  16  22
HETATM   22  C   UNK N   1      34.077  14.446  10.417  0.00  0.00     0.198 C 
BRANCH  22  23
HETATM   23  O   UNK N   1      33.089  15.139  11.122  0.00  0.00    -0.398 OA
HETATM   24  H   UNK N   1      32.458  15.710  10.656  0.00  0.00     0.209 HD
ENDBRANCH  22  23
ENDBRANCH  16  22
ENDBRANCH  11  13
BRANCH   5  25
HETATM   25  O   UNK N   1      27.196  17.046   7.533  0.00  0.00    -0.371 OA
HETATM   26  H   UNK N   1      26.252  16.956   7.737  0.00  0.00     0.212 HD
ENDBRANCH   5  25
TORSDOF 6
ENDMDL
MODEL 6
REMARK VINA RESULT:      -5.4     11.960     13.868
REMARK  6 active torsions:
REMARK  status: ('A' for Active; 'I' for Inactive)
REMARK    1  A    between atoms: C_4  and  C_1 
REMARK    2  A    between atoms: O_17  and  C_1 
REMARK    3  A    between atoms: C_6  and  O_18 
REMARK    4  A    between atoms: C_7  and  O_19 
REMARK    5  A    between atoms: C_9  and  O_20 
REMARK    6  A    between atoms: C_10  and  N_16 
ROOT
HETATM    1  C   UNK N   1      36.312  15.020  12.904  0.00  0.00     0.179 A 
HETATM    2  C   UNK N   1      34.891  11.722  10.288  0.00  0.00     0.187 A 
HETATM    3  C   UNK N   1      35.921  12.401  12.041  0.00  0.00     0.103 A 
HETATM    4  C   UNK N   1      35.500  13.480  11.350  0.00  0.00     0.139 A 
HETATM    5  C   UNK N   1      36.646  12.524  13.342  0.00  0.00     0.273 A 
HETATM    6  N   UNK N   1      35.702  14.807  11.783  0.00  0.00    -0.337 N 
ATOM      7  HN  UNK N   1      35.370  15.589  11.220  1.00  0.00     0.168 HD
HETATM    8  N   UNK N   1      36.794  13.930  13.709  0.00  0.00    -0.355 N 
HETATM    9  N   UNK N   1      35.556  11.280  11.390  0.00  0.00    -0.349 N 
ATOM     10  HN  UNK N   1      35.738  10.314  11.662  1.00  0.00     0.166 HD
HETATM   11  N   UNK N   1      34.849  13.078  10.252  0.00  0.00    -0.297 N 
HETATM   12  H   UNK N   1      37.248  14.145  14.556  0.00  0.00     0.163 HD
ENDROOT
BRANCH  11  13
HETATM   13  C   UNK N   1      34.228  13.954   9.251  0.00  0.00     0.262 C 
HETATM   14  C   UNK N   1      32.848  14.464   9.643  0.00  0.00     0.198 C 
HETATM   15  C   UNK N   1      32.688  15.561   8.612  0.00  0.00     0.182 C 
HETATM   16  C   UNK N   1      34.149  15.992   8.347  0.00  0.00     0.179 C 
HETATM   17  O   UNK N   1      34.991  15.123   9.077  0.00  0.00    -0.353 OA
BRANCH  14  18
HETATM   18  O   UNK N   1      32.919  15.030  10.921  0.00  0.00    -0.388 OA
HETATM   19  H   UNK N   1      33.040  15.647  11.660  0.00  0.00     0.210 HD
ENDBRANCH  14  18
BRANCH  15  20
HETATM   20  O   UNK N   1      31.852  16.587   9.067  0.00  0.00    -0.390 OA
HETATM   21  H   UNK N   1      31.728  17.075   9.897  0.00  0.00     0.210 HD
ENDBRANCH  15  20
BRANCH  16  22
HETATM   22  C   UNK N   1      34.462  17.440   8.701  0.00  0.00     0.198 C 
BRANCH  22  23
HETATM   23  O   UNK N   1      34.696  17.554  10.075  0.00  0.00    -0.398 OA
HETATM   24  H   UNK N   1      35.566  17.340  10.447  0.00  0.00     0.209 HD
ENDBRANCH  22  23
ENDBRANCH  16  22
ENDBRANCH  11  13
BRANCH   5  25
HETATM   25  O   UNK N   1      37.908  11.940  13.234  0.00  0.00    -0.371 OA
HETATM   26  H   UNK N   1      38.456  11.373  13.801  0.00  0.00     0.212 HD
ENDBRANCH   5  25
TORSDOF 6
ENDMDL
MODEL 7
REMARK VINA RESULT:      -5.4     11.360     13.601
REMARK  6 active torsions:
REMARK  status: ('A' for Active; 'I' for Inactive)
REMARK    1  A    between atoms: C_4  and  C_1 
REMARK    2  A    between atoms: O_17  and  C_1 
REMARK    3  A    between atoms: C_6  and  O_18 
REMARK    4  A    between atoms: C_7  and  O_19 
REMARK    5  A    between atoms: C_9  and  O_20 
REMARK    6  A    between atoms: C_10  and  N_16 
ROOT
HETATM    1  C   UNK N   1      31.935  14.686   7.026  0.00  0.00     0.179 A 
HETATM    2  C   UNK N   1      34.695  17.703   8.764  0.00  0.00     0.187 A 
HETATM    3  C   UNK N   1      33.119  17.177   7.408  0.00  0.00     0.103 A 
HETATM    4  C   UNK N   1      33.511  16.063   8.059  0.00  0.00     0.139 A 
HETATM    5  C   UNK N   1      32.007  17.166   6.411  0.00  0.00     0.273 A 
HETATM    6  N   UNK N   1      32.915  14.799   7.863  0.00  0.00    -0.337 N 
ATOM      7  HN  UNK N   1      33.252  13.985   8.375  1.00  0.00     0.168 HD
HETATM    8  N   UNK N   1      31.450  15.820   6.289  0.00  0.00    -0.355 N 
HETATM    9  N   UNK N   1      33.855  18.224   7.828  0.00  0.00    -0.349 N 
ATOM     10  HN  UNK N   1      33.796  19.194   7.515  1.00  0.00     0.166 HD
HETATM   11  N   UNK N   1      34.492  16.369   8.916  0.00  0.00    -0.297 N 
HETATM   12  H   UNK N   1      30.698  15.683   5.667  0.00  0.00     0.163 HD
ENDROOT
BRANCH  11  13
HETATM   13  C   UNK N   1      35.172  15.432   9.818  0.00  0.00     0.262 C 
HETATM   14  C   UNK N   1      34.499  15.277  11.174  0.00  0.00     0.198 C 
HETATM   15  C   UNK N   1      35.213  14.036  11.665  0.00  0.00     0.182 C 
HETATM   16  C   UNK N   1      35.553  13.299  10.349  0.00  0.00     0.179 C 
HETATM   17  O   UNK N   1      35.162  14.132   9.277  0.00  0.00    -0.353 OA
BRANCH  14  18
HETATM   18  O   UNK N   1      33.142  14.989  10.978  0.00  0.00    -0.388 OA
HETATM   19  H   UNK N   1      32.194  15.060  10.781  0.00  0.00     0.210 HD
ENDBRANCH  14  18
BRANCH  15  20
HETATM   20  O   UNK N   1      34.427  13.299  12.558  0.00  0.00    -0.390 OA
HETATM   21  H   UNK N   1      34.573  12.580  13.192  0.00  0.00     0.210 HD
ENDBRANCH  15  20
BRANCH  16  22
HETATM   22  C   UNK N   1      34.911  11.926  10.202  0.00  0.00     0.198 C 
BRANCH  22  23
HETATM   23  O   UNK N   1      33.528  12.060  10.053  0.00  0.00    -0.398 OA
HETATM   24  H   UNK N   1      33.080  12.878  10.320  0.00  0.00     0.209 HD
ENDBRANCH  22  23
ENDBRANCH  16  22
ENDBRANCH  11  13
BRANCH   5  25
HETATM   25  O   UNK N   1      32.484  17.583   5.168  0.00  0.00    -0.371 OA
HETATM   26  H   UNK N   1      32.079  17.811   4.316  0.00  0.00     0.212 HD
ENDBRANCH   5  25
TORSDOF 6
ENDMDL
MODEL 8
REMARK VINA RESULT:      -5.2      9.171     10.862
REMARK  6 active torsions:
REMARK  status: ('A' for Active; 'I' for Inactive)
REMARK    1  A    between atoms: C_4  and  C_1 
REMARK    2  A    between atoms: O_17  and  C_1 
REMARK    3  A    between atoms: C_6  and  O_18 
REMARK    4  A    between atoms: C_7  and  O_19 
REMARK    5  A    between atoms: C_9  and  O_20 
REMARK    6  A    between atoms: C_10  and  N_16 
ROOT
HETATM    1  C   UNK N   1      33.609  14.011   9.575  0.00  0.00     0.179 A 
HETATM    2  C   UNK N   1      32.655  18.161   8.307  0.00  0.00     0.187 A 
HETATM    3  C   UNK N   1      34.072  16.684   8.948  0.00  0.00     0.103 A 
HETATM    4  C   UNK N   1      32.847  16.121   8.930  0.00  0.00     0.139 A 
HETATM    5  C   UNK N   1      35.297  15.913   9.316  0.00  0.00     0.273 A 
HETATM    6  N   UNK N   1      32.610  14.768   9.253  0.00  0.00    -0.337 N 
ATOM      7  HN  UNK N   1      31.664  14.390   9.231  1.00  0.00     0.168 HD
HETATM    8  N   UNK N   1      34.950  14.526   9.619  0.00  0.00    -0.355 N 
HETATM    9  N   UNK N   1      33.978  17.973   8.566  0.00  0.00    -0.349 N 
ATOM     10  HN  UNK N   1      34.731  18.657   8.489  1.00  0.00     0.166 HD
HETATM   11  N   UNK N   1      31.946  17.025   8.527  0.00  0.00    -0.297 N 
HETATM   12  H   UNK N   1      35.677  13.909   9.867  0.00  0.00     0.163 HD
ENDROOT
BRANCH  11  13
HETATM   13  C   UNK N   1      30.506  16.792   8.363  0.00  0.00     0.262 C 
HETATM   14  C   UNK N   1      29.659  17.303   9.520  0.00  0.00     0.198 C 
HETATM   15  C   UNK N   1      28.291  17.231   8.876  0.00  0.00     0.182 C 
HETATM   16  C   UNK N   1      28.612  17.438   7.377  0.00  0.00     0.179 C 
HETATM   17  O   UNK N   1      30.018  17.490   7.243  0.00  0.00    -0.353 OA
BRANCH  14  18
HETATM   18  O   UNK N   1      29.990  18.640   9.769  0.00  0.00    -0.388 OA
HETATM   19  H   UNK N   1      30.231  19.474  10.204  0.00  0.00     0.210 HD
ENDBRANCH  14  18
BRANCH  15  20
HETATM   20  O   UNK N   1      27.409  18.173   9.417  0.00  0.00    -0.390 OA
HETATM   21  H   UNK N   1      26.487  18.178   9.720  0.00  0.00     0.210 HD
ENDBRANCH  15  20
BRANCH  16  22
HETATM   22  C   UNK N   1      27.983  18.678   6.754  0.00  0.00     0.198 C 
BRANCH  22  23
HETATM   23  O   UNK N   1      28.372  19.817   7.465  0.00  0.00    -0.398 OA
HETATM   24  H   UNK N   1      28.152  19.912   8.405  0.00  0.00     0.209 HD
ENDBRANCH  22  23
ENDBRANCH  16  22
ENDBRANCH  11  13
BRANCH   5  25
HETATM   25  O   UNK N   1      35.901  16.493  10.431  0.00  0.00    -0.371 OA
HETATM   26  H   UNK N   1      35.633  17.142  11.101  0.00  0.00     0.212 HD
ENDBRANCH   5  25
TORSDOF 6
ENDMDL
MODEL 9
REMARK VINA RESULT:      -5.2     11.210     12.113
REMARK  6 active torsions:
REMARK  status: ('A' for Active; 'I' for Inactive)
REMARK    1  A    between atoms: C_4  and  C_1 
REMARK    2  A    between atoms: O_17  and  C_1 
REMARK    3  A    between atoms: C_6  and  O_18 
REMARK    4  A    between atoms: C_7  and  O_19 
REMARK    5  A    between atoms: C_9  and  O_20 
REMARK    6  A    between atoms: C_10  and  N_16 
ROOT
HETATM    1  C   UNK N   1      33.187  13.570   7.954  0.00  0.00     0.179 A 
HETATM    2  C   UNK N   1      33.172  18.008   8.160  0.00  0.00     0.187 A 
HETATM    3  C   UNK N   1      33.548  16.099   9.061  0.00  0.00     0.103 A 
HETATM    4  C   UNK N   1      33.043  15.896   7.828  0.00  0.00     0.139 A 
HETATM    5  C   UNK N   1      33.957  14.969   9.950  0.00  0.00     0.273 A 
HETATM    6  N   UNK N   1      32.855  14.615   7.267  0.00  0.00    -0.337 N 
ATOM      7  HN  UNK N   1      32.462  14.514   6.332  1.00  0.00     0.168 HD
HETATM    8  N   UNK N   1      33.735  13.691   9.277  0.00  0.00    -0.355 N 
HETATM    9  N   UNK N   1      33.634  17.422   9.299  0.00  0.00    -0.349 N 
ATOM     10  HN  UNK N   1      33.969  17.884  10.145  1.00  0.00     0.166 HD
HETATM   11  N   UNK N   1      32.805  17.077   7.244  0.00  0.00    -0.297 N 
HETATM   12  H   UNK N   1      33.976  12.866   9.757  0.00  0.00     0.163 HD
ENDROOT
BRANCH  11  13
HETATM   13  C   UNK N   1      32.268  17.276   5.893  0.00  0.00     0.262 C 
HETATM   14  C   UNK N   1      33.317  17.212   4.792  0.00  0.00     0.198 C 
HETATM   15  C   UNK N   1      32.407  17.094   3.589  0.00  0.00     0.182 C 
HETATM   16  C   UNK N   1      31.165  16.380   4.173  0.00  0.00     0.179 C 
HETATM   17  O   UNK N   1      31.361  16.250   5.566  0.00  0.00    -0.353 OA
BRANCH  14  18
HETATM   18  O   UNK N   1      34.056  16.031   4.937  0.00  0.00    -0.388 OA
HETATM   19  H   UNK N   1      34.681  15.301   4.798  0.00  0.00     0.210 HD
ENDBRANCH  14  18
BRANCH  15  20
HETATM   20  O   UNK N   1      33.023  16.415   2.531  0.00  0.00    -0.390 OA
HETATM   21  H   UNK N   1      33.809  15.857   2.419  0.00  0.00     0.210 HD
ENDBRANCH  15  20
BRANCH  16  22
HETATM   22  C   UNK N   1      30.863  15.019   3.560  0.00  0.00     0.198 C 
BRANCH  22  23
HETATM   23  O   UNK N   1      31.740  14.060   4.074  0.00  0.00    -0.398 OA
HETATM   24  H   UNK N   1      31.804  13.181   3.669  0.00  0.00     0.209 HD
ENDBRANCH  22  23
ENDBRANCH  16  22
ENDBRANCH  11  13
BRANCH   5  25
HETATM   25  O   UNK N   1      33.213  15.005  11.129  0.00  0.00    -0.371 OA
HETATM   26  H   UNK N   1      33.419  15.117  12.071  0.00  0.00     0.212 HD
ENDBRANCH   5  25
TORSDOF 6
ENDMDL
