REMARK  6 active torsions:
REMARK  status: ('A' for Active; 'I' for Inactive)
REMARK    1  A    between atoms: O_1  and  C_2 
REMARK    2  A    between atoms: C_2  and  C_4 
REMARK    3  A    between atoms: C_7  and  O_8 
REMARK    4  A    between atoms: O_8  and  C_9 
REMARK    5  A    between atoms: C_9  and  C_10 
REMARK    6  A    between atoms: C_10  and  N_11 
ROOT
HETATM    1  C   UNK N   1      -0.886   8.966   0.000  0.00  0.00     0.037 A 
HETATM    2  C   UNK N   1       0.232   9.826   0.000  0.00  0.00     0.021 A 
HETATM    3  C   UNK N   1       1.539   9.300   0.000  0.00  0.00     0.038 A 
HETATM    4  C   UNK N   1       1.723   7.913   0.000  0.00  0.00     0.068 A 
HETATM    5  C   UNK N   1       0.581   7.078   0.000  0.00  0.00     0.038 A 
HETATM    6  C   UNK N   1      -0.695   7.591   0.000  0.00  0.00     0.021 A 
ENDROOT
BRANCH   4   7
HETATM    7  O   UNK N   1       2.966   7.351   0.000  0.00  0.00    -0.350 OA
BRANCH   7   8
HETATM    8  C   UNK N   1       2.973   5.979  -0.000  0.00  0.00     0.196 C 
BRANCH   8   9
HETATM    9  C   UNK N   1       4.193   5.105   0.000  0.00  0.00     0.156 C 
BRANCH   9  10
HETATM   10  N   UNK N   1       3.663   3.725   0.000  0.00  0.00    -0.350 N 
HETATM   11  C   UNK N   1       4.372   2.593   0.000  0.00  0.00     0.108 A 
HETATM   12  C   UNK N   1       3.469   1.538   0.000  0.00  0.00     0.106 A 
HETATM   13  N   UNK N   1       2.218   2.033  -0.000  0.00  0.00    -0.361 N 
HETATM   14  C   UNK N   1       2.357   3.370   0.000  0.00  0.00     0.182 A 
ATOM     15  HN  UNK N   1       1.346   1.504  -0.000  1.00  0.00     0.166 HD
ENDBRANCH   9  10
ENDBRANCH   8   9
ENDBRANCH   7   8
ENDBRANCH   4   7
BRANCH   1  16
HETATM   16  C   UNK N   1      -2.267   9.470  -0.000  0.00  0.00     0.176 C 
HETATM   17  O   UNK N   1      -2.485  10.672  -0.000  0.00  0.00    -0.646 OA
BRANCH  16  18
HETATM   18  O   UNK N   1      -3.302   8.607  -0.000  0.00  0.00    -0.773 OA
HETATM   19  H   UNK N   1      -4.182   8.930  -0.000  0.00  0.00     0.167 HD
ENDBRANCH  16  18
ENDBRANCH   1  16
TORSDOF 6
