REMARK  2 active torsions:
REMARK  status: ('A' for Active; 'I' for Inactive)
REMARK    1  A    between atoms: C_2  and  C_3 
REMARK    2  A    between atoms: C_3  and  C_4 
ROOT
HETATM    1  C   UNK N   1       1.243  -0.764   0.000  0.00  0.00     0.138 C 
ENDROOT
BRANCH   1   2
HETATM    2  C   UNK N   1       2.731  -0.781   0.000  0.00  0.00     0.237 C 
HETATM    3  O   UNK N   1       3.328  -1.844   0.000  0.00  0.00    -0.306 OA
ENDBRANCH   1   2
BRANCH   1   4
HETATM    4  C   UNK N   1       0.757   0.643  -0.000  0.00  0.00     0.237 C 
HETATM    5  O   UNK N   1      -0.438   0.875  -0.000  0.00  0.00    -0.306 OA
ENDBRANCH   1   4
TORSDOF 2
