REMARK  6 active torsions:
REMARK  status: ('A' for Active; 'I' for Inactive)
REMARK    1  A    between atoms: C_2  and  C_3 
REMARK    2  A    between atoms: C_3  and  C_4 
REMARK    3  A    between atoms: C_4  and  C_5 
REMARK    4  A    between atoms: C_5  and  C_6 
REMARK    5  A    between atoms: C_6  and  N_8 
REMARK    6  A    between atoms: N_8  and  C_9 
ROOT
HETATM    1  C   UNK N   1       7.038   2.125   0.000  0.00  0.00     0.079 C 
HETATM    2  C   UNK N   1       7.180   0.605  -0.000  0.00  0.00     0.032 C 
ENDROOT
BRANCH   1   3
HETATM    3  C   UNK N   1       5.712   2.868  -0.000  0.00  0.00     0.024 C 
BRANCH   3   4
HETATM    4  C   UNK N   1       4.504   1.955   0.000  0.00  0.00     0.002 C 
BRANCH   4   5
HETATM    5  C   UNK N   1       3.273   2.832  -0.000  0.00  0.00    -0.000 C 
BRANCH   5   6
HETATM    6  C   UNK N   1       2.024   1.983   0.000  0.00  0.00    -0.005 C 
HETATM    7  C   UNK N   1       0.816   2.896  -0.000  0.00  0.00     0.005 C 
ENDBRANCH   5   6
ENDBRANCH   4   5
ENDBRANCH   3   4
ENDBRANCH   1   3
BRANCH   1   8
HETATM    8  N   UNK N   1       8.215   2.959  -0.000  0.00  0.00    -0.364 N 
HETATM    9  H   UNK N   1       8.103   3.937  -0.000  0.00  0.00     0.162 HD
BRANCH   8  10
HETATM   10  C   UNK N   1       9.464   2.449   0.000  0.00  0.00     0.348 C 
HETATM   11  O   UNK N   1      10.424   3.199  -0.000  0.00  0.00    -0.284 OA
ENDBRANCH   8  10
ENDBRANCH   1   8
TORSDOF 6
