REMARK  5 active torsions:
REMARK  status: ('A' for Active; 'I' for Inactive)
REMARK    1  A    between atoms: C_6  and  C_1 
REMARK    2  A    between atoms: O_9  and  C_1 
REMARK    3  A    between atoms: C_2  and  O_10 
REMARK    4  A    between atoms: C_3  and  O_11 
REMARK    5  A    between atoms: C_4  and  O_12 
ROOT
HETATM    1  C   UNK N   1       1.827   1.049  -0.401  0.00  0.00     0.186 C 
HETATM    2  C   UNK N   1       0.716   1.891   0.239  0.00  0.00     0.209 C 
HETATM    3  C   UNK N   1       1.768  -0.385   0.149  0.00  0.00     0.219 C 
HETATM    4  C   UNK N   1      -0.634   1.187   0.035  0.00  0.00     0.342 C 
HETATM    5  C   UNK N   1       0.338  -0.941  -0.064  0.00  0.00     0.257 C 
HETATM    6  F   UNK N   1      -1.625   1.919   0.663  0.00  0.00    -0.217 F 
HETATM    7  F   UNK N   1       0.044  -1.022  -1.421  0.00  0.00    -0.206 F 
HETATM    8  O   UNK N   1      -0.611  -0.117   0.598  0.00  0.00    -0.309 OA
ENDROOT
BRANCH   5   9
HETATM    9  C   UNK N   1       0.211  -2.351   0.508  0.00  0.00     0.240 C 
BRANCH   9  10
HETATM   10  O   UNK N   1       0.988  -3.255  -0.218  0.00  0.00    -0.395 OA
HETATM   11  H   UNK N   1       0.714  -4.037  -0.722  0.00  0.00     0.209 HD
ENDBRANCH   9  10
ENDBRANCH   5   9
BRANCH   3  12
HETATM   12  O   UNK N   1       2.078  -0.383   1.515  0.00  0.00    -0.387 OA
HETATM   13  H   UNK N   1       2.186  -0.568   2.461  0.00  0.00     0.210 HD
ENDBRANCH   3  12
BRANCH   1  14
HETATM   14  O   UNK N   1       3.078   1.617  -0.147  0.00  0.00    -0.390 OA
HETATM   15  H   UNK N   1       3.854   1.063   0.029  0.00  0.00     0.210 HD
ENDBRANCH   1  14
BRANCH   2  16
HETATM   16  O   UNK N   1       0.684   3.163  -0.341  0.00  0.00    -0.388 OA
HETATM   17  H   UNK N   1       1.437   3.623  -0.744  0.00  0.00     0.210 HD
ENDBRANCH   2  16
TORSDOF 5
