MODEL 1
REMARK VINA RESULT:      -4.1      0.000      0.000
REMARK  6 active torsions:
REMARK  status: ('A' for Active; 'I' for Inactive)
REMARK    1  A    between atoms: C_2  and  C_3 
REMARK    2  A    between atoms: C_3  and  C_4 
REMARK    3  A    between atoms: C_4  and  C_5 
REMARK    4  A    between atoms: C_5  and  C_6 
REMARK    5  A    between atoms: C_6  and  N_8 
REMARK    6  A    between atoms: N_8  and  C_9 
ROOT
HETATM    1  C   UNK N   1      36.792  14.105  15.197  0.00  0.00     0.079 C 
HETATM    2  C   UNK N   1      37.342  15.348  15.891  0.00  0.00     0.032 C 
ENDROOT
BRANCH   1   3
HETATM    3  C   UNK N   1      36.126  12.941  15.912  0.00  0.00     0.024 C 
BRANCH   3   4
HETATM    4  C   UNK N   1      34.990  13.357  16.823  0.00  0.00     0.002 C 
BRANCH   4   5
HETATM    5  C   UNK N   1      35.175  12.633  18.137  0.00  0.00    -0.000 C 
BRANCH   5   6
HETATM    6  C   UNK N   1      35.468  11.171  17.894  0.00  0.00    -0.005 C 
HETATM    7  C   UNK N   1      36.076  10.583  19.150  0.00  0.00     0.005 C 
ENDBRANCH   5   6
ENDBRANCH   4   5
ENDBRANCH   3   4
ENDBRANCH   1   3
BRANCH   1   8
HETATM    8  N   UNK N   1      36.885  13.979  13.763  0.00  0.00    -0.364 N 
HETATM    9  H   UNK N   1      37.662  13.513  13.378  0.00  0.00     0.162 HD
BRANCH   8  10
HETATM   10  C   UNK N   1      35.948  14.476  12.930  0.00  0.00     0.348 C 
HETATM   11  O   UNK N   1      34.880  13.902  12.810  0.00  0.00    -0.284 OA
ENDBRANCH   8  10
ENDBRANCH   1   8
TORSDOF 6
ENDMDL
MODEL 2
REMARK VINA RESULT:      -4.0     14.129     15.508
REMARK  6 active torsions:
REMARK  status: ('A' for Active; 'I' for Inactive)
REMARK    1  A    between atoms: C_2  and  C_3 
REMARK    2  A    between atoms: C_3  and  C_4 
REMARK    3  A    between atoms: C_4  and  C_5 
REMARK    4  A    between atoms: C_5  and  C_6 
REMARK    5  A    between atoms: C_6  and  N_8 
REMARK    6  A    between atoms: N_8  and  C_9 
ROOT
HETATM    1  C   UNK N   1      23.110  12.179  10.430  0.00  0.00     0.079 C 
HETATM    2  C   UNK N   1      23.986  11.769   9.248  0.00  0.00     0.032 C 
ENDROOT
BRANCH   1   3
HETATM    3  C   UNK N   1      21.606  12.383  10.359  0.00  0.00     0.024 C 
BRANCH   3   4
HETATM    4  C   UNK N   1      21.200  13.795   9.993  0.00  0.00     0.002 C 
BRANCH   4   5
HETATM    5  C   UNK N   1      20.965  13.826   8.501  0.00  0.00    -0.000 C 
BRANCH   5   6
HETATM    6  C   UNK N   1      21.309  15.188   7.944  0.00  0.00    -0.005 C 
HETATM    7  C   UNK N   1      20.483  16.231   8.667  0.00  0.00     0.005 C 
ENDBRANCH   5   6
ENDBRANCH   4   5
ENDBRANCH   3   4
ENDBRANCH   1   3
BRANCH   1   8
HETATM    8  N   UNK N   1      23.705  12.400  11.725  0.00  0.00    -0.364 N 
HETATM    9  H   UNK N   1      24.545  12.911  11.780  0.00  0.00     0.162 HD
BRANCH   8  10
HETATM   10  C   UNK N   1      23.154  11.934  12.865  0.00  0.00     0.348 C 
HETATM   11  O   UNK N   1      23.670  12.194  13.937  0.00  0.00    -0.284 OA
ENDBRANCH   8  10
ENDBRANCH   1   8
TORSDOF 6
ENDMDL
MODEL 3
REMARK VINA RESULT:      -4.0      6.854      9.390
REMARK  6 active torsions:
REMARK  status: ('A' for Active; 'I' for Inactive)
REMARK    1  A    between atoms: C_2  and  C_3 
REMARK    2  A    between atoms: C_3  and  C_4 
REMARK    3  A    between atoms: C_4  and  C_5 
REMARK    4  A    between atoms: C_5  and  C_6 
REMARK    5  A    between atoms: C_6  and  N_8 
REMARK    6  A    between atoms: N_8  and  C_9 
ROOT
HETATM    1  C   UNK N   1      33.888  17.308   8.933  0.00  0.00     0.079 C 
HETATM    2  C   UNK N   1      34.539  18.440   8.143  0.00  0.00     0.032 C 
ENDROOT
BRANCH   1   3
HETATM    3  C   UNK N   1      32.655  16.540   8.485  0.00  0.00     0.024 C 
BRANCH   3   4
HETATM    4  C   UNK N   1      31.886  17.221   7.373  0.00  0.00     0.002 C 
BRANCH   4   5
HETATM    5  C   UNK N   1      30.475  17.442   7.867  0.00  0.00    -0.000 C 
BRANCH   5   6
HETATM    6  C   UNK N   1      30.446  18.553   8.891  0.00  0.00    -0.005 C 
HETATM    7  C   UNK N   1      29.334  18.274   9.879  0.00  0.00     0.005 C 
ENDBRANCH   5   6
ENDBRANCH   4   5
ENDBRANCH   3   4
ENDBRANCH   1   3
BRANCH   1   8
HETATM    8  N   UNK N   1      34.444  16.901  10.201  0.00  0.00    -0.364 N 
HETATM    9  H   UNK N   1      34.055  17.266  11.028  0.00  0.00     0.162 HD
BRANCH   8  10
HETATM   10  C   UNK N   1      35.477  16.039  10.295  0.00  0.00     0.348 C 
HETATM   11  O   UNK N   1      36.548  16.423  10.731  0.00  0.00    -0.284 OA
ENDBRANCH   8  10
ENDBRANCH   1   8
TORSDOF 6
ENDMDL
MODEL 4
REMARK VINA RESULT:      -4.0      1.993      2.561
REMARK  6 active torsions:
REMARK  status: ('A' for Active; 'I' for Inactive)
REMARK    1  A    between atoms: C_2  and  C_3 
REMARK    2  A    between atoms: C_3  and  C_4 
REMARK    3  A    between atoms: C_4  and  C_5 
REMARK    4  A    between atoms: C_5  and  C_6 
REMARK    5  A    between atoms: C_6  and  N_8 
REMARK    6  A    between atoms: N_8  and  C_9 
ROOT
HETATM    1  C   UNK N   1      36.798  13.703  15.028  0.00  0.00     0.079 C 
HETATM    2  C   UNK N   1      37.190  14.982  15.764  0.00  0.00     0.032 C 
ENDROOT
BRANCH   1   3
HETATM    3  C   UNK N   1      36.413  12.399  15.708  0.00  0.00     0.024 C 
BRANCH   3   4
HETATM    4  C   UNK N   1      34.928  12.269  15.974  0.00  0.00     0.002 C 
BRANCH   4   5
HETATM    5  C   UNK N   1      34.537  10.840  15.671  0.00  0.00    -0.000 C 
BRANCH   5   6
HETATM    6  C   UNK N   1      33.497  10.802  14.577  0.00  0.00    -0.005 C 
HETATM    7  C   UNK N   1      34.150  10.306  13.304  0.00  0.00     0.005 C 
ENDBRANCH   5   6
ENDBRANCH   4   5
ENDBRANCH   3   4
ENDBRANCH   1   3
BRANCH   1   8
HETATM    8  N   UNK N   1      36.777  13.679  13.586  0.00  0.00    -0.364 N 
HETATM    9  H   UNK N   1      37.490  13.197  13.109  0.00  0.00     0.162 HD
BRANCH   8  10
HETATM   10  C   UNK N   1      35.815  14.292  12.866  0.00  0.00     0.348 C 
HETATM   11  O   UNK N   1      34.717  13.776  12.758  0.00  0.00    -0.284 OA
ENDBRANCH   8  10
ENDBRANCH   1   8
TORSDOF 6
ENDMDL
MODEL 5
REMARK VINA RESULT:      -4.0     25.343     27.012
REMARK  6 active torsions:
REMARK  status: ('A' for Active; 'I' for Inactive)
REMARK    1  A    between atoms: C_2  and  C_3 
REMARK    2  A    between atoms: C_3  and  C_4 
REMARK    3  A    between atoms: C_4  and  C_5 
REMARK    4  A    between atoms: C_5  and  C_6 
REMARK    5  A    between atoms: C_6  and  N_8 
REMARK    6  A    between atoms: N_8  and  C_9 
ROOT
HETATM    1  C   UNK N   1      25.416  25.763  -6.262  0.00  0.00     0.079 C 
HETATM    2  C   UNK N   1      26.103  25.715  -7.625  0.00  0.00     0.032 C 
ENDROOT
BRANCH   1   3
HETATM    3  C   UNK N   1      24.825  27.016  -5.637  0.00  0.00     0.024 C 
BRANCH   3   4
HETATM    4  C   UNK N   1      25.866  28.010  -5.168  0.00  0.00     0.002 C 
BRANCH   4   5
HETATM    5  C   UNK N   1      25.806  28.051  -3.658  0.00  0.00    -0.000 C 
BRANCH   5   6
HETATM    6  C   UNK N   1      26.786  29.067  -3.121  0.00  0.00    -0.005 C 
HETATM    7  C   UNK N   1      26.530  30.395  -3.801  0.00  0.00     0.005 C 
ENDBRANCH   5   6
ENDBRANCH   4   5
ENDBRANCH   3   4
ENDBRANCH   1   3
BRANCH   1   8
HETATM    8  N   UNK N   1      25.295  24.561  -5.473  0.00  0.00    -0.364 N 
HETATM    9  H   UNK N   1      24.481  24.015  -5.563  0.00  0.00     0.162 HD
BRANCH   8  10
HETATM   10  C   UNK N   1      26.256  24.157  -4.616  0.00  0.00     0.348 C 
HETATM   11  O   UNK N   1      26.221  24.520  -3.454  0.00  0.00    -0.284 OA
ENDBRANCH   8  10
ENDBRANCH   1   8
TORSDOF 6
ENDMDL
MODEL 6
REMARK VINA RESULT:      -3.9     12.329     15.168
REMARK  6 active torsions:
REMARK  status: ('A' for Active; 'I' for Inactive)
REMARK    1  A    between atoms: C_2  and  C_3 
REMARK    2  A    between atoms: C_3  and  C_4 
REMARK    3  A    between atoms: C_4  and  C_5 
REMARK    4  A    between atoms: C_5  and  C_6 
REMARK    5  A    between atoms: C_6  and  N_8 
REMARK    6  A    between atoms: N_8  and  C_9 
ROOT
HETATM    1  C   UNK N   1      27.941  18.994   7.162  0.00  0.00     0.079 C 
HETATM    2  C   UNK N   1      28.440  17.799   6.352  0.00  0.00     0.032 C 
ENDROOT
BRANCH   1   3
HETATM    3  C   UNK N   1      27.630  20.362   6.579  0.00  0.00     0.024 C 
BRANCH   3   4
HETATM    4  C   UNK N   1      27.722  20.414   5.068  0.00  0.00     0.002 C 
BRANCH   4   5
HETATM    5  C   UNK N   1      26.352  20.780   4.544  0.00  0.00    -0.000 C 
BRANCH   5   6
HETATM    6  C   UNK N   1      26.164  20.242   3.146  0.00  0.00    -0.005 C 
HETATM    7  C   UNK N   1      24.747  20.532   2.699  0.00  0.00     0.005 C 
ENDBRANCH   5   6
ENDBRANCH   4   5
ENDBRANCH   3   4
ENDBRANCH   1   3
BRANCH   1   8
HETATM    8  N   UNK N   1      27.734  18.865   8.584  0.00  0.00    -0.364 N 
HETATM    9  H   UNK N   1      27.155  19.518   9.040  0.00  0.00     0.162 HD
BRANCH   8  10
HETATM   10  C   UNK N   1      28.304  17.883   9.313  0.00  0.00     0.348 C 
HETATM   11  O   UNK N   1      27.623  16.959   9.721  0.00  0.00    -0.284 OA
ENDBRANCH   8  10
ENDBRANCH   1   8
TORSDOF 6
ENDMDL
MODEL 7
REMARK VINA RESULT:      -3.9     17.172     19.466
REMARK  6 active torsions:
REMARK  status: ('A' for Active; 'I' for Inactive)
REMARK    1  A    between atoms: C_2  and  C_3 
REMARK    2  A    between atoms: C_3  and  C_4 
REMARK    3  A    between atoms: C_4  and  C_5 
REMARK    4  A    between atoms: C_5  and  C_6 
REMARK    5  A    between atoms: C_6  and  N_8 
REMARK    6  A    between atoms: N_8  and  C_9 
ROOT
HETATM    1  C   UNK N   1      22.364  20.229   2.963  0.00  0.00     0.079 C 
HETATM    2  C   UNK N   1      21.977  18.977   3.747  0.00  0.00     0.032 C 
ENDROOT
BRANCH   1   3
HETATM    3  C   UNK N   1      23.787  20.738   2.799  0.00  0.00     0.024 C 
BRANCH   3   4
HETATM    4  C   UNK N   1      24.808  19.960   3.602  0.00  0.00     0.002 C 
BRANCH   4   5
HETATM    5  C   UNK N   1      26.177  20.440   3.180  0.00  0.00    -0.000 C 
BRANCH   5   6
HETATM    6  C   UNK N   1      27.209  20.058   4.216  0.00  0.00    -0.005 C 
HETATM    7  C   UNK N   1      27.549  18.593   4.045  0.00  0.00     0.005 C 
ENDBRANCH   5   6
ENDBRANCH   4   5
ENDBRANCH   3   4
ENDBRANCH   1   3
BRANCH   1   8
HETATM    8  N   UNK N   1      21.345  21.017   2.314  0.00  0.00    -0.364 N 
HETATM    9  H   UNK N   1      21.113  21.896   2.693  0.00  0.00     0.162 HD
BRANCH   8  10
HETATM   10  C   UNK N   1      20.698  20.596   1.208  0.00  0.00     0.348 C 
HETATM   11  O   UNK N   1      21.197  20.773   0.111  0.00  0.00    -0.284 OA
ENDBRANCH   8  10
ENDBRANCH   1   8
TORSDOF 6
ENDMDL
MODEL 8
REMARK VINA RESULT:      -3.8     13.053     14.392
REMARK  6 active torsions:
REMARK  status: ('A' for Active; 'I' for Inactive)
REMARK    1  A    between atoms: C_2  and  C_3 
REMARK    2  A    between atoms: C_3  and  C_4 
REMARK    3  A    between atoms: C_4  and  C_5 
REMARK    4  A    between atoms: C_5  and  C_6 
REMARK    5  A    between atoms: C_6  and  N_8 
REMARK    6  A    between atoms: N_8  and  C_9 
ROOT
HETATM    1  C   UNK N   1      23.298  12.246  10.684  0.00  0.00     0.079 C 
HETATM    2  C   UNK N   1      21.798  12.514  10.587  0.00  0.00     0.032 C 
ENDROOT
BRANCH   1   3
HETATM    3  C   UNK N   1      24.206  11.978   9.495  0.00  0.00     0.024 C 
BRANCH   3   4
HETATM    4  C   UNK N   1      24.739  13.237   8.843  0.00  0.00     0.002 C 
BRANCH   4   5
HETATM    5  C   UNK N   1      24.097  13.347   7.479  0.00  0.00    -0.000 C 
BRANCH   5   6
HETATM    6  C   UNK N   1      24.348  14.715   6.891  0.00  0.00    -0.005 C 
HETATM    7  C   UNK N   1      25.808  15.067   7.083  0.00  0.00     0.005 C 
ENDBRANCH   5   6
ENDBRANCH   4   5
ENDBRANCH   3   4
ENDBRANCH   1   3
BRANCH   1   8
HETATM    8  N   UNK N   1      23.946  12.235  11.973  0.00  0.00    -0.364 N 
HETATM    9  H   UNK N   1      24.904  12.456  12.024  0.00  0.00     0.162 HD
BRANCH   8  10
HETATM   10  C   UNK N   1      23.289  11.933  13.112  0.00  0.00     0.348 C 
HETATM   11  O   UNK N   1      23.722  12.322  14.182  0.00  0.00    -0.284 OA
ENDBRANCH   8  10
ENDBRANCH   1   8
TORSDOF 6
ENDMDL
MODEL 9
REMARK VINA RESULT:      -3.7      7.332     10.413
REMARK  6 active torsions:
REMARK  status: ('A' for Active; 'I' for Inactive)
REMARK    1  A    between atoms: C_2  and  C_3 
REMARK    2  A    between atoms: C_3  and  C_4 
REMARK    3  A    between atoms: C_4  and  C_5 
REMARK    4  A    between atoms: C_5  and  C_6 
REMARK    5  A    between atoms: C_6  and  N_8 
REMARK    6  A    between atoms: N_8  and  C_9 
ROOT
HETATM    1  C   UNK N   1      33.390  17.524   8.638  0.00  0.00     0.079 C 
HETATM    2  C   UNK N   1      34.388  18.310   7.792  0.00  0.00     0.032 C 
ENDROOT
BRANCH   1   3
HETATM    3  C   UNK N   1      31.892  17.480   8.386  0.00  0.00     0.024 C 
BRANCH   3   4
HETATM    4  C   UNK N   1      31.475  16.417   7.392  0.00  0.00     0.002 C 
BRANCH   4   5
HETATM    5  C   UNK N   1      31.046  17.123   6.126  0.00  0.00    -0.000 C 
BRANCH   5   6
HETATM    6  C   UNK N   1      31.796  16.571   4.937  0.00  0.00    -0.005 C 
HETATM    7  C   UNK N   1      32.832  17.585   4.503  0.00  0.00     0.005 C 
ENDBRANCH   5   6
ENDBRANCH   4   5
ENDBRANCH   3   4
ENDBRANCH   1   3
BRANCH   1   8
HETATM    8  N   UNK N   1      33.851  16.755   9.768  0.00  0.00    -0.364 N 
HETATM    9  H   UNK N   1      33.189  16.419  10.414  0.00  0.00     0.162 HD
BRANCH   8  10
HETATM   10  C   UNK N   1      35.155  16.478   9.972  0.00  0.00     0.348 C 
HETATM   11  O   UNK N   1      35.840  17.242  10.630  0.00  0.00    -0.284 OA
ENDBRANCH   8  10
ENDBRANCH   1   8
TORSDOF 6
ENDMDL
