MODEL 1
REMARK VINA RESULT:      -7.1      0.000      0.000
REMARK  19 active torsions:
REMARK  status: ('A' for Active; 'I' for Inactive)
REMARK    1  A    between atoms: C_11  and  C_10 
REMARK    2  A    between atoms: C_12  and  C_10 
REMARK    3  A    between atoms: C_13  and  C_11 
REMARK    4  A    between atoms: C_14  and  C_12 
REMARK    5  A    between atoms: C_15  and  C_13 
REMARK    6  A    between atoms: C_26  and  C_14 
REMARK    7  A    between atoms: C_27  and  C_15 
REMARK    8  A    between atoms: C_17  and  C_16 
REMARK    9  A    between atoms: C_26  and  C_16 
REMARK   10  A    between atoms: C_33  and  C_17 
REMARK   11  A    between atoms: C_19  and  C_18 
REMARK   12  A    between atoms: C_29  and  C_18 
REMARK   13  A    between atoms: C_39  and  C_19 
REMARK   14  A    between atoms: C_27  and  C_20 
REMARK   15  A    between atoms: C_31  and  C_20 
REMARK   16  A    between atoms: O_44  and  C_28 
REMARK   17  A    between atoms: C_30  and  O_41 
REMARK   18  A    between atoms: C_32  and  O_44 
REMARK   19  A    between atoms: C_37  and  O_43 
ROOT
HETATM    1  C   UNK N   1      24.900  12.462   6.391  0.00  0.00     0.054 C 
ENDROOT
BRANCH   1   2
HETATM    2  C   UNK N   1      24.681  13.228   7.481  0.00  0.00    -0.023 C 
BRANCH   2   3
HETATM    3  C   UNK N   1      24.387  12.426   8.662  0.00  0.00    -0.004 C 
BRANCH   3   4
HETATM    4  C   UNK N   1      23.363  12.892   9.414  0.00  0.00     0.000 C 
BRANCH   4   5
HETATM    5  C   UNK N   1      21.904  12.749   9.187  0.00  0.00     0.007 C 
BRANCH   5   6
HETATM    6  C   UNK N   1      21.059  13.540   8.511  0.00  0.00    -0.055 C 
HETATM    7  C   UNK N   1      20.259  14.540   9.289  0.00  0.00     0.049 C 
BRANCH   6   8
HETATM    8  C   UNK N   1      20.750  13.387   7.091  0.00  0.00     0.058 C 
BRANCH   8   9
HETATM    9  C   UNK N   1      20.634  14.492   6.443  0.00  0.00    -0.147 C 
BRANCH   9  10
HETATM   10  C   UNK N   1      20.367  15.632   5.877  0.00  0.00     0.098 C 
HETATM   11  C   UNK N   1      21.466  16.735   5.944  0.00  0.00    -0.029 C 
HETATM   12  C   UNK N   1      22.840  16.213   6.368  0.00  0.00     0.016 C 
HETATM   13  C   UNK N   1      21.051  17.753   6.988  0.00  0.00     0.016 C 
HETATM   14  C   UNK N   1      21.694  17.470   4.611  0.00  0.00     0.042 C 
HETATM   15  C   UNK N   1      20.392  17.691   3.867  0.00  0.00     0.135 C 
HETATM   16  C   UNK N   1      19.891  16.311   3.496  0.00  0.00     0.071 C 
HETATM   17  C   UNK N   1      19.385  15.569   4.706  0.00  0.00     0.071 C 
HETATM   18  C   UNK N   1      19.083  14.151   4.215  0.00  0.00     0.047 C 
BRANCH  15  19
HETATM   19  O   UNK N   1      20.581  18.418   2.712  0.00  0.00    -0.316 OA
BRANCH  19  20
HETATM   20  C   UNK N   1      20.596  19.780   2.720  0.00  0.00     0.255 C 
HETATM   21  C   UNK N   1      20.842  20.524   1.458  0.00  0.00     0.126 C 
HETATM   22  O   UNK N   1      20.388  20.405   3.752  0.00  0.00    -0.266 OA
ENDBRANCH  19  20
ENDBRANCH  15  19
BRANCH  17  23
HETATM   23  O   UNK N   1      18.184  16.144   5.118  0.00  0.00    -0.389 OA
HETATM   24  H   UNK N   1      17.414  16.674   4.859  0.00  0.00     0.210 HD
ENDBRANCH  17  23
ENDBRANCH   9  10
ENDBRANCH   8   9
ENDBRANCH   6   8
ENDBRANCH   5   6
ENDBRANCH   4   5
ENDBRANCH   3   4
ENDBRANCH   2   3
ENDBRANCH   1   2
BRANCH   1  25
HETATM   25  C   UNK N   1      23.812  12.540   5.434  0.00  0.00    -0.016 C 
BRANCH  25  26
HETATM   26  C   UNK N   1      23.856  13.042   4.197  0.00  0.00    -0.063 C 
HETATM   27  C   UNK N   1      22.711  13.778   3.583  0.00  0.00     0.048 C 
BRANCH  26  28
HETATM   28  C   UNK N   1      24.999  12.598   3.374  0.00  0.00     0.043 C 
BRANCH  28  29
HETATM   29  C   UNK N   1      26.002  13.497   3.234  0.00  0.00     0.081 A 
HETATM   30  C   UNK N   1      26.094  14.836   3.815  0.00  0.00     0.055 A 
HETATM   31  C   UNK N   1      27.129  15.418   3.197  0.00  0.00     0.042 A 
HETATM   32  C   UNK N   1      27.687  14.451   2.264  0.00  0.00     0.298 A 
HETATM   33  O   UNK N   1      28.571  14.646   1.444  0.00  0.00    -0.259 OA
HETATM   34  O   UNK N   1      27.017  13.306   2.356  0.00  0.00    -0.275 OA
BRANCH  31  35
HETATM   35  C   UNK N   1      27.270  16.865   3.199  0.00  0.00     0.017 C 
BRANCH  35  36
HETATM   36  C   UNK N   1      28.292  17.446   3.841  0.00  0.00     0.016 C 
BRANCH  36  37
HETATM   37  C   UNK N   1      28.020  17.941   5.223  0.00  0.00     0.118 A 
HETATM   38  C   UNK N   1      28.376  16.973   6.407  0.00  0.00    -0.007 C 
HETATM   39  C   UNK N   1      29.264  15.793   6.025  0.00  0.00     0.018 C 
HETATM   40  C   UNK N   1      27.150  16.339   7.056  0.00  0.00     0.018 C 
HETATM   41  C   UNK N   1      29.181  17.791   7.397  0.00  0.00     0.044 C 
HETATM   42  C   UNK N   1      28.408  18.962   8.004  0.00  0.00     0.122 C 
HETATM   43  C   UNK N   1      27.439  19.696   7.048  0.00  0.00     0.073 C 
HETATM   44  C   UNK N   1      27.557  19.323   5.567  0.00  0.00     0.097 A 
HETATM   45  C   UNK N   1      27.373  20.399   4.516  0.00  0.00     0.050 C 
HETATM   46  O   UNK N   1      26.653  18.291   5.297  0.00  0.00    -0.358 OA
BRANCH  42  47
HETATM   47  O   UNK N   1      27.698  18.503   9.112  0.00  0.00    -0.395 OA
HETATM   48  H   UNK N   1      26.826  18.416   9.525  0.00  0.00     0.210 HD
ENDBRANCH  42  47
ENDBRANCH  36  37
ENDBRANCH  35  36
ENDBRANCH  31  35
ENDBRANCH  28  29
ENDBRANCH  26  28
ENDBRANCH  25  26
ENDBRANCH   1  25
TORSDOF 19
ENDMDL
MODEL 2
REMARK VINA RESULT:      -7.0     13.033     17.078
REMARK  19 active torsions:
REMARK  status: ('A' for Active; 'I' for Inactive)
REMARK    1  A    between atoms: C_11  and  C_10 
REMARK    2  A    between atoms: C_12  and  C_10 
REMARK    3  A    between atoms: C_13  and  C_11 
REMARK    4  A    between atoms: C_14  and  C_12 
REMARK    5  A    between atoms: C_15  and  C_13 
REMARK    6  A    between atoms: C_26  and  C_14 
REMARK    7  A    between atoms: C_27  and  C_15 
REMARK    8  A    between atoms: C_17  and  C_16 
REMARK    9  A    between atoms: C_26  and  C_16 
REMARK   10  A    between atoms: C_33  and  C_17 
REMARK   11  A    between atoms: C_19  and  C_18 
REMARK   12  A    between atoms: C_29  and  C_18 
REMARK   13  A    between atoms: C_39  and  C_19 
REMARK   14  A    between atoms: C_27  and  C_20 
REMARK   15  A    between atoms: C_31  and  C_20 
REMARK   16  A    between atoms: O_44  and  C_28 
REMARK   17  A    between atoms: C_30  and  O_41 
REMARK   18  A    between atoms: C_32  and  O_44 
REMARK   19  A    between atoms: C_37  and  O_43 
ROOT
HETATM    1  C   UNK N   1      28.141  30.261  -5.525  0.00  0.00     0.054 C 
ENDROOT
BRANCH   1   2
HETATM    2  C   UNK N   1      28.473  29.174  -6.255  0.00  0.00    -0.023 C 
BRANCH   2   3
HETATM    3  C   UNK N   1      29.793  28.664  -5.905  0.00  0.00    -0.004 C 
BRANCH   3   4
HETATM    4  C   UNK N   1      29.827  27.337  -5.639  0.00  0.00     0.000 C 
BRANCH   4   5
HETATM    5  C   UNK N   1      30.040  26.656  -4.339  0.00  0.00     0.007 C 
BRANCH   5   6
HETATM    6  C   UNK N   1      30.739  25.549  -4.054  0.00  0.00    -0.055 C 
HETATM    7  C   UNK N   1      32.165  25.483  -4.509  0.00  0.00     0.049 C 
BRANCH   6   8
HETATM    8  C   UNK N   1      30.161  24.341  -3.470  0.00  0.00     0.058 C 
BRANCH   8   9
HETATM    9  C   UNK N   1      30.218  23.299  -4.223  0.00  0.00    -0.147 C 
BRANCH   9  10
HETATM   10  C   UNK N   1      30.448  22.244  -4.948  0.00  0.00     0.098 C 
HETATM   11  C   UNK N   1      30.163  22.355  -6.476  0.00  0.00    -0.029 C 
HETATM   12  C   UNK N   1      29.977  23.791  -6.967  0.00  0.00     0.016 C 
HETATM   13  C   UNK N   1      28.864  21.628  -6.768  0.00  0.00     0.016 C 
HETATM   14  C   UNK N   1      31.268  21.752  -7.361  0.00  0.00     0.042 C 
HETATM   15  C   UNK N   1      31.846  20.491  -6.751  0.00  0.00     0.135 C 
HETATM   16  C   UNK N   1      32.534  20.929  -5.475  0.00  0.00     0.071 C 
HETATM   17  C   UNK N   1      31.531  21.305  -4.415  0.00  0.00     0.071 C 
HETATM   18  C   UNK N   1      32.357  21.886  -3.264  0.00  0.00     0.047 C 
BRANCH  15  19
HETATM   19  O   UNK N   1      32.780  19.904  -7.578  0.00  0.00    -0.316 OA
BRANCH  19  20
HETATM   20  C   UNK N   1      32.442  18.909  -8.443  0.00  0.00     0.255 C 
HETATM   21  C   UNK N   1      31.011  18.613  -8.708  0.00  0.00     0.126 C 
HETATM   22  O   UNK N   1      33.304  18.263  -9.027  0.00  0.00    -0.266 OA
ENDBRANCH  19  20
ENDBRANCH  15  19
BRANCH  17  23
HETATM   23  O   UNK N   1      30.909  20.147  -3.951  0.00  0.00    -0.389 OA
HETATM   24  H   UNK N   1      31.031  19.232  -3.651  0.00  0.00     0.210 HD
ENDBRANCH  17  23
ENDBRANCH   9  10
ENDBRANCH   8   9
ENDBRANCH   6   8
ENDBRANCH   5   6
ENDBRANCH   4   5
ENDBRANCH   3   4
ENDBRANCH   2   3
ENDBRANCH   1   2
BRANCH   1  25
HETATM   25  C   UNK N   1      26.967  30.036  -4.703  0.00  0.00    -0.016 C 
BRANCH  25  26
HETATM   26  C   UNK N   1      26.885  29.298  -3.594  0.00  0.00    -0.063 C 
HETATM   27  C   UNK N   1      27.932  29.320  -2.529  0.00  0.00     0.048 C 
BRANCH  26  28
HETATM   28  C   UNK N   1      25.835  28.259  -3.600  0.00  0.00     0.043 C 
BRANCH  28  29
HETATM   29  C   UNK N   1      26.264  26.996  -3.834  0.00  0.00     0.081 A 
HETATM   30  C   UNK N   1      26.431  26.332  -5.126  0.00  0.00     0.055 A 
HETATM   31  C   UNK N   1      26.631  25.041  -4.835  0.00  0.00     0.042 A 
HETATM   32  C   UNK N   1      26.613  24.906  -3.386  0.00  0.00     0.298 A 
HETATM   33  O   UNK N   1      26.653  23.869  -2.743  0.00  0.00    -0.259 OA
HETATM   34  O   UNK N   1      26.442  26.103  -2.831  0.00  0.00    -0.275 OA
BRANCH  31  35
HETATM   35  C   UNK N   1      26.424  24.015  -5.846  0.00  0.00     0.017 C 
BRANCH  35  36
HETATM   36  C   UNK N   1      25.488  24.173  -6.790  0.00  0.00     0.016 C 
BRANCH  36  37
HETATM   37  C   UNK N   1      25.725  23.479  -8.090  0.00  0.00     0.118 A 
HETATM   38  C   UNK N   1      26.465  24.298  -9.207  0.00  0.00    -0.007 C 
HETATM   39  C   UNK N   1      27.149  25.572  -8.721  0.00  0.00     0.018 C 
HETATM   40  C   UNK N   1      25.539  24.760 -10.328  0.00  0.00     0.018 C 
HETATM   41  C   UNK N   1      27.576  23.406  -9.723  0.00  0.00     0.044 C 
HETATM   42  C   UNK N   1      27.080  22.117 -10.379  0.00  0.00     0.122 C 
HETATM   43  C   UNK N   1      25.845  21.460  -9.720  0.00  0.00     0.073 C 
HETATM   44  C   UNK N   1      25.429  22.037  -8.363  0.00  0.00     0.097 A 
HETATM   45  C   UNK N   1      24.899  21.104  -7.293  0.00  0.00     0.050 C 
HETATM   46  O   UNK N   1      24.476  23.037  -8.580  0.00  0.00    -0.358 OA
BRANCH  42  47
HETATM   47  O   UNK N   1      26.801  22.377 -11.719  0.00  0.00    -0.395 OA
HETATM   48  H   UNK N   1      26.555  23.051 -12.370  0.00  0.00     0.210 HD
ENDBRANCH  42  47
ENDBRANCH  36  37
ENDBRANCH  35  36
ENDBRANCH  31  35
ENDBRANCH  28  29
ENDBRANCH  26  28
ENDBRANCH  25  26
ENDBRANCH   1  25
TORSDOF 19
ENDMDL
MODEL 3
REMARK VINA RESULT:      -7.0      2.007      7.988
REMARK  19 active torsions:
REMARK  status: ('A' for Active; 'I' for Inactive)
REMARK    1  A    between atoms: C_11  and  C_10 
REMARK    2  A    between atoms: C_12  and  C_10 
REMARK    3  A    between atoms: C_13  and  C_11 
REMARK    4  A    between atoms: C_14  and  C_12 
REMARK    5  A    between atoms: C_15  and  C_13 
REMARK    6  A    between atoms: C_26  and  C_14 
REMARK    7  A    between atoms: C_27  and  C_15 
REMARK    8  A    between atoms: C_17  and  C_16 
REMARK    9  A    between atoms: C_26  and  C_16 
REMARK   10  A    between atoms: C_33  and  C_17 
REMARK   11  A    between atoms: C_19  and  C_18 
REMARK   12  A    between atoms: C_29  and  C_18 
REMARK   13  A    between atoms: C_39  and  C_19 
REMARK   14  A    between atoms: C_27  and  C_20 
REMARK   15  A    between atoms: C_31  and  C_20 
REMARK   16  A    between atoms: O_44  and  C_28 
REMARK   17  A    between atoms: C_30  and  O_41 
REMARK   18  A    between atoms: C_32  and  O_44 
REMARK   19  A    between atoms: C_37  and  O_43 
ROOT
HETATM    1  C   UNK N   1      23.030  19.839   3.083  0.00  0.00     0.054 C 
ENDROOT
BRANCH   1   2
HETATM    2  C   UNK N   1      24.116  20.612   3.305  0.00  0.00    -0.023 C 
BRANCH   2   3
HETATM    3  C   UNK N   1      25.336  19.998   2.797  0.00  0.00    -0.004 C 
BRANCH   3   4
HETATM    4  C   UNK N   1      26.477  20.596   3.214  0.00  0.00     0.000 C 
BRANCH   4   5
HETATM    5  C   UNK N   1      27.409  20.172   4.288  0.00  0.00     0.007 C 
BRANCH   5   6
HETATM    6  C   UNK N   1      27.221  20.118   5.614  0.00  0.00    -0.055 C 
HETATM    7  C   UNK N   1      26.631  21.319   6.289  0.00  0.00     0.049 C 
BRANCH   6   8
HETATM    8  C   UNK N   1      27.698  19.031   6.466  0.00  0.00     0.058 C 
BRANCH   8   9
HETATM    9  C   UNK N   1      27.483  17.850   6.003  0.00  0.00    -0.147 C 
BRANCH   9  10
HETATM   10  C   UNK N   1      27.217  16.736   5.386  0.00  0.00     0.098 C 
HETATM   11  C   UNK N   1      25.717  16.413   5.115  0.00  0.00    -0.029 C 
HETATM   12  C   UNK N   1      24.784  17.609   5.306  0.00  0.00     0.016 C 
HETATM   13  C   UNK N   1      25.274  15.357   6.109  0.00  0.00     0.016 C 
HETATM   14  C   UNK N   1      25.439  15.890   3.695  0.00  0.00     0.042 C 
HETATM   15  C   UNK N   1      26.547  14.979   3.208  0.00  0.00     0.135 C 
HETATM   16  C   UNK N   1      27.778  15.854   3.091  0.00  0.00     0.071 C 
HETATM   17  C   UNK N   1      28.314  16.227   4.450  0.00  0.00     0.071 C 
HETATM   18  C   UNK N   1      29.431  17.239   4.180  0.00  0.00     0.047 C 
BRANCH  15  19
HETATM   19  O   UNK N   1      26.265  14.446   1.969  0.00  0.00    -0.316 OA
BRANCH  19  20
HETATM   20  C   UNK N   1      25.203  13.616   1.774  0.00  0.00     0.255 C 
HETATM   21  C   UNK N   1      24.049  14.070   0.956  0.00  0.00     0.126 C 
HETATM   22  O   UNK N   1      25.192  12.487   2.249  0.00  0.00    -0.266 OA
ENDBRANCH  19  20
ENDBRANCH  15  19
BRANCH  17  23
HETATM   23  O   UNK N   1      28.891  15.100   5.032  0.00  0.00    -0.389 OA
HETATM   24  H   UNK N   1      28.798  14.400   5.697  0.00  0.00     0.210 HD
ENDBRANCH  17  23
ENDBRANCH   9  10
ENDBRANCH   8   9
ENDBRANCH   6   8
ENDBRANCH   5   6
ENDBRANCH   4   5
ENDBRANCH   3   4
ENDBRANCH   2   3
ENDBRANCH   1   2
BRANCH   1  25
HETATM   25  C   UNK N   1      21.856  20.621   2.745  0.00  0.00    -0.016 C 
BRANCH  25  26
HETATM   26  C   UNK N   1      20.869  20.281   1.912  0.00  0.00    -0.063 C 
HETATM   27  C   UNK N   1      20.713  20.884   0.555  0.00  0.00     0.048 C 
BRANCH  26  28
HETATM   28  C   UNK N   1      19.787  19.472   2.508  0.00  0.00     0.043 C 
BRANCH  28  29
HETATM   29  C   UNK N   1      19.932  18.130   2.399  0.00  0.00     0.081 A 
HETATM   30  C   UNK N   1      20.097  17.156   3.477  0.00  0.00     0.055 A 
HETATM   31  C   UNK N   1      20.445  16.015   2.869  0.00  0.00     0.042 A 
HETATM   32  C   UNK N   1      20.473  16.268   1.436  0.00  0.00     0.298 A 
HETATM   33  O   UNK N   1      20.850  15.503   0.562  0.00  0.00    -0.259 OA
HETATM   34  O   UNK N   1      20.112  17.525   1.200  0.00  0.00    -0.275 OA
BRANCH  31  35
HETATM   35  C   UNK N   1      21.093  14.948   3.617  0.00  0.00     0.017 C 
BRANCH  35  36
HETATM   36  C   UNK N   1      21.940  15.236   4.612  0.00  0.00     0.016 C 
BRANCH  36  37
HETATM   37  C   UNK N   1      21.598  14.693   5.960  0.00  0.00     0.118 A 
HETATM   38  C   UNK N   1      21.929  13.180   6.221  0.00  0.00    -0.007 C 
HETATM   39  C   UNK N   1      22.861  12.542   5.197  0.00  0.00     0.018 C 
HETATM   40  C   UNK N   1      20.692  12.286   6.228  0.00  0.00     0.018 C 
HETATM   41  C   UNK N   1      22.670  13.129   7.542  0.00  0.00     0.044 C 
HETATM   42  C   UNK N   1      21.844  13.611   8.735  0.00  0.00     0.122 C 
HETATM   43  C   UNK N   1      20.898  14.803   8.459  0.00  0.00     0.073 C 
HETATM   44  C   UNK N   1      21.087  15.504   7.111  0.00  0.00     0.097 A 
HETATM   45  C   UNK N   1      20.920  17.008   7.028  0.00  0.00     0.050 C 
HETATM   46  O   UNK N   1      20.221  14.919   6.182  0.00  0.00    -0.358 OA
BRANCH  42  47
HETATM   47  O   UNK N   1      21.100  12.539   9.225  0.00  0.00    -0.395 OA
HETATM   48  H   UNK N   1      20.214  12.160   9.329  0.00  0.00     0.210 HD
ENDBRANCH  42  47
ENDBRANCH  36  37
ENDBRANCH  35  36
ENDBRANCH  31  35
ENDBRANCH  28  29
ENDBRANCH  26  28
ENDBRANCH  25  26
ENDBRANCH   1  25
TORSDOF 19
ENDMDL
MODEL 4
REMARK VINA RESULT:      -6.8     12.563     17.060
REMARK  19 active torsions:
REMARK  status: ('A' for Active; 'I' for Inactive)
REMARK    1  A    between atoms: C_11  and  C_10 
REMARK    2  A    between atoms: C_12  and  C_10 
REMARK    3  A    between atoms: C_13  and  C_11 
REMARK    4  A    between atoms: C_14  and  C_12 
REMARK    5  A    between atoms: C_15  and  C_13 
REMARK    6  A    between atoms: C_26  and  C_14 
REMARK    7  A    between atoms: C_27  and  C_15 
REMARK    8  A    between atoms: C_17  and  C_16 
REMARK    9  A    between atoms: C_26  and  C_16 
REMARK   10  A    between atoms: C_33  and  C_17 
REMARK   11  A    between atoms: C_19  and  C_18 
REMARK   12  A    between atoms: C_29  and  C_18 
REMARK   13  A    between atoms: C_39  and  C_19 
REMARK   14  A    between atoms: C_27  and  C_20 
REMARK   15  A    between atoms: C_31  and  C_20 
REMARK   16  A    between atoms: O_44  and  C_28 
REMARK   17  A    between atoms: C_30  and  O_41 
REMARK   18  A    between atoms: C_32  and  O_44 
REMARK   19  A    between atoms: C_37  and  O_43 
ROOT
HETATM    1  C   UNK N   1      27.996  29.856  -5.590  0.00  0.00     0.054 C 
ENDROOT
BRANCH   1   2
HETATM    2  C   UNK N   1      28.236  28.964  -6.576  0.00  0.00    -0.023 C 
BRANCH   2   3
HETATM    3  C   UNK N   1      29.649  28.906  -6.928  0.00  0.00    -0.004 C 
BRANCH   3   4
HETATM    4  C   UNK N   1      30.304  27.828  -6.435  0.00  0.00     0.000 C 
BRANCH   4   5
HETATM    5  C   UNK N   1      29.846  26.848  -5.421  0.00  0.00     0.007 C 
BRANCH   5   6
HETATM    6  C   UNK N   1      30.243  26.677  -4.152  0.00  0.00    -0.055 C 
HETATM    7  C   UNK N   1      30.843  27.852  -3.441  0.00  0.00     0.049 C 
BRANCH   6   8
HETATM    8  C   UNK N   1      30.274  25.387  -3.468  0.00  0.00     0.058 C 
BRANCH   8   9
HETATM    9  C   UNK N   1      30.737  24.415  -4.173  0.00  0.00    -0.147 C 
BRANCH   9  10
HETATM   10  C   UNK N   1      31.053  23.439  -4.972  0.00  0.00     0.098 C 
HETATM   11  C   UNK N   1      32.337  23.614  -5.838  0.00  0.00    -0.029 C 
HETATM   12  C   UNK N   1      33.238  24.762  -5.380  0.00  0.00     0.016 C 
HETATM   13  C   UNK N   1      31.911  23.940  -7.256  0.00  0.00     0.016 C 
HETATM   14  C   UNK N   1      33.238  22.367  -5.876  0.00  0.00     0.042 C 
HETATM   15  C   UNK N   1      32.423  21.091  -5.915  0.00  0.00     0.135 C 
HETATM   16  C   UNK N   1      31.690  21.029  -4.590  0.00  0.00     0.071 C 
HETATM   17  C   UNK N   1      30.584  22.052  -4.530  0.00  0.00     0.071 C 
HETATM   18  C   UNK N   1      30.058  21.995  -3.093  0.00  0.00     0.047 C 
BRANCH  15  19
HETATM   19  O   UNK N   1      33.224  19.975  -6.028  0.00  0.00    -0.316 OA
BRANCH  19  20
HETATM   20  C   UNK N   1      33.772  19.608  -7.220  0.00  0.00     0.255 C 
HETATM   21  C   UNK N   1      32.891  19.195  -8.342  0.00  0.00     0.126 C 
HETATM   22  O   UNK N   1      34.985  19.631  -7.388  0.00  0.00    -0.266 OA
ENDBRANCH  19  20
ENDBRANCH  15  19
BRANCH  17  23
HETATM   23  O   UNK N   1      29.553  21.653  -5.379  0.00  0.00    -0.389 OA
HETATM   24  H   UNK N   1      29.092  20.905  -5.789  0.00  0.00     0.210 HD
ENDBRANCH  17  23
ENDBRANCH   9  10
ENDBRANCH   8   9
ENDBRANCH   6   8
ENDBRANCH   5   6
ENDBRANCH   4   5
ENDBRANCH   3   4
ENDBRANCH   2   3
ENDBRANCH   1   2
BRANCH   1  25
HETATM   25  C   UNK N   1      26.778  29.558  -4.860  0.00  0.00    -0.016 C 
BRANCH  25  26
HETATM   26  C   UNK N   1      26.670  28.923  -3.691  0.00  0.00    -0.063 C 
HETATM   27  C   UNK N   1      27.625  29.139  -2.564  0.00  0.00     0.048 C 
BRANCH  26  28
HETATM   28  C   UNK N   1      25.712  27.799  -3.666  0.00  0.00     0.043 C 
BRANCH  28  29
HETATM   29  C   UNK N   1      26.251  26.568  -3.835  0.00  0.00     0.081 A 
HETATM   30  C   UNK N   1      26.474  25.852  -5.091  0.00  0.00     0.055 A 
HETATM   31  C   UNK N   1      26.789  24.602  -4.732  0.00  0.00     0.042 A 
HETATM   32  C   UNK N   1      26.785  24.545  -3.278  0.00  0.00     0.298 A 
HETATM   33  O   UNK N   1      26.918  23.551  -2.581  0.00  0.00    -0.259 OA
HETATM   34  O   UNK N   1      26.509  25.749  -2.787  0.00  0.00    -0.275 OA
BRANCH  31  35
HETATM   35  C   UNK N   1      26.672  23.509  -5.685  0.00  0.00     0.017 C 
BRANCH  35  36
HETATM   36  C   UNK N   1      26.229  23.737  -6.927  0.00  0.00     0.016 C 
BRANCH  36  37
HETATM   37  C   UNK N   1      27.034  23.157  -8.042  0.00  0.00     0.118 A 
HETATM   38  C   UNK N   1      26.648  21.711  -8.518  0.00  0.00    -0.007 C 
HETATM   39  C   UNK N   1      25.295  21.213  -8.023  0.00  0.00     0.018 C 
HETATM   40  C   UNK N   1      27.641  20.643  -8.068  0.00  0.00     0.018 C 
HETATM   41  C   UNK N   1      26.536  21.777 -10.029  0.00  0.00     0.044 C 
HETATM   42  C   UNK N   1      27.845  22.136 -10.731  0.00  0.00     0.122 C 
HETATM   43  C   UNK N   1      28.734  23.174 -10.007  0.00  0.00     0.073 C 
HETATM   44  C   UNK N   1      28.086  23.889  -8.816  0.00  0.00     0.097 A 
HETATM   45  C   UNK N   1      28.399  25.351  -8.571  0.00  0.00     0.050 C 
HETATM   46  O   UNK N   1      28.392  23.177  -7.653  0.00  0.00    -0.358 OA
BRANCH  42  47
HETATM   47  O   UNK N   1      28.577  20.969 -10.936  0.00  0.00    -0.395 OA
HETATM   48  H   UNK N   1      28.686  20.037 -10.691  0.00  0.00     0.210 HD
ENDBRANCH  42  47
ENDBRANCH  36  37
ENDBRANCH  35  36
ENDBRANCH  31  35
ENDBRANCH  28  29
ENDBRANCH  26  28
ENDBRANCH  25  26
ENDBRANCH   1  25
TORSDOF 19
ENDMDL
MODEL 5
REMARK VINA RESULT:      -6.8      1.776      2.713
REMARK  19 active torsions:
REMARK  status: ('A' for Active; 'I' for Inactive)
REMARK    1  A    between atoms: C_11  and  C_10 
REMARK    2  A    between atoms: C_12  and  C_10 
REMARK    3  A    between atoms: C_13  and  C_11 
REMARK    4  A    between atoms: C_14  and  C_12 
REMARK    5  A    between atoms: C_15  and  C_13 
REMARK    6  A    between atoms: C_26  and  C_14 
REMARK    7  A    between atoms: C_27  and  C_15 
REMARK    8  A    between atoms: C_17  and  C_16 
REMARK    9  A    between atoms: C_26  and  C_16 
REMARK   10  A    between atoms: C_33  and  C_17 
REMARK   11  A    between atoms: C_19  and  C_18 
REMARK   12  A    between atoms: C_29  and  C_18 
REMARK   13  A    between atoms: C_39  and  C_19 
REMARK   14  A    between atoms: C_27  and  C_20 
REMARK   15  A    between atoms: C_31  and  C_20 
REMARK   16  A    between atoms: O_44  and  C_28 
REMARK   17  A    between atoms: C_30  and  O_41 
REMARK   18  A    between atoms: C_32  and  O_44 
REMARK   19  A    between atoms: C_37  and  O_43 
ROOT
HETATM    1  C   UNK N   1      25.020  12.621   6.186  0.00  0.00     0.054 C 
ENDROOT
BRANCH   1   2
HETATM    2  C   UNK N   1      24.671  13.210   7.351  0.00  0.00    -0.023 C 
BRANCH   2   3
HETATM    3  C   UNK N   1      24.303  12.233   8.367  0.00  0.00    -0.004 C 
BRANCH   3   4
HETATM    4  C   UNK N   1      23.334  12.647   9.216  0.00  0.00     0.000 C 
BRANCH   4   5
HETATM    5  C   UNK N   1      21.862  12.623   9.029  0.00  0.00     0.007 C 
BRANCH   5   6
HETATM    6  C   UNK N   1      21.068  13.472   8.363  0.00  0.00    -0.055 C 
HETATM    7  C   UNK N   1      20.295  14.481   9.158  0.00  0.00     0.049 C 
BRANCH   6   8
HETATM    8  C   UNK N   1      20.783  13.378   6.933  0.00  0.00     0.058 C 
BRANCH   8   9
HETATM    9  C   UNK N   1      20.680  14.509   6.329  0.00  0.00    -0.147 C 
BRANCH   9  10
HETATM   10  C   UNK N   1      20.414  15.661   5.787  0.00  0.00     0.098 C 
HETATM   11  C   UNK N   1      21.488  16.781   5.931  0.00  0.00    -0.029 C 
HETATM   12  C   UNK N   1      22.853  16.271   6.395  0.00  0.00     0.016 C 
HETATM   13  C   UNK N   1      21.012  17.760   6.987  0.00  0.00     0.016 C 
HETATM   14  C   UNK N   1      21.754  17.561   4.631  0.00  0.00     0.042 C 
HETATM   15  C   UNK N   1      20.480  17.780   3.841  0.00  0.00     0.135 C 
HETATM   16  C   UNK N   1      20.021  16.403   3.409  0.00  0.00     0.071 C 
HETATM   17  C   UNK N   1      19.481  15.616   4.576  0.00  0.00     0.071 C 
HETATM   18  C   UNK N   1      19.226  14.208   4.031  0.00  0.00     0.047 C 
BRANCH  15  19
HETATM   19  O   UNK N   1      20.701  18.545   2.717  0.00  0.00    -0.316 OA
BRANCH  19  20
HETATM   20  C   UNK N   1      20.587  19.902   2.743  0.00  0.00     0.255 C 
HETATM   21  C   UNK N   1      20.726  20.680   1.485  0.00  0.00     0.126 C 
HETATM   22  O   UNK N   1      20.352  20.494   3.789  0.00  0.00    -0.266 OA
ENDBRANCH  19  20
ENDBRANCH  15  19
BRANCH  17  23
HETATM   23  O   UNK N   1      18.253  16.156   4.955  0.00  0.00    -0.389 OA
HETATM   24  H   UNK N   1      17.711  16.486   5.688  0.00  0.00     0.210 HD
ENDBRANCH  17  23
ENDBRANCH   9  10
ENDBRANCH   8   9
ENDBRANCH   6   8
ENDBRANCH   5   6
ENDBRANCH   4   5
ENDBRANCH   3   4
ENDBRANCH   2   3
ENDBRANCH   1   2
BRANCH   1  25
HETATM   25  C   UNK N   1      24.040  12.847   5.140  0.00  0.00    -0.016 C 
BRANCH  25  26
HETATM   26  C   UNK N   1      24.118  13.718   4.131  0.00  0.00    -0.063 C 
HETATM   27  C   UNK N   1      22.928  14.140   3.334  0.00  0.00     0.048 C 
BRANCH  26  28
HETATM   28  C   UNK N   1      25.486  14.040   3.675  0.00  0.00     0.043 C 
BRANCH  28  29
HETATM   29  C   UNK N   1      25.999  15.203   4.141  0.00  0.00     0.081 A 
HETATM   30  C   UNK N   1      27.182  15.388   4.981  0.00  0.00     0.055 A 
HETATM   31  C   UNK N   1      27.137  16.667   5.375  0.00  0.00     0.042 A 
HETATM   32  C   UNK N   1      25.960  17.274   4.773  0.00  0.00     0.298 A 
HETATM   33  O   UNK N   1      25.522  18.395   4.982  0.00  0.00    -0.259 OA
HETATM   34  O   UNK N   1      25.341  16.380   4.007  0.00  0.00    -0.275 OA
BRANCH  31  35
HETATM   35  C   UNK N   1      27.895  17.108   6.535  0.00  0.00     0.017 C 
BRANCH  35  36
HETATM   36  C   UNK N   1      28.925  17.951   6.391  0.00  0.00     0.016 C 
BRANCH  36  37
HETATM   37  C   UNK N   1      30.254  17.471   6.875  0.00  0.00     0.118 A 
HETATM   38  C   UNK N   1      31.162  16.725   5.833  0.00  0.00    -0.007 C 
HETATM   39  C   UNK N   1      30.727  16.877   4.379  0.00  0.00     0.018 C 
HETATM   40  C   UNK N   1      31.225  15.217   6.061  0.00  0.00     0.018 C 
HETATM   41  C   UNK N   1      32.531  17.369   5.924  0.00  0.00     0.044 C 
HETATM   42  C   UNK N   1      33.202  17.206   7.288  0.00  0.00     0.122 C 
HETATM   43  C   UNK N   1      32.261  17.284   8.513  0.00  0.00     0.073 C 
HETATM   44  C   UNK N   1      30.833  17.757   8.226  0.00  0.00     0.097 A 
HETATM   45  C   UNK N   1      30.127  18.636   9.238  0.00  0.00     0.050 C 
HETATM   46  O   UNK N   1      30.033  16.635   7.991  0.00  0.00    -0.358 OA
BRANCH  42  47
HETATM   47  O   UNK N   1      33.882  15.990   7.308  0.00  0.00    -0.395 OA
HETATM   48  H   UNK N   1      34.732  15.545   7.171  0.00  0.00     0.210 HD
ENDBRANCH  42  47
ENDBRANCH  36  37
ENDBRANCH  35  36
ENDBRANCH  31  35
ENDBRANCH  28  29
ENDBRANCH  26  28
ENDBRANCH  25  26
ENDBRANCH   1  25
TORSDOF 19
ENDMDL
MODEL 6
REMARK VINA RESULT:      -6.6      2.364      5.874
REMARK  19 active torsions:
REMARK  status: ('A' for Active; 'I' for Inactive)
REMARK    1  A    between atoms: C_11  and  C_10 
REMARK    2  A    between atoms: C_12  and  C_10 
REMARK    3  A    between atoms: C_13  and  C_11 
REMARK    4  A    between atoms: C_14  and  C_12 
REMARK    5  A    between atoms: C_15  and  C_13 
REMARK    6  A    between atoms: C_26  and  C_14 
REMARK    7  A    between atoms: C_27  and  C_15 
REMARK    8  A    between atoms: C_17  and  C_16 
REMARK    9  A    between atoms: C_26  and  C_16 
REMARK   10  A    between atoms: C_33  and  C_17 
REMARK   11  A    between atoms: C_19  and  C_18 
REMARK   12  A    between atoms: C_29  and  C_18 
REMARK   13  A    between atoms: C_39  and  C_19 
REMARK   14  A    between atoms: C_27  and  C_20 
REMARK   15  A    between atoms: C_31  and  C_20 
REMARK   16  A    between atoms: O_44  and  C_28 
REMARK   17  A    between atoms: C_30  and  O_41 
REMARK   18  A    between atoms: C_32  and  O_44 
REMARK   19  A    between atoms: C_37  and  O_43 
ROOT
HETATM    1  C   UNK N   1      20.575  15.988   3.822  0.00  0.00     0.054 C 
ENDROOT
BRANCH   1   2
HETATM    2  C   UNK N   1      19.955  14.984   3.165  0.00  0.00    -0.023 C 
BRANCH   2   3
HETATM    3  C   UNK N   1      20.768  14.460   2.075  0.00  0.00    -0.004 C 
BRANCH   3   4
HETATM    4  C   UNK N   1      21.890  15.173   1.821  0.00  0.00     0.000 C 
BRANCH   4   5
HETATM    5  C   UNK N   1      23.306  14.750   1.947  0.00  0.00     0.007 C 
BRANCH   5   6
HETATM    6  C   UNK N   1      23.867  13.552   1.729  0.00  0.00    -0.055 C 
HETATM    7  C   UNK N   1      23.760  12.967   0.354  0.00  0.00     0.049 C 
BRANCH   6   8
HETATM    8  C   UNK N   1      24.437  12.710   2.778  0.00  0.00     0.058 C 
BRANCH   8   9
HETATM    9  C   UNK N   1      23.775  12.703   3.881  0.00  0.00    -0.147 C 
BRANCH   9  10
HETATM   10  C   UNK N   1      23.257  12.740   5.074  0.00  0.00     0.098 C 
HETATM   11  C   UNK N   1      23.530  14.015   5.929  0.00  0.00    -0.029 C 
HETATM   12  C   UNK N   1      24.082  15.192   5.124  0.00  0.00     0.016 C 
HETATM   13  C   UNK N   1      24.581  13.672   6.967  0.00  0.00     0.016 C 
HETATM   14  C   UNK N   1      22.286  14.555   6.657  0.00  0.00     0.042 C 
HETATM   15  C   UNK N   1      21.406  13.432   7.165  0.00  0.00     0.135 C 
HETATM   16  C   UNK N   1      20.886  12.725   5.930  0.00  0.00     0.071 C 
HETATM   17  C   UNK N   1      21.975  11.928   5.257  0.00  0.00     0.071 C 
HETATM   18  C   UNK N   1      21.357  11.423   3.950  0.00  0.00     0.047 C 
BRANCH  15  19
HETATM   19  O   UNK N   1      20.332  13.909   7.885  0.00  0.00    -0.316 OA
BRANCH  19  20
HETATM   20  C   UNK N   1      20.339  13.931   9.247  0.00  0.00     0.255 C 
HETATM   21  C   UNK N   1      21.600  13.662   9.984  0.00  0.00     0.126 C 
HETATM   22  O   UNK N   1      19.321  14.190   9.877  0.00  0.00    -0.266 OA
ENDBRANCH  19  20
ENDBRANCH  15  19
BRANCH  17  23
HETATM   23  O   UNK N   1      22.274  10.818   6.045  0.00  0.00    -0.389 OA
HETATM   24  H   UNK N   1      22.922  10.399   6.632  0.00  0.00     0.210 HD
ENDBRANCH  17  23
ENDBRANCH   9  10
ENDBRANCH   8   9
ENDBRANCH   6   8
ENDBRANCH   5   6
ENDBRANCH   4   5
ENDBRANCH   3   4
ENDBRANCH   2   3
ENDBRANCH   1   2
BRANCH   1  25
HETATM   25  C   UNK N   1      19.872  17.250   3.691  0.00  0.00    -0.016 C 
BRANCH  25  26
HETATM   26  C   UNK N   1      20.257  18.322   2.995  0.00  0.00    -0.063 C 
HETATM   27  C   UNK N   1      20.168  18.391   1.505  0.00  0.00     0.048 C 
BRANCH  26  28
HETATM   28  C   UNK N   1      21.021  19.332   3.754  0.00  0.00     0.043 C 
BRANCH  28  29
HETATM   29  C   UNK N   1      22.335  19.428   3.442  0.00  0.00     0.081 A 
HETATM   30  C   UNK N   1      23.440  18.622   3.959  0.00  0.00     0.055 A 
HETATM   31  C   UNK N   1      24.552  19.246   3.551  0.00  0.00     0.042 A 
HETATM   32  C   UNK N   1      24.146  20.407   2.773  0.00  0.00     0.298 A 
HETATM   33  O   UNK N   1      24.872  21.282   2.325  0.00  0.00    -0.259 OA
HETATM   34  O   UNK N   1      22.820  20.447   2.692  0.00  0.00    -0.275 OA
BRANCH  31  35
HETATM   35  C   UNK N   1      25.825  18.991   4.207  0.00  0.00     0.017 C 
BRANCH  35  36
HETATM   36  C   UNK N   1      25.960  17.956   5.045  0.00  0.00     0.016 C 
BRANCH  36  37
HETATM   37  C   UNK N   1      27.320  17.348   5.143  0.00  0.00     0.118 A 
HETATM   38  C   UNK N   1      27.681  16.243   4.087  0.00  0.00    -0.007 C 
HETATM   39  C   UNK N   1      26.737  16.167   2.891  0.00  0.00     0.018 C 
HETATM   40  C   UNK N   1      27.683  14.832   4.668  0.00  0.00     0.018 C 
HETATM   41  C   UNK N   1      29.035  16.623   3.521  0.00  0.00     0.044 C 
HETATM   42  C   UNK N   1      30.159  16.626   4.556  0.00  0.00     0.122 C 
HETATM   43  C   UNK N   1      29.775  17.133   5.965  0.00  0.00     0.073 C 
HETATM   44  C   UNK N   1      28.398  17.796   6.080  0.00  0.00     0.097 A 
HETATM   45  C   UNK N   1      28.223  18.984   7.005  0.00  0.00     0.050 C 
HETATM   46  O   UNK N   1      27.466  16.820   6.445  0.00  0.00    -0.358 OA
BRANCH  42  47
HETATM   47  O   UNK N   1      30.675  15.335   4.659  0.00  0.00    -0.395 OA
HETATM   48  H   UNK N   1      31.471  14.799   4.796  0.00  0.00     0.210 HD
ENDBRANCH  42  47
ENDBRANCH  36  37
ENDBRANCH  35  36
ENDBRANCH  31  35
ENDBRANCH  28  29
ENDBRANCH  26  28
ENDBRANCH  25  26
ENDBRANCH   1  25
TORSDOF 19
ENDMDL
MODEL 7
REMARK VINA RESULT:      -6.6      2.474      7.992
REMARK  19 active torsions:
REMARK  status: ('A' for Active; 'I' for Inactive)
REMARK    1  A    between atoms: C_11  and  C_10 
REMARK    2  A    between atoms: C_12  and  C_10 
REMARK    3  A    between atoms: C_13  and  C_11 
REMARK    4  A    between atoms: C_14  and  C_12 
REMARK    5  A    between atoms: C_15  and  C_13 
REMARK    6  A    between atoms: C_26  and  C_14 
REMARK    7  A    between atoms: C_27  and  C_15 
REMARK    8  A    between atoms: C_17  and  C_16 
REMARK    9  A    between atoms: C_26  and  C_16 
REMARK   10  A    between atoms: C_33  and  C_17 
REMARK   11  A    between atoms: C_19  and  C_18 
REMARK   12  A    between atoms: C_29  and  C_18 
REMARK   13  A    between atoms: C_39  and  C_19 
REMARK   14  A    between atoms: C_27  and  C_20 
REMARK   15  A    between atoms: C_31  and  C_20 
REMARK   16  A    between atoms: O_44  and  C_28 
REMARK   17  A    between atoms: C_30  and  O_41 
REMARK   18  A    between atoms: C_32  and  O_44 
REMARK   19  A    between atoms: C_37  and  O_43 
ROOT
HETATM    1  C   UNK N   1      20.770  15.636   9.013  0.00  0.00     0.054 C 
ENDROOT
BRANCH   1   2
HETATM    2  C   UNK N   1      19.805  16.247   8.292  0.00  0.00    -0.023 C 
BRANCH   2   3
HETATM    3  C   UNK N   1      20.358  17.189   7.327  0.00  0.00    -0.004 C 
BRANCH   3   4
HETATM    4  C   UNK N   1      21.503  16.776   6.735  0.00  0.00     0.000 C 
BRANCH   4   5
HETATM    5  C   UNK N   1      22.447  17.554   5.895  0.00  0.00     0.007 C 
BRANCH   5   6
HETATM    6  C   UNK N   1      22.360  17.901   4.603  0.00  0.00    -0.055 C 
HETATM    7  C   UNK N   1      21.152  17.454   3.836  0.00  0.00     0.049 C 
BRANCH   6   8
HETATM    8  C   UNK N   1      23.434  18.548   3.854  0.00  0.00     0.058 C 
BRANCH   8   9
HETATM    9  C   UNK N   1      24.622  18.211   4.216  0.00  0.00    -0.147 C 
BRANCH   9  10
HETATM   10  C   UNK N   1      25.795  17.972   4.723  0.00  0.00     0.098 C 
HETATM   11  C   UNK N   1      26.497  16.646   4.299  0.00  0.00    -0.029 C 
HETATM   12  C   UNK N   1      25.861  15.972   3.083  0.00  0.00     0.016 C 
HETATM   13  C   UNK N   1      26.381  15.662   5.448  0.00  0.00     0.016 C 
HETATM   14  C   UNK N   1      27.986  16.813   3.951  0.00  0.00     0.042 C 
HETATM   15  C   UNK N   1      28.665  17.813   4.866  0.00  0.00     0.135 C 
HETATM   16  C   UNK N   1      28.019  19.150   4.565  0.00  0.00     0.071 C 
HETATM   17  C   UNK N   1      26.611  19.209   5.100  0.00  0.00     0.071 C 
HETATM   18  C   UNK N   1      26.034  20.527   4.575  0.00  0.00     0.047 C 
BRANCH  15  19
HETATM   19  O   UNK N   1      30.015  17.907   4.609  0.00  0.00    -0.316 OA
BRANCH  19  20
HETATM   20  C   UNK N   1      30.931  17.212   5.339  0.00  0.00     0.255 C 
HETATM   21  C   UNK N   1      32.335  17.114   4.865  0.00  0.00     0.126 C 
HETATM   22  O   UNK N   1      30.619  16.680   6.397  0.00  0.00    -0.266 OA
ENDBRANCH  19  20
ENDBRANCH  15  19
BRANCH  17  23
HETATM   23  O   UNK N   1      26.660  19.288   6.490  0.00  0.00    -0.389 OA
HETATM   24  H   UNK N   1      26.951  19.804   7.258  0.00  0.00     0.210 HD
ENDBRANCH  17  23
ENDBRANCH   9  10
ENDBRANCH   8   9
ENDBRANCH   6   8
ENDBRANCH   5   6
ENDBRANCH   4   5
ENDBRANCH   3   4
ENDBRANCH   2   3
ENDBRANCH   1   2
BRANCH   1  25
HETATM   25  C   UNK N   1      20.517  14.217   9.181  0.00  0.00    -0.016 C 
BRANCH  25  26
HETATM   26  C   UNK N   1      21.281  13.329   9.821  0.00  0.00    -0.063 C 
HETATM   27  C   UNK N   1      20.790  12.531  10.985  0.00  0.00     0.048 C 
BRANCH  26  28
HETATM   28  C   UNK N   1      22.719  13.370   9.486  0.00  0.00     0.043 C 
BRANCH  28  29
HETATM   29  C   UNK N   1      23.051  12.864   8.275  0.00  0.00     0.081 A 
HETATM   30  C   UNK N   1      23.605  13.578   7.126  0.00  0.00     0.055 A 
HETATM   31  C   UNK N   1      23.529  12.715   6.105  0.00  0.00     0.042 A 
HETATM   32  C   UNK N   1      22.960  11.477   6.615  0.00  0.00     0.298 A 
HETATM   33  O   UNK N   1      22.636  10.495   5.965  0.00  0.00    -0.259 OA
HETATM   34  O   UNK N   1      22.738  11.594   7.920  0.00  0.00    -0.275 OA
BRANCH  31  35
HETATM   35  C   UNK N   1      23.591  13.190   4.732  0.00  0.00     0.017 C 
BRANCH  35  36
HETATM   36  C   UNK N   1      22.803  14.193   4.324  0.00  0.00     0.016 C 
BRANCH  36  37
HETATM   37  C   UNK N   1      21.690  13.834   3.396  0.00  0.00     0.118 A 
HETATM   38  C   UNK N   1      20.314  13.456   4.050  0.00  0.00    -0.007 C 
HETATM   39  C   UNK N   1      20.182  13.826   5.524  0.00  0.00     0.018 C 
HETATM   40  C   UNK N   1      20.014  11.961   3.999  0.00  0.00     0.018 C 
HETATM   41  C   UNK N   1      19.261  14.269   3.325  0.00  0.00     0.044 C 
HETATM   42  C   UNK N   1      19.144  13.943   1.836  0.00  0.00     0.122 C 
HETATM   43  C   UNK N   1      20.474  13.632   1.110  0.00  0.00     0.073 C 
HETATM   44  C   UNK N   1      21.750  13.931   1.903  0.00  0.00     0.097 A 
HETATM   45  C   UNK N   1      22.964  14.474   1.176  0.00  0.00     0.050 C 
HETATM   46  O   UNK N   1      22.132  12.769   2.580  0.00  0.00    -0.358 OA
BRANCH  42  47
HETATM   47  O   UNK N   1      18.275  12.864   1.682  0.00  0.00    -0.395 OA
HETATM   48  H   UNK N   1      17.726  12.360   1.062  0.00  0.00     0.210 HD
ENDBRANCH  42  47
ENDBRANCH  36  37
ENDBRANCH  35  36
ENDBRANCH  31  35
ENDBRANCH  28  29
ENDBRANCH  26  28
ENDBRANCH  25  26
ENDBRANCH   1  25
TORSDOF 19
ENDMDL
MODEL 8
REMARK VINA RESULT:      -6.5      2.367      8.849
REMARK  19 active torsions:
REMARK  status: ('A' for Active; 'I' for Inactive)
REMARK    1  A    between atoms: C_11  and  C_10 
REMARK    2  A    between atoms: C_12  and  C_10 
REMARK    3  A    between atoms: C_13  and  C_11 
REMARK    4  A    between atoms: C_14  and  C_12 
REMARK    5  A    between atoms: C_15  and  C_13 
REMARK    6  A    between atoms: C_26  and  C_14 
REMARK    7  A    between atoms: C_27  and  C_15 
REMARK    8  A    between atoms: C_17  and  C_16 
REMARK    9  A    between atoms: C_26  and  C_16 
REMARK   10  A    between atoms: C_33  and  C_17 
REMARK   11  A    between atoms: C_19  and  C_18 
REMARK   12  A    between atoms: C_29  and  C_18 
REMARK   13  A    between atoms: C_39  and  C_19 
REMARK   14  A    between atoms: C_27  and  C_20 
REMARK   15  A    between atoms: C_31  and  C_20 
REMARK   16  A    between atoms: O_44  and  C_28 
REMARK   17  A    between atoms: C_30  and  O_41 
REMARK   18  A    between atoms: C_32  and  O_44 
REMARK   19  A    between atoms: C_37  and  O_43 
ROOT
HETATM    1  C   UNK N   1      26.381  14.629   6.101  0.00  0.00     0.054 C 
ENDROOT
BRANCH   1   2
HETATM    2  C   UNK N   1      25.816  14.891   4.902  0.00  0.00    -0.023 C 
BRANCH   2   3
HETATM    3  C   UNK N   1      26.814  15.152   3.873  0.00  0.00    -0.004 C 
BRANCH   3   4
HETATM    4  C   UNK N   1      26.655  16.331   3.227  0.00  0.00     0.000 C 
BRANCH   4   5
HETATM    5  C   UNK N   1      27.322  17.630   3.488  0.00  0.00     0.007 C 
BRANCH   5   6
HETATM    6  C   UNK N   1      26.919  18.667   4.236  0.00  0.00    -0.055 C 
HETATM    7  C   UNK N   1      26.455  19.904   3.529  0.00  0.00     0.049 C 
BRANCH   6   8
HETATM    8  C   UNK N   1      27.049  18.729   5.690  0.00  0.00     0.058 C 
BRANCH   8   9
HETATM    9  C   UNK N   1      28.044  18.070   6.170  0.00  0.00    -0.147 C 
BRANCH   9  10
HETATM   10  C   UNK N   1      28.966  17.412   6.809  0.00  0.00     0.098 C 
HETATM   11  C   UNK N   1      30.179  16.897   5.978  0.00  0.00    -0.029 C 
HETATM   12  C   UNK N   1      30.289  17.529   4.590  0.00  0.00     0.016 C 
HETATM   13  C   UNK N   1      30.004  15.406   5.760  0.00  0.00     0.016 C 
HETATM   14  C   UNK N   1      31.542  17.133   6.652  0.00  0.00     0.042 C 
HETATM   15  C   UNK N   1      31.465  16.930   8.152  0.00  0.00     0.135 C 
HETATM   16  C   UNK N   1      30.555  18.026   8.668  0.00  0.00     0.071 C 
HETATM   17  C   UNK N   1      29.119  17.767   8.289  0.00  0.00     0.071 C 
HETATM   18  C   UNK N   1      28.355  19.023   8.716  0.00  0.00     0.047 C 
BRANCH  15  19
HETATM   19  O   UNK N   1      32.699  17.064   8.750  0.00  0.00    -0.316 OA
BRANCH  19  20
HETATM   20  C   UNK N   1      33.448  15.978   9.092  0.00  0.00     0.255 C 
HETATM   21  C   UNK N   1      34.843  16.162   9.565  0.00  0.00     0.126 C 
HETATM   22  O   UNK N   1      32.979  14.848   9.035  0.00  0.00    -0.266 OA
ENDBRANCH  19  20
ENDBRANCH  15  19
BRANCH  17  23
HETATM   23  O   UNK N   1      28.638  16.698   9.043  0.00  0.00    -0.389 OA
HETATM   24  H   UNK N   1      28.295  15.791   9.026  0.00  0.00     0.210 HD
ENDBRANCH  17  23
ENDBRANCH   9  10
ENDBRANCH   8   9
ENDBRANCH   6   8
ENDBRANCH   5   6
ENDBRANCH   4   5
ENDBRANCH   3   4
ENDBRANCH   2   3
ENDBRANCH   1   2
BRANCH   1  25
HETATM   25  C   UNK N   1      25.448  14.801   7.199  0.00  0.00    -0.016 C 
BRANCH  25  26
HETATM   26  C   UNK N   1      24.854  13.843   7.914  0.00  0.00    -0.063 C 
HETATM   27  C   UNK N   1      25.226  13.543   9.330  0.00  0.00     0.048 C 
BRANCH  26  28
HETATM   28  C   UNK N   1      23.995  12.919   7.146  0.00  0.00     0.043 C 
BRANCH  28  29
HETATM   29  C   UNK N   1      22.874  13.466   6.619  0.00  0.00     0.081 A 
HETATM   30  C   UNK N   1      22.462  13.488   5.216  0.00  0.00     0.055 A 
HETATM   31  C   UNK N   1      21.432  14.342   5.165  0.00  0.00     0.042 A 
HETATM   32  C   UNK N   1      21.192  14.826   6.517  0.00  0.00     0.298 A 
HETATM   33  O   UNK N   1      20.408  15.698   6.857  0.00  0.00    -0.259 OA
HETATM   34  O   UNK N   1      22.040  14.239   7.356  0.00  0.00    -0.275 OA
BRANCH  31  35
HETATM   35  C   UNK N   1      21.031  14.939   3.901  0.00  0.00     0.017 C 
BRANCH  35  36
HETATM   36  C   UNK N   1      21.861  15.758   3.244  0.00  0.00     0.016 C 
BRANCH  36  37
HETATM   37  C   UNK N   1      21.442  17.187   3.132  0.00  0.00     0.118 A 
HETATM   38  C   UNK N   1      22.102  18.201   4.132  0.00  0.00    -0.007 C 
HETATM   39  C   UNK N   1      23.332  17.672   4.863  0.00  0.00     0.018 C 
HETATM   40  C   UNK N   1      21.158  18.654   5.242  0.00  0.00     0.018 C 
HETATM   41  C   UNK N   1      22.590  19.367   3.295  0.00  0.00     0.044 C 
HETATM   42  C   UNK N   1      21.473  20.123   2.576  0.00  0.00     0.122 C 
HETATM   43  C   UNK N   1      20.314  19.254   2.036  0.00  0.00     0.073 C 
HETATM   44  C   UNK N   1      20.546  17.740   2.067  0.00  0.00     0.097 A 
HETATM   45  C   UNK N   1      20.013  16.885   0.935  0.00  0.00     0.050 C 
HETATM   46  O   UNK N   1      20.037  17.238   3.268  0.00  0.00    -0.358 OA
BRANCH  42  47
HETATM   47  O   UNK N   1      20.959  21.087   3.440  0.00  0.00    -0.395 OA
HETATM   48  H   UNK N   1      21.155  21.701   4.165  0.00  0.00     0.210 HD
ENDBRANCH  42  47
ENDBRANCH  36  37
ENDBRANCH  35  36
ENDBRANCH  31  35
ENDBRANCH  28  29
ENDBRANCH  26  28
ENDBRANCH  25  26
ENDBRANCH   1  25
TORSDOF 19
ENDMDL
MODEL 9
REMARK VINA RESULT:      -6.4      9.071     14.404
REMARK  19 active torsions:
REMARK  status: ('A' for Active; 'I' for Inactive)
REMARK    1  A    between atoms: C_11  and  C_10 
REMARK    2  A    between atoms: C_12  and  C_10 
REMARK    3  A    between atoms: C_13  and  C_11 
REMARK    4  A    between atoms: C_14  and  C_12 
REMARK    5  A    between atoms: C_15  and  C_13 
REMARK    6  A    between atoms: C_26  and  C_14 
REMARK    7  A    between atoms: C_27  and  C_15 
REMARK    8  A    between atoms: C_17  and  C_16 
REMARK    9  A    between atoms: C_26  and  C_16 
REMARK   10  A    between atoms: C_33  and  C_17 
REMARK   11  A    between atoms: C_19  and  C_18 
REMARK   12  A    between atoms: C_29  and  C_18 
REMARK   13  A    between atoms: C_39  and  C_19 
REMARK   14  A    between atoms: C_27  and  C_20 
REMARK   15  A    between atoms: C_31  and  C_20 
REMARK   16  A    between atoms: O_44  and  C_28 
REMARK   17  A    between atoms: C_30  and  O_41 
REMARK   18  A    between atoms: C_32  and  O_44 
REMARK   19  A    between atoms: C_37  and  O_43 
ROOT
HETATM    1  C   UNK N   1      34.586  12.466   8.853  0.00  0.00     0.054 C 
ENDROOT
BRANCH   1   2
HETATM    2  C   UNK N   1      34.021  11.286   9.186  0.00  0.00    -0.023 C 
BRANCH   2   3
HETATM    3  C   UNK N   1      34.363  10.880  10.544  0.00  0.00    -0.004 C 
BRANCH   3   4
HETATM    4  C   UNK N   1      35.176   9.800  10.617  0.00  0.00     0.000 C 
BRANCH   4   5
HETATM    5  C   UNK N   1      36.630   9.750  10.908  0.00  0.00     0.007 C 
BRANCH   5   6
HETATM    6  C   UNK N   1      37.528  10.743  10.962  0.00  0.00    -0.055 C 
HETATM    7  C   UNK N   1      38.622  10.756   9.937  0.00  0.00     0.049 C 
BRANCH   6   8
HETATM    8  C   UNK N   1      37.606  11.721  12.045  0.00  0.00     0.058 C 
BRANCH   8   9
HETATM    9  C   UNK N   1      36.841  11.474  13.049  0.00  0.00    -0.147 C 
BRANCH   9  10
HETATM   10  C   UNK N   1      36.149  11.359  14.144  0.00  0.00     0.098 C 
HETATM   11  C   UNK N   1      36.466  10.140  15.062  0.00  0.00    -0.029 C 
HETATM   12  C   UNK N   1      37.780   9.437  14.722  0.00  0.00     0.016 C 
HETATM   13  C   UNK N   1      35.366   9.112  14.880  0.00  0.00     0.016 C 
HETATM   14  C   UNK N   1      36.558  10.494  16.557  0.00  0.00     0.042 C 
HETATM   15  C   UNK N   1      35.530  11.536  16.948  0.00  0.00     0.135 C 
HETATM   16  C   UNK N   1      35.916  12.796  16.202  0.00  0.00     0.071 C 
HETATM   17  C   UNK N   1      35.624  12.670  14.729  0.00  0.00     0.071 C 
HETATM   18  C   UNK N   1      36.220  13.928  14.089  0.00  0.00     0.047 C 
BRANCH  15  19
HETATM   19  O   UNK N   1      35.556  11.797  18.301  0.00  0.00    -0.316 OA
BRANCH  19  20
HETATM   20  C   UNK N   1      35.324  10.821  19.222  0.00  0.00     0.255 C 
HETATM   21  C   UNK N   1      36.177  10.731  20.434  0.00  0.00     0.126 C 
HETATM   22  O   UNK N   1      34.406  10.023  19.075  0.00  0.00    -0.266 OA
ENDBRANCH  19  20
ENDBRANCH  15  19
BRANCH  17  23
HETATM   23  O   UNK N   1      34.244  12.708  14.538  0.00  0.00    -0.389 OA
HETATM   24  H   UNK N   1      33.421  13.193  14.705  0.00  0.00     0.210 HD
ENDBRANCH  17  23
ENDBRANCH   9  10
ENDBRANCH   8   9
ENDBRANCH   6   8
ENDBRANCH   5   6
ENDBRANCH   4   5
ENDBRANCH   3   4
ENDBRANCH   2   3
ENDBRANCH   1   2
BRANCH   1  25
HETATM   25  C   UNK N   1      34.975  13.240  10.017  0.00  0.00    -0.016 C 
BRANCH  25  26
HETATM   26  C   UNK N   1      35.748  14.328  10.045  0.00  0.00    -0.063 C 
HETATM   27  C   UNK N   1      37.185  14.308   9.637  0.00  0.00     0.048 C 
BRANCH  26  28
HETATM   28  C   UNK N   1      35.180  15.493  10.754  0.00  0.00     0.043 C 
BRANCH  28  29
HETATM   29  C   UNK N   1      34.619  16.440   9.965  0.00  0.00     0.081 A 
HETATM   30  C   UNK N   1      33.301  16.415   9.333  0.00  0.00     0.055 A 
HETATM   31  C   UNK N   1      33.304  17.438   8.470  0.00  0.00     0.042 A 
HETATM   32  C   UNK N   1      34.594  18.104   8.580  0.00  0.00     0.298 A 
HETATM   33  O   UNK N   1      35.014  19.012   7.879  0.00  0.00    -0.259 OA
HETATM   34  O   UNK N   1      35.324  17.507   9.517  0.00  0.00    -0.275 OA
BRANCH  31  35
HETATM   35  C   UNK N   1      32.348  17.484   7.376  0.00  0.00     0.017 C 
BRANCH  35  36
HETATM   36  C   UNK N   1      31.273  16.686   7.381  0.00  0.00     0.016 C 
BRANCH  36  37
HETATM   37  C   UNK N   1      30.010  17.260   6.828  0.00  0.00     0.118 A 
HETATM   38  C   UNK N   1      28.963  17.802   7.865  0.00  0.00    -0.007 C 
HETATM   39  C   UNK N   1      29.500  17.988   9.280  0.00  0.00     0.018 C 
HETATM   40  C   UNK N   1      27.750  16.891   8.029  0.00  0.00     0.018 C 
HETATM   41  C   UNK N   1      28.570  19.186   7.388  0.00  0.00     0.044 C 
HETATM   42  C   UNK N   1      27.883  19.197   6.022  0.00  0.00     0.122 C 
HETATM   43  C   UNK N   1      28.423  18.181   4.990  0.00  0.00     0.073 C 
HETATM   44  C   UNK N   1      29.726  17.472   5.373  0.00  0.00     0.097 A 
HETATM   45  C   UNK N   1      30.748  17.167   4.297  0.00  0.00     0.050 C 
HETATM   46  O   UNK N   1      29.404  16.274   6.018  0.00  0.00    -0.358 OA
BRANCH  42  47
HETATM   47  O   UNK N   1      26.519  18.982   6.207  0.00  0.00    -0.395 OA
HETATM   48  H   UNK N   1      25.809  18.323   6.237  0.00  0.00     0.210 HD
ENDBRANCH  42  47
ENDBRANCH  36  37
ENDBRANCH  35  36
ENDBRANCH  31  35
ENDBRANCH  28  29
ENDBRANCH  26  28
ENDBRANCH  25  26
ENDBRANCH   1  25
TORSDOF 19
ENDMDL
