MODEL 1
REMARK VINA RESULT:      -6.8      0.000      0.000
REMARK  29 active torsions:
REMARK  status: ('A' for Active; 'I' for Inactive)
REMARK    1  A    between atoms: C_1  and  N_38 
REMARK    2  A    between atoms: C_3  and  O_6 
REMARK    3  A    between atoms: C_4  and  C_32 
REMARK    4  A    between atoms: C_5  and  O_33 
REMARK    5  A    between atoms: N_9  and  C_7 
REMARK    6  A    between atoms: C_7  and  C_8 
REMARK    7  A    between atoms: C_8  and  S_51 
REMARK       I    between atoms: C_10  and  N_9 
REMARK    8  A    between atoms: C_13  and  C_10 
REMARK    9  A    between atoms: C_12  and  N_14 
REMARK   10  A    between atoms: C_13  and  C_12 
REMARK       I    between atoms: C_16  and  N_14 
REMARK   11  A    between atoms: C_16  and  C_21 
REMARK   12  A    between atoms: C_19  and  C_17 
REMARK   13  A    between atoms: C_17  and  O_23 
REMARK   14  A    between atoms: C_21  and  C_19 
REMARK   15  A    between atoms: C_21  and  O_22 
REMARK   16  A    between atoms: O_23  and  P_30 
REMARK   17  A    between atoms: P_30  and  O_24 
REMARK   18  A    between atoms: O_24  and  P_31 
REMARK   19  A    between atoms: P_31  and  O_25 
REMARK   20  A    between atoms: C_32  and  O_25 
REMARK   21  A    between atoms: P_30  and  O_27 
REMARK   22  A    between atoms: P_31  and  O_29 
REMARK   23  A    between atoms: O_33  and  P_36 
REMARK   24  A    between atoms: P_36  and  O_34 
REMARK   25  A    between atoms: P_36  and  O_35 
REMARK   26  A    between atoms: N_50  and  C_46 
REMARK   27  A    between atoms: S_51  and  C_54 
REMARK   28  A    between atoms: C_54  and  C_52 
REMARK   29  A    between atoms: C_52  and  C_56 
ROOT
HETATM    1  O   UNK N   1      28.211  12.872   1.856  0.00  0.00    -0.631 OA
HETATM    2  P   UNK N   1      28.617  14.227   2.495  0.00  0.00     0.401 P 
ENDROOT
BRANCH   2   3
HETATM    3  O   UNK N   1      30.037  14.252   3.489  0.00  0.00    -0.195 OA
BRANCH   3   4
HETATM    4  P   UNK N   1      30.412  15.895   3.944  0.00  0.00     0.401 P 
HETATM    5  O   UNK N   1      29.315  16.151   5.009  0.00  0.00    -0.631 OA
BRANCH   4   6
HETATM    6  O   UNK N   1      31.858  16.270   4.866  0.00  0.00    -0.296 OA
BRANCH   6   7
HETATM    7  C   UNK N   1      31.603  17.307   5.783  0.00  0.00     0.192 C 
BRANCH   7   8
HETATM    8  C   UNK N   1      32.437  17.128   7.087  0.00  0.00     0.009 C 
HETATM    9  C   UNK N   1      31.764  17.821   8.273  0.00  0.00     0.020 C 
HETATM   10  C   UNK N   1      32.467  15.644   7.403  0.00  0.00     0.020 C 
BRANCH   8  11
HETATM   11  C   UNK N   1      33.911  17.600   6.958  0.00  0.00     0.219 C 
BRANCH  11  12
HETATM   12  C   UNK N   1      34.587  17.946   8.257  0.00  0.00     0.247 C 
HETATM   13  N   UNK N   1      34.702  16.974   9.196  0.00  0.00    -0.358 N 
HETATM   14  H   UNK N   1      34.312  16.102   8.958  0.00  0.00     0.162 HD
HETATM   15  O   UNK N   1      34.991  19.081   8.465  0.00  0.00    -0.271 OA
BRANCH  13  16
HETATM   16  C   UNK N   1      35.323  17.049  10.505  0.00  0.00     0.132 C 
BRANCH  16  17
HETATM   17  C   UNK N   1      35.990  15.795  11.040  0.00  0.00     0.122 C 
BRANCH  17  18
HETATM   18  C   UNK N   1      34.968  14.817  11.544  0.00  0.00     0.219 C 
HETATM   19  N   UNK N   1      35.299  13.776  12.355  0.00  0.00    -0.360 N 
HETATM   20  H   UNK N   1      34.582  13.172  12.655  0.00  0.00     0.162 HD
HETATM   21  O   UNK N   1      33.802  14.981  11.232  0.00  0.00    -0.274 OA
BRANCH  19  22
HETATM   22  C   UNK N   1      36.648  13.513  12.797  0.00  0.00     0.133 C 
BRANCH  22  23
HETATM   23  C   UNK N   1      37.222  12.297  12.081  0.00  0.00     0.102 C 
BRANCH  23  24
HETATM   24  S   UNK N   1      38.146  12.796  10.591  0.00  0.00    -0.090 SA
BRANCH  24  25
HETATM   25  C   UNK N   1      36.838  12.370   9.430  0.00  0.00     0.193 C 
HETATM   26  O   UNK N   1      35.810  11.850   9.833  0.00  0.00    -0.285 OA
BRANCH  25  27
HETATM   27  C   UNK N   1      37.077  12.514   7.959  0.00  0.00     0.168 C 
BRANCH  27  28
HETATM   28  C   UNK N   1      36.138  13.479   7.299  0.00  0.00     0.130 C 
HETATM   29  C   UNK N   1      35.570  13.188   5.948  0.00  0.00     0.091 C 
HETATM   30  O   UNK N   1      35.886  14.542   7.839  0.00  0.00    -0.298 OA
ENDBRANCH  27  28
ENDBRANCH  25  27
ENDBRANCH  24  25
ENDBRANCH  23  24
ENDBRANCH  22  23
ENDBRANCH  19  22
ENDBRANCH  17  18
ENDBRANCH  16  17
ENDBRANCH  13  16
ENDBRANCH  11  12
BRANCH  11  31
HETATM   31  O   UNK N   1      34.668  16.667   6.234  0.00  0.00    -0.385 OA
HETATM   32  H   UNK N   1      35.604  16.842   6.047  0.00  0.00     0.210 HD
ENDBRANCH  11  31
ENDBRANCH   8  11
ENDBRANCH   7   8
ENDBRANCH   6   7
ENDBRANCH   4   6
BRANCH   4  33
HETATM   33  O   UNK N   1      29.961  17.019   2.709  0.00  0.00    -0.307 OA
HETATM   34  H   UNK N   1      30.044  17.985   2.729  0.00  0.00     0.222 HD
ENDBRANCH   4  33
ENDBRANCH   3   4
ENDBRANCH   2   3
BRANCH   2  35
HETATM   35  O   UNK N   1      27.431  15.503   2.446  0.00  0.00    -0.294 OA
BRANCH  35  36
HETATM   36  C   UNK N   1      26.457  15.171   3.397  0.00  0.00     0.215 C 
BRANCH  36  37
HETATM   37  C   UNK N   1      25.185  16.042   3.277  0.00  0.00     0.180 C 
HETATM   38  O   UNK N   1      24.060  15.256   2.919  0.00  0.00    -0.353 OA
HETATM   39  C   UNK N   1      23.182  15.262   4.029  0.00  0.00     0.262 C 
HETATM   40  C   UNK N   1      23.959  15.797   5.222  0.00  0.00     0.199 C 
HETATM   41  C   UNK N   1      24.831  16.802   4.551  0.00  0.00     0.197 C 
BRANCH  39  42
HETATM   42  N   UNK N   1      21.950  15.988   3.673  0.00  0.00    -0.297 N 
HETATM   43  C   UNK N   1      21.710  17.297   3.467  0.00  0.00     0.142 A 
HETATM   44  C   UNK N   1      20.425  17.460   3.090  0.00  0.00     0.122 A 
HETATM   45  N   UNK N   1      22.561  18.340   3.583  0.00  0.00    -0.336 N 
HETATM   46  C   UNK N   1      19.935  18.726   2.808  0.00  0.00     0.131 A 
HETATM   47  N   UNK N   1      19.808  16.269   3.042  0.00  0.00    -0.346 N 
HETATM   48  N   UNK N   1      20.786  19.786   2.934  0.00  0.00    -0.337 N 
HETATM   49  C   UNK N   1      22.090  19.599   3.321  0.00  0.00     0.183 A 
ATOM     50  HN  UNK N   1      20.450  20.729   2.740  1.00  0.00     0.168 HD
HETATM   51  C   UNK N   1      20.771  15.374   3.403  0.00  0.00     0.188 A 
ATOM     52  HN  UNK N   1      18.838  16.077   2.791  1.00  0.00     0.167 HD
ATOM     53  HN  UNK N   1      23.533  18.193   3.860  1.00  0.00     0.168 HD
BRANCH  46  54
HETATM   54  N   UNK N   1      18.603  18.922   2.393  0.00  0.00    -0.383 N 
HETATM   55  H   UNK N   1      18.239  19.833   2.315  0.00  0.00     0.157 HD
HETATM   56  H   UNK N   1      18.035  18.145   2.182  0.00  0.00     0.157 HD
ENDBRANCH  46  54
ENDBRANCH  39  42
BRANCH  40  57
HETATM   57  O   UNK N   1      23.148  16.343   6.218  0.00  0.00    -0.388 OA
HETATM   58  H   UNK N   1      22.235  16.264   6.540  0.00  0.00     0.210 HD
ENDBRANCH  40  57
BRANCH  41  59
HETATM   59  O   UNK N   1      25.961  17.129   5.308  0.00  0.00    -0.286 OA
BRANCH  59  60
HETATM   60  P   UNK N   1      26.435  18.758   4.892  0.00  0.00     0.391 P 
HETATM   61  O   UNK N   1      25.319  19.387   4.014  0.00  0.00    -0.632 OA
BRANCH  60  62
HETATM   62  O   UNK N   1      27.878  18.713   3.935  0.00  0.00    -0.307 OA
HETATM   63  H   UNK N   1      28.829  18.784   4.111  0.00  0.00     0.222 HD
ENDBRANCH  60  62
BRANCH  60  64
HETATM   64  O   UNK N   1      26.694  19.817   6.238  0.00  0.00    -0.307 OA
HETATM   65  H   UNK N   1      26.027  20.425   6.592  0.00  0.00     0.222 HD
ENDBRANCH  60  64
ENDBRANCH  59  60
ENDBRANCH  41  59
ENDBRANCH  36  37
ENDBRANCH  35  36
ENDBRANCH   2  35
BRANCH   2  66
HETATM   66  O   UNK N   1      27.814  13.710   3.938  0.00  0.00    -0.307 OA
HETATM   67  H   UNK N   1      27.001  13.894   4.435  0.00  0.00     0.222 HD
ENDBRANCH   2  66
TORSDOF 29
ENDMDL
MODEL 2
REMARK VINA RESULT:      -6.8      2.959      5.246
REMARK  29 active torsions:
REMARK  status: ('A' for Active; 'I' for Inactive)
REMARK    1  A    between atoms: C_1  and  N_38 
REMARK    2  A    between atoms: C_3  and  O_6 
REMARK    3  A    between atoms: C_4  and  C_32 
REMARK    4  A    between atoms: C_5  and  O_33 
REMARK    5  A    between atoms: N_9  and  C_7 
REMARK    6  A    between atoms: C_7  and  C_8 
REMARK    7  A    between atoms: C_8  and  S_51 
REMARK       I    between atoms: C_10  and  N_9 
REMARK    8  A    between atoms: C_13  and  C_10 
REMARK    9  A    between atoms: C_12  and  N_14 
REMARK   10  A    between atoms: C_13  and  C_12 
REMARK       I    between atoms: C_16  and  N_14 
REMARK   11  A    between atoms: C_16  and  C_21 
REMARK   12  A    between atoms: C_19  and  C_17 
REMARK   13  A    between atoms: C_17  and  O_23 
REMARK   14  A    between atoms: C_21  and  C_19 
REMARK   15  A    between atoms: C_21  and  O_22 
REMARK   16  A    between atoms: O_23  and  P_30 
REMARK   17  A    between atoms: P_30  and  O_24 
REMARK   18  A    between atoms: O_24  and  P_31 
REMARK   19  A    between atoms: P_31  and  O_25 
REMARK   20  A    between atoms: C_32  and  O_25 
REMARK   21  A    between atoms: P_30  and  O_27 
REMARK   22  A    between atoms: P_31  and  O_29 
REMARK   23  A    between atoms: O_33  and  P_36 
REMARK   24  A    between atoms: P_36  and  O_34 
REMARK   25  A    between atoms: P_36  and  O_35 
REMARK   26  A    between atoms: N_50  and  C_46 
REMARK   27  A    between atoms: S_51  and  C_54 
REMARK   28  A    between atoms: C_54  and  C_52 
REMARK   29  A    between atoms: C_52  and  C_56 
ROOT
HETATM    1  O   UNK N   1      33.373  16.333   4.838  0.00  0.00    -0.631 OA
HETATM    2  P   UNK N   1      32.285  17.150   5.587  0.00  0.00     0.401 P 
ENDROOT
BRANCH   2   3
HETATM    3  O   UNK N   1      32.241  17.030   7.316  0.00  0.00    -0.195 OA
BRANCH   3   4
HETATM    4  P   UNK N   1      33.859  17.154   7.959  0.00  0.00     0.401 P 
HETATM    5  O   UNK N   1      34.184  18.634   7.624  0.00  0.00    -0.631 OA
BRANCH   4   6
HETATM    6  O   UNK N   1      34.147  17.140   9.690  0.00  0.00    -0.296 OA
BRANCH   6   7
HETATM    7  C   UNK N   1      35.495  16.841   9.963  0.00  0.00     0.192 C 
BRANCH   7   8
HETATM    8  C   UNK N   1      35.640  15.449  10.649  0.00  0.00     0.009 C 
HETATM    9  C   UNK N   1      36.913  14.737  10.192  0.00  0.00     0.020 C 
HETATM   10  C   UNK N   1      35.783  15.694  12.140  0.00  0.00     0.020 C 
BRANCH   8  11
HETATM   11  C   UNK N   1      34.409  14.522  10.453  0.00  0.00     0.219 C 
BRANCH  11  12
HETATM   12  C   UNK N   1      34.549  13.494   9.363  0.00  0.00     0.247 C 
HETATM   13  N   UNK N   1      34.870  12.226   9.719  0.00  0.00    -0.358 N 
HETATM   14  H   UNK N   1      35.005  12.074  10.683  0.00  0.00     0.162 HD
HETATM   15  O   UNK N   1      34.408  13.808   8.190  0.00  0.00    -0.271 OA
BRANCH  13  16
HETATM   16  C   UNK N   1      35.041  11.063   8.869  0.00  0.00     0.132 C 
BRANCH  16  17
HETATM   17  C   UNK N   1      34.198   9.837   9.174  0.00  0.00     0.122 C 
BRANCH  17  18
HETATM   18  C   UNK N   1      33.038  10.191  10.059  0.00  0.00     0.219 C 
HETATM   19  N   UNK N   1      33.100  10.080  11.413  0.00  0.00    -0.360 N 
HETATM   20  H   UNK N   1      32.307  10.332  11.939  0.00  0.00     0.162 HD
HETATM   21  O   UNK N   1      32.020  10.614   9.542  0.00  0.00    -0.274 OA
BRANCH  19  22
HETATM   22  C   UNK N   1      34.269   9.612  12.118  0.00  0.00     0.133 C 
BRANCH  22  23
HETATM   23  C   UNK N   1      34.663  10.589  13.218  0.00  0.00     0.102 C 
BRANCH  23  24
HETATM   24  S   UNK N   1      36.356  11.213  12.958  0.00  0.00    -0.090 SA
BRANCH  24  25
HETATM   25  C   UNK N   1      36.419  12.171  14.480  0.00  0.00     0.193 C 
HETATM   26  O   UNK N   1      37.137  13.156  14.552  0.00  0.00    -0.285 OA
BRANCH  25  27
HETATM   27  C   UNK N   1      35.711  11.671  15.701  0.00  0.00     0.168 C 
BRANCH  27  28
HETATM   28  C   UNK N   1      34.865  12.716  16.364  0.00  0.00     0.130 C 
HETATM   29  C   UNK N   1      35.170  13.177  17.752  0.00  0.00     0.091 C 
HETATM   30  O   UNK N   1      33.878  13.146  15.792  0.00  0.00    -0.298 OA
ENDBRANCH  27  28
ENDBRANCH  25  27
ENDBRANCH  24  25
ENDBRANCH  23  24
ENDBRANCH  22  23
ENDBRANCH  19  22
ENDBRANCH  17  18
ENDBRANCH  16  17
ENDBRANCH  13  16
ENDBRANCH  11  12
BRANCH  11  31
HETATM   31  O   UNK N   1      34.046  13.918  11.666  0.00  0.00    -0.385 OA
HETATM   32  H   UNK N   1      33.801  14.467  12.427  0.00  0.00     0.210 HD
ENDBRANCH  11  31
ENDBRANCH   8  11
ENDBRANCH   7   8
ENDBRANCH   6   7
ENDBRANCH   4   6
BRANCH   4  33
HETATM   33  O   UNK N   1      35.006  16.318   6.970  0.00  0.00    -0.307 OA
HETATM   34  H   UNK N   1      35.963  16.465   6.921  0.00  0.00     0.222 HD
ENDBRANCH   4  33
ENDBRANCH   3   4
ENDBRANCH   2   3
BRANCH   2  35
HETATM   35  O   UNK N   1      31.003  17.823   4.617  0.00  0.00    -0.294 OA
BRANCH  35  36
HETATM   36  C   UNK N   1      29.960  16.890   4.643  0.00  0.00     0.215 C 
BRANCH  36  37
HETATM   37  C   UNK N   1      28.573  17.552   4.821  0.00  0.00     0.180 C 
HETATM   38  O   UNK N   1      27.630  17.016   3.906  0.00  0.00    -0.353 OA
HETATM   39  C   UNK N   1      26.674  16.303   4.667  0.00  0.00     0.262 C 
HETATM   40  C   UNK N   1      27.248  16.122   6.065  0.00  0.00     0.199 C 
HETATM   41  C   UNK N   1      27.990  17.404   6.223  0.00  0.00     0.197 C 
BRANCH  39  42
HETATM   42  N   UNK N   1      25.372  16.986   4.580  0.00  0.00    -0.297 N 
HETATM   43  C   UNK N   1      25.013  18.164   4.035  0.00  0.00     0.142 A 
HETATM   44  C   UNK N   1      23.678  18.318   4.147  0.00  0.00     0.122 A 
HETATM   45  N   UNK N   1      25.795  19.093   3.442  0.00  0.00    -0.336 N 
HETATM   46  C   UNK N   1      23.062  19.456   3.648  0.00  0.00     0.131 A 
HETATM   47  N   UNK N   1      23.144  17.250   4.760  0.00  0.00    -0.346 N 
HETATM   48  N   UNK N   1      23.846  20.404   3.058  0.00  0.00    -0.337 N 
HETATM   49  C   UNK N   1      25.204  20.228   2.955  0.00  0.00     0.183 A 
ATOM     50  HN  UNK N   1      23.420  21.253   2.688  1.00  0.00     0.168 HD
HETATM   51  C   UNK N   1      24.210  16.439   5.016  0.00  0.00     0.188 A 
ATOM     52  HN  UNK N   1      22.163  17.083   4.985  1.00  0.00     0.167 HD
ATOM     53  HN  UNK N   1      26.803  18.951   3.359  1.00  0.00     0.168 HD
BRANCH  46  54
HETATM   54  N   UNK N   1      21.666  19.632   3.734  0.00  0.00    -0.383 N 
HETATM   55  H   UNK N   1      21.136  19.781   2.918  0.00  0.00     0.157 HD
HETATM   56  H   UNK N   1      21.221  19.607   4.613  0.00  0.00     0.157 HD
ENDBRANCH  46  54
ENDBRANCH  39  42
BRANCH  40  57
HETATM   57  O   UNK N   1      26.275  15.919   7.045  0.00  0.00    -0.388 OA
HETATM   58  H   UNK N   1      25.400  16.262   7.286  0.00  0.00     0.210 HD
ENDBRANCH  40  57
BRANCH  41  59
HETATM   59  O   UNK N   1      28.982  17.337   7.207  0.00  0.00    -0.286 OA
BRANCH  59  60
HETATM   60  P   UNK N   1      28.383  18.153   8.631  0.00  0.00     0.391 P 
HETATM   61  O   UNK N   1      27.587  17.131   9.487  0.00  0.00    -0.632 OA
BRANCH  60  62
HETATM   62  O   UNK N   1      27.279  19.401   8.160  0.00  0.00    -0.307 OA
HETATM   63  H   UNK N   1      26.366  19.432   7.832  0.00  0.00     0.222 HD
ENDBRANCH  60  62
BRANCH  60  64
HETATM   64  O   UNK N   1      29.600  18.846   9.651  0.00  0.00    -0.307 OA
HETATM   65  H   UNK N   1      30.323  18.344  10.059  0.00  0.00     0.222 HD
ENDBRANCH  60  64
ENDBRANCH  59  60
ENDBRANCH  41  59
ENDBRANCH  36  37
ENDBRANCH  35  36
ENDBRANCH   2  35
BRANCH   2  66
HETATM   66  O   UNK N   1      31.326  15.710   5.626  0.00  0.00    -0.307 OA
HETATM   67  H   UNK N   1      30.394  15.447   5.677  0.00  0.00     0.222 HD
ENDBRANCH   2  66
TORSDOF 29
ENDMDL
MODEL 3
REMARK VINA RESULT:      -6.8      3.328      6.216
REMARK  29 active torsions:
REMARK  status: ('A' for Active; 'I' for Inactive)
REMARK    1  A    between atoms: C_1  and  N_38 
REMARK    2  A    between atoms: C_3  and  O_6 
REMARK    3  A    between atoms: C_4  and  C_32 
REMARK    4  A    between atoms: C_5  and  O_33 
REMARK    5  A    between atoms: N_9  and  C_7 
REMARK    6  A    between atoms: C_7  and  C_8 
REMARK    7  A    between atoms: C_8  and  S_51 
REMARK       I    between atoms: C_10  and  N_9 
REMARK    8  A    between atoms: C_13  and  C_10 
REMARK    9  A    between atoms: C_12  and  N_14 
REMARK   10  A    between atoms: C_13  and  C_12 
REMARK       I    between atoms: C_16  and  N_14 
REMARK   11  A    between atoms: C_16  and  C_21 
REMARK   12  A    between atoms: C_19  and  C_17 
REMARK   13  A    between atoms: C_17  and  O_23 
REMARK   14  A    between atoms: C_21  and  C_19 
REMARK   15  A    between atoms: C_21  and  O_22 
REMARK   16  A    between atoms: O_23  and  P_30 
REMARK   17  A    between atoms: P_30  and  O_24 
REMARK   18  A    between atoms: O_24  and  P_31 
REMARK   19  A    between atoms: P_31  and  O_25 
REMARK   20  A    between atoms: C_32  and  O_25 
REMARK   21  A    between atoms: P_30  and  O_27 
REMARK   22  A    between atoms: P_31  and  O_29 
REMARK   23  A    between atoms: O_33  and  P_36 
REMARK   24  A    between atoms: P_36  and  O_34 
REMARK   25  A    between atoms: P_36  and  O_35 
REMARK   26  A    between atoms: N_50  and  C_46 
REMARK   27  A    between atoms: S_51  and  C_54 
REMARK   28  A    between atoms: C_54  and  C_52 
REMARK   29  A    between atoms: C_52  and  C_56 
ROOT
HETATM    1  O   UNK N   1      31.762  16.375   7.069  0.00  0.00    -0.631 OA
HETATM    2  P   UNK N   1      31.384  17.706   7.772  0.00  0.00     0.401 P 
ENDROOT
BRANCH   2   3
HETATM    3  O   UNK N   1      32.679  18.711   8.338  0.00  0.00    -0.195 OA
BRANCH   3   4
HETATM    4  P   UNK N   1      34.203  17.883   8.130  0.00  0.00     0.401 P 
HETATM    5  O   UNK N   1      35.194  19.029   8.461  0.00  0.00    -0.631 OA
BRANCH   4   6
HETATM    6  O   UNK N   1      34.727  16.657   9.271  0.00  0.00    -0.296 OA
BRANCH   6   7
HETATM    7  C   UNK N   1      35.308  15.569   8.592  0.00  0.00     0.192 C 
BRANCH   7   8
HETATM    8  C   UNK N   1      35.512  14.351   9.543  0.00  0.00     0.009 C 
HETATM    9  C   UNK N   1      34.172  13.750   9.968  0.00  0.00     0.020 C 
HETATM   10  C   UNK N   1      36.245  13.282   8.754  0.00  0.00     0.020 C 
BRANCH   8  11
HETATM   11  C   UNK N   1      36.376  14.671  10.795  0.00  0.00     0.219 C 
BRANCH  11  12
HETATM   12  C   UNK N   1      37.279  13.557  11.250  0.00  0.00     0.247 C 
HETATM   13  N   UNK N   1      36.864  12.780  12.281  0.00  0.00    -0.358 N 
HETATM   14  H   UNK N   1      35.992  13.018  12.672  0.00  0.00     0.162 HD
HETATM   15  O   UNK N   1      38.367  13.383  10.722  0.00  0.00    -0.271 OA
BRANCH  13  16
HETATM   16  C   UNK N   1      37.534  11.643  12.884  0.00  0.00     0.132 C 
BRANCH  16  17
HETATM   17  C   UNK N   1      37.257  10.270  12.299  0.00  0.00     0.122 C 
BRANCH  17  18
HETATM   18  C   UNK N   1      35.819  10.143  11.886  0.00  0.00     0.219 C 
HETATM   19  N   UNK N   1      34.860   9.683  12.733  0.00  0.00    -0.360 N 
HETATM   20  H   UNK N   1      33.934   9.627  12.405  0.00  0.00     0.162 HD
HETATM   21  O   UNK N   1      35.503  10.489  10.762  0.00  0.00    -0.274 OA
BRANCH  19  22
HETATM   22  C   UNK N   1      35.131   9.271  14.090  0.00  0.00     0.133 C 
BRANCH  22  23
HETATM   23  C   UNK N   1      34.501  10.238  15.084  0.00  0.00     0.102 C 
BRANCH  23  24
HETATM   24  S   UNK N   1      35.767  10.972  16.170  0.00  0.00    -0.090 SA
BRANCH  24  25
HETATM   25  C   UNK N   1      35.070  12.631  16.146  0.00  0.00     0.193 C 
HETATM   26  O   UNK N   1      34.053  12.857  15.508  0.00  0.00    -0.285 OA
BRANCH  25  27
HETATM   27  C   UNK N   1      35.821  13.760  16.780  0.00  0.00     0.168 C 
BRANCH  27  28
HETATM   28  C   UNK N   1      35.409  14.022  18.198  0.00  0.00     0.130 C 
HETATM   29  C   UNK N   1      35.151  12.891  19.139  0.00  0.00     0.091 C 
HETATM   30  O   UNK N   1      35.219  15.167  18.570  0.00  0.00    -0.298 OA
ENDBRANCH  27  28
ENDBRANCH  25  27
ENDBRANCH  24  25
ENDBRANCH  23  24
ENDBRANCH  22  23
ENDBRANCH  19  22
ENDBRANCH  17  18
ENDBRANCH  16  17
ENDBRANCH  13  16
ENDBRANCH  11  12
BRANCH  11  31
HETATM   31  O   UNK N   1      37.101  15.856  10.606  0.00  0.00    -0.385 OA
HETATM   32  H   UNK N   1      36.864  16.655  11.104  0.00  0.00     0.210 HD
ENDBRANCH  11  31
ENDBRANCH   8  11
ENDBRANCH   7   8
ENDBRANCH   6   7
ENDBRANCH   4   6
BRANCH   4  33
HETATM   33  O   UNK N   1      34.552  17.597   6.460  0.00  0.00    -0.307 OA
HETATM   34  H   UNK N   1      35.332  17.886   5.962  0.00  0.00     0.222 HD
ENDBRANCH   4  33
ENDBRANCH   3   4
ENDBRANCH   2   3
BRANCH   2  35
HETATM   35  O   UNK N   1      29.716  17.900   8.239  0.00  0.00    -0.294 OA
BRANCH  35  36
HETATM   36  C   UNK N   1      29.046  16.757   7.786  0.00  0.00     0.215 C 
BRANCH  36  37
HETATM   37  C   UNK N   1      27.919  17.088   6.778  0.00  0.00     0.180 C 
HETATM   38  O   UNK N   1      27.781  18.489   6.609  0.00  0.00    -0.353 OA
HETATM   39  C   UNK N   1      28.176  18.787   5.283  0.00  0.00     0.262 C 
HETATM   40  C   UNK N   1      28.898  17.564   4.738  0.00  0.00     0.199 C 
HETATM   41  C   UNK N   1      28.124  16.474   5.396  0.00  0.00     0.197 C 
BRANCH  39  42
HETATM   42  N   UNK N   1      27.006  19.250   4.517  0.00  0.00    -0.297 N 
HETATM   43  C   UNK N   1      25.703  18.915   4.580  0.00  0.00     0.142 A 
HETATM   44  C   UNK N   1      25.005  19.675   3.713  0.00  0.00     0.122 A 
HETATM   45  N   UNK N   1      25.108  17.989   5.364  0.00  0.00    -0.336 N 
HETATM   46  C   UNK N   1      23.631  19.523   3.599  0.00  0.00     0.131 A 
HETATM   47  N   UNK N   1      25.833  20.517   3.074  0.00  0.00    -0.346 N 
HETATM   48  N   UNK N   1      23.024  18.582   4.379  0.00  0.00    -0.337 N 
HETATM   49  C   UNK N   1      23.753  17.817   5.255  0.00  0.00     0.183 A 
ATOM     50  HN  UNK N   1      22.015  18.445   4.311  1.00  0.00     0.168 HD
HETATM   51  C   UNK N   1      27.064  20.238   3.589  0.00  0.00     0.188 A 
ATOM     52  HN  UNK N   1      25.594  21.209   2.363  1.00  0.00     0.167 HD
ATOM     53  HN  UNK N   1      25.654  17.431   6.021  1.00  0.00     0.168 HD
BRANCH  46  54
HETATM   54  N   UNK N   1      22.876  20.319   2.715  0.00  0.00    -0.383 N 
HETATM   55  H   UNK N   1      21.933  20.519   2.914  0.00  0.00     0.157 HD
HETATM   56  H   UNK N   1      23.292  20.675   1.896  0.00  0.00     0.157 HD
ENDBRANCH  46  54
ENDBRANCH  39  42
BRANCH  40  57
HETATM   57  O   UNK N   1      28.889  17.486   3.344  0.00  0.00    -0.388 OA
HETATM   58  H   UNK N   1      28.939  16.809   2.651  0.00  0.00     0.210 HD
ENDBRANCH  40  57
BRANCH  41  59
HETATM   59  O   UNK N   1      28.828  15.266   5.449  0.00  0.00    -0.286 OA
BRANCH  59  60
HETATM   60  P   UNK N   1      27.978  14.105   4.458  0.00  0.00     0.391 P 
HETATM   61  O   UNK N   1      28.165  14.498   2.968  0.00  0.00    -0.632 OA
BRANCH  60  62
HETATM   62  O   UNK N   1      26.283  14.183   4.803  0.00  0.00    -0.307 OA
HETATM   63  H   UNK N   1      25.563  14.800   4.602  0.00  0.00     0.222 HD
ENDBRANCH  60  62
BRANCH  60  64
HETATM   64  O   UNK N   1      28.505  12.463   4.631  0.00  0.00    -0.307 OA
HETATM   65  H   UNK N   1      28.962  12.115   5.412  0.00  0.00     0.222 HD
ENDBRANCH  60  64
ENDBRANCH  59  60
ENDBRANCH  41  59
ENDBRANCH  36  37
ENDBRANCH  35  36
ENDBRANCH   2  35
BRANCH   2  66
HETATM   66  O   UNK N   1      31.578  16.885   9.283  0.00  0.00    -0.307 OA
HETATM   67  H   UNK N   1      31.939  17.048  10.169  0.00  0.00     0.222 HD
ENDBRANCH   2  66
TORSDOF 29
ENDMDL
MODEL 4
REMARK VINA RESULT:      -6.8      7.343     11.577
REMARK  29 active torsions:
REMARK  status: ('A' for Active; 'I' for Inactive)
REMARK    1  A    between atoms: C_1  and  N_38 
REMARK    2  A    between atoms: C_3  and  O_6 
REMARK    3  A    between atoms: C_4  and  C_32 
REMARK    4  A    between atoms: C_5  and  O_33 
REMARK    5  A    between atoms: N_9  and  C_7 
REMARK    6  A    between atoms: C_7  and  C_8 
REMARK    7  A    between atoms: C_8  and  S_51 
REMARK       I    between atoms: C_10  and  N_9 
REMARK    8  A    between atoms: C_13  and  C_10 
REMARK    9  A    between atoms: C_12  and  N_14 
REMARK   10  A    between atoms: C_13  and  C_12 
REMARK       I    between atoms: C_16  and  N_14 
REMARK   11  A    between atoms: C_16  and  C_21 
REMARK   12  A    between atoms: C_19  and  C_17 
REMARK   13  A    between atoms: C_17  and  O_23 
REMARK   14  A    between atoms: C_21  and  C_19 
REMARK   15  A    between atoms: C_21  and  O_22 
REMARK   16  A    between atoms: O_23  and  P_30 
REMARK   17  A    between atoms: P_30  and  O_24 
REMARK   18  A    between atoms: O_24  and  P_31 
REMARK   19  A    between atoms: P_31  and  O_25 
REMARK   20  A    between atoms: C_32  and  O_25 
REMARK   21  A    between atoms: P_30  and  O_27 
REMARK   22  A    between atoms: P_31  and  O_29 
REMARK   23  A    between atoms: O_33  and  P_36 
REMARK   24  A    between atoms: P_36  and  O_34 
REMARK   25  A    between atoms: P_36  and  O_35 
REMARK   26  A    between atoms: N_50  and  C_46 
REMARK   27  A    between atoms: S_51  and  C_54 
REMARK   28  A    between atoms: C_54  and  C_52 
REMARK   29  A    between atoms: C_52  and  C_56 
ROOT
HETATM    1  O   UNK N   1      18.861  16.332   8.454  0.00  0.00    -0.631 OA
HETATM    2  P   UNK N   1      19.859  16.305   7.265  0.00  0.00     0.401 P 
ENDROOT
BRANCH   2   3
HETATM    3  O   UNK N   1      19.999  14.826   6.369  0.00  0.00    -0.195 OA
BRANCH   3   4
HETATM    4  P   UNK N   1      19.054  14.930   4.905  0.00  0.00     0.401 P 
HETATM    5  O   UNK N   1      18.116  16.115   5.257  0.00  0.00    -0.631 OA
BRANCH   4   6
HETATM    6  O   UNK N   1      19.766  15.510   3.410  0.00  0.00    -0.296 OA
BRANCH   6   7
HETATM    7  C   UNK N   1      20.625  14.537   2.863  0.00  0.00     0.192 C 
BRANCH   7   8
HETATM    8  C   UNK N   1      20.461  14.441   1.316  0.00  0.00     0.009 C 
HETATM    9  C   UNK N   1      20.215  15.818   0.700  0.00  0.00     0.020 C 
HETATM   10  C   UNK N   1      21.777  13.936   0.755  0.00  0.00     0.020 C 
BRANCH   8  11
HETATM   11  C   UNK N   1      19.357  13.447   0.863  0.00  0.00     0.219 C 
BRANCH  11  12
HETATM   12  C   UNK N   1      19.569  12.019   1.288  0.00  0.00     0.247 C 
HETATM   13  N   UNK N   1      19.158  11.654   2.528  0.00  0.00    -0.358 N 
HETATM   14  H   UNK N   1      18.757  12.370   3.073  0.00  0.00     0.162 HD
HETATM   15  O   UNK N   1      20.126  11.225   0.545  0.00  0.00    -0.271 OA
BRANCH  13  16
HETATM   16  C   UNK N   1      19.228  10.349   3.158  0.00  0.00     0.132 C 
BRANCH  16  17
HETATM   17  C   UNK N   1      20.453  10.038   3.998  0.00  0.00     0.122 C 
BRANCH  17  18
HETATM   18  C   UNK N   1      20.423  10.799   5.292  0.00  0.00     0.219 C 
HETATM   19  N   UNK N   1      21.486  10.829   6.140  0.00  0.00    -0.360 N 
HETATM   20  H   UNK N   1      21.406  11.349   6.972  0.00  0.00     0.162 HD
HETATM   21  O   UNK N   1      19.419  11.427   5.575  0.00  0.00    -0.274 OA
BRANCH  19  22
HETATM   22  C   UNK N   1      22.726  10.135   5.882  0.00  0.00     0.133 C 
BRANCH  22  23
HETATM   23  C   UNK N   1      23.896  10.861   6.533  0.00  0.00     0.102 C 
BRANCH  23  24
HETATM   24  S   UNK N   1      23.485  12.610   6.840  0.00  0.00    -0.090 SA
BRANCH  24  25
HETATM   25  C   UNK N   1      23.838  12.560   8.604  0.00  0.00     0.193 C 
HETATM   26  O   UNK N   1      24.655  13.331   9.085  0.00  0.00    -0.285 OA
BRANCH  25  27
HETATM   27  C   UNK N   1      23.245  11.476   9.448  0.00  0.00     0.168 C 
BRANCH  27  28
HETATM   28  C   UNK N   1      22.601  11.987  10.703  0.00  0.00     0.130 C 
HETATM   29  C   UNK N   1      21.235  12.589  10.668  0.00  0.00     0.091 C 
HETATM   30  O   UNK N   1      23.224  11.972  11.750  0.00  0.00    -0.298 OA
ENDBRANCH  27  28
ENDBRANCH  25  27
ENDBRANCH  24  25
ENDBRANCH  23  24
ENDBRANCH  22  23
ENDBRANCH  19  22
ENDBRANCH  17  18
ENDBRANCH  16  17
ENDBRANCH  13  16
ENDBRANCH  11  12
BRANCH  11  31
HETATM   31  O   UNK N   1      18.090  13.902   1.255  0.00  0.00    -0.385 OA
HETATM   32  H   UNK N   1      17.832  14.822   1.088  0.00  0.00     0.210 HD
ENDBRANCH  11  31
ENDBRANCH   8  11
ENDBRANCH   7   8
ENDBRANCH   6   7
ENDBRANCH   4   6
BRANCH   4  33
HETATM   33  O   UNK N   1      17.926  13.625   4.778  0.00  0.00    -0.307 OA
HETATM   34  H   UNK N   1      16.975  13.644   4.967  0.00  0.00     0.222 HD
ENDBRANCH   4  33
ENDBRANCH   3   4
ENDBRANCH   2   3
BRANCH   2  35
HETATM   35  O   UNK N   1      20.989  17.627   7.158  0.00  0.00    -0.294 OA
BRANCH  35  36
HETATM   36  C   UNK N   1      21.064  17.971   5.803  0.00  0.00     0.215 C 
BRANCH  36  37
HETATM   37  C   UNK N   1      22.517  18.216   5.330  0.00  0.00     0.180 C 
HETATM   38  O   UNK N   1      23.414  17.309   5.948  0.00  0.00    -0.353 OA
HETATM   39  C   UNK N   1      23.908  16.457   4.932  0.00  0.00     0.262 C 
HETATM   40  C   UNK N   1      23.019  16.643   3.711  0.00  0.00     0.199 C 
HETATM   41  C   UNK N   1      22.706  18.096   3.821  0.00  0.00     0.197 C 
BRANCH  39  42
HETATM   42  N   UNK N   1      25.346  16.710   4.737  0.00  0.00    -0.297 N 
HETATM   43  C   UNK N   1      26.096  17.812   4.931  0.00  0.00     0.142 A 
HETATM   44  C   UNK N   1      27.388  17.521   4.677  0.00  0.00     0.122 A 
HETATM   45  N   UNK N   1      25.701  19.043   5.326  0.00  0.00    -0.336 N 
HETATM   46  C   UNK N   1      28.364  18.497   4.817  0.00  0.00     0.131 A 
HETATM   47  N   UNK N   1      27.505  16.233   4.318  0.00  0.00    -0.346 N 
HETATM   48  N   UNK N   1      27.972  19.746   5.205  0.00  0.00    -0.337 N 
HETATM   49  C   UNK N   1      26.651  20.021   5.456  0.00  0.00     0.183 A 
ATOM     50  HN  UNK N   1      28.668  20.483   5.308  1.00  0.00     0.168 HD
HETATM   51  C   UNK N   1      26.231  15.751   4.365  0.00  0.00     0.188 A 
ATOM     52  HN  UNK N   1      28.356  15.729   4.067  1.00  0.00     0.167 HD
ATOM     53  HN  UNK N   1      24.719  19.238   5.522  1.00  0.00     0.168 HD
BRANCH  46  54
HETATM   54  N   UNK N   1      29.724  18.214   4.578  0.00  0.00    -0.383 N 
HETATM   55  H   UNK N   1      30.388  18.343   5.292  0.00  0.00     0.157 HD
HETATM   56  H   UNK N   1      30.009  17.888   3.693  0.00  0.00     0.157 HD
ENDBRANCH  46  54
ENDBRANCH  39  42
BRANCH  40  57
HETATM   57  O   UNK N   1      23.642  16.300   2.510  0.00  0.00    -0.388 OA
HETATM   58  H   UNK N   1      24.541  16.203   2.156  0.00  0.00     0.210 HD
ENDBRANCH  40  57
BRANCH  41  59
HETATM   59  O   UNK N   1      21.556  18.456   3.110  0.00  0.00    -0.286 OA
BRANCH  59  60
HETATM   60  P   UNK N   1      21.701  20.141   2.671  0.00  0.00     0.391 P 
HETATM   61  O   UNK N   1      21.512  20.269   1.136  0.00  0.00    -0.632 OA
BRANCH  60  62
HETATM   62  O   UNK N   1      23.298  20.699   3.042  0.00  0.00    -0.307 OA
HETATM   63  H   UNK N   1      23.842  20.762   3.843  0.00  0.00     0.222 HD
ENDBRANCH  60  62
BRANCH  60  64
HETATM   64  O   UNK N   1      20.555  21.200   3.424  0.00  0.00    -0.307 OA
HETATM   65  H   UNK N   1      20.781  21.869   4.089  0.00  0.00     0.222 HD
ENDBRANCH  60  64
ENDBRANCH  59  60
ENDBRANCH  41  59
ENDBRANCH  36  37
ENDBRANCH  35  36
ENDBRANCH   2  35
BRANCH   2  66
HETATM   66  O   UNK N   1      21.008  15.576   8.334  0.00  0.00    -0.307 OA
HETATM   67  H   UNK N   1      21.094  15.335   9.269  0.00  0.00     0.222 HD
ENDBRANCH   2  66
TORSDOF 29
ENDMDL
MODEL 5
REMARK VINA RESULT:      -6.7      6.909     10.951
REMARK  29 active torsions:
REMARK  status: ('A' for Active; 'I' for Inactive)
REMARK    1  A    between atoms: C_1  and  N_38 
REMARK    2  A    between atoms: C_3  and  O_6 
REMARK    3  A    between atoms: C_4  and  C_32 
REMARK    4  A    between atoms: C_5  and  O_33 
REMARK    5  A    between atoms: N_9  and  C_7 
REMARK    6  A    between atoms: C_7  and  C_8 
REMARK    7  A    between atoms: C_8  and  S_51 
REMARK       I    between atoms: C_10  and  N_9 
REMARK    8  A    between atoms: C_13  and  C_10 
REMARK    9  A    between atoms: C_12  and  N_14 
REMARK   10  A    between atoms: C_13  and  C_12 
REMARK       I    between atoms: C_16  and  N_14 
REMARK   11  A    between atoms: C_16  and  C_21 
REMARK   12  A    between atoms: C_19  and  C_17 
REMARK   13  A    between atoms: C_17  and  O_23 
REMARK   14  A    between atoms: C_21  and  C_19 
REMARK   15  A    between atoms: C_21  and  O_22 
REMARK   16  A    between atoms: O_23  and  P_30 
REMARK   17  A    between atoms: P_30  and  O_24 
REMARK   18  A    between atoms: O_24  and  P_31 
REMARK   19  A    between atoms: P_31  and  O_25 
REMARK   20  A    between atoms: C_32  and  O_25 
REMARK   21  A    between atoms: P_30  and  O_27 
REMARK   22  A    between atoms: P_31  and  O_29 
REMARK   23  A    between atoms: O_33  and  P_36 
REMARK   24  A    between atoms: P_36  and  O_34 
REMARK   25  A    between atoms: P_36  and  O_35 
REMARK   26  A    between atoms: N_50  and  C_46 
REMARK   27  A    between atoms: S_51  and  C_54 
REMARK   28  A    between atoms: C_54  and  C_52 
REMARK   29  A    between atoms: C_52  and  C_56 
ROOT
HETATM    1  O   UNK N   1      20.943  18.875   4.809  0.00  0.00    -0.631 OA
HETATM    2  P   UNK N   1      21.883  17.694   4.446  0.00  0.00     0.401 P 
ENDROOT
BRANCH   2   3
HETATM    3  O   UNK N   1      21.706  16.980   2.875  0.00  0.00    -0.195 OA
BRANCH   3   4
HETATM    4  P   UNK N   1      20.026  16.604   2.583  0.00  0.00     0.401 P 
HETATM    5  O   UNK N   1      19.965  16.761   1.042  0.00  0.00    -0.631 OA
BRANCH   4   6
HETATM    6  O   UNK N   1      19.421  14.967   2.771  0.00  0.00    -0.296 OA
BRANCH   6   7
HETATM    7  C   UNK N   1      20.487  14.062   2.927  0.00  0.00     0.192 C 
BRANCH   7   8
HETATM    8  C   UNK N   1      20.362  12.862   1.942  0.00  0.00     0.009 C 
HETATM    9  C   UNK N   1      19.814  11.621   2.648  0.00  0.00     0.020 C 
HETATM   10  C   UNK N   1      19.346  13.252   0.885  0.00  0.00     0.020 C 
BRANCH   8  11
HETATM   11  C   UNK N   1      21.684  12.517   1.202  0.00  0.00     0.219 C 
BRANCH  11  12
HETATM   12  C   UNK N   1      22.696  13.628   1.151  0.00  0.00     0.247 C 
HETATM   13  N   UNK N   1      23.810  13.514   1.917  0.00  0.00    -0.358 N 
HETATM   14  H   UNK N   1      23.865  12.701   2.472  0.00  0.00     0.162 HD
HETATM   15  O   UNK N   1      22.499  14.618   0.462  0.00  0.00    -0.271 OA
BRANCH  13  16
HETATM   16  C   UNK N   1      24.931  14.428   2.027  0.00  0.00     0.132 C 
BRANCH  16  17
HETATM   17  C   UNK N   1      25.868  14.254   3.208  0.00  0.00     0.122 C 
BRANCH  17  18
HETATM   18  C   UNK N   1      27.127  15.048   3.016  0.00  0.00     0.219 C 
HETATM   19  N   UNK N   1      27.520  16.008   3.896  0.00  0.00    -0.360 N 
HETATM   20  H   UNK N   1      28.359  16.491   3.717  0.00  0.00     0.162 HD
HETATM   21  O   UNK N   1      27.828  14.804   2.050  0.00  0.00    -0.274 OA
BRANCH  19  22
HETATM   22  C   UNK N   1      26.770  16.353   5.081  0.00  0.00     0.133 C 
BRANCH  22  23
HETATM   23  C   UNK N   1      27.285  17.652   5.686  0.00  0.00     0.102 C 
BRANCH  23  24
HETATM   24  S   UNK N   1      27.919  18.766   4.390  0.00  0.00    -0.090 SA
BRANCH  24  25
HETATM   25  C   UNK N   1      26.787  20.116   4.758  0.00  0.00     0.193 C 
HETATM   26  O   UNK N   1      27.188  21.104   5.354  0.00  0.00    -0.285 OA
BRANCH  25  27
HETATM   27  C   UNK N   1      25.327  19.958   4.470  0.00  0.00     0.168 C 
BRANCH  27  28
HETATM   28  C   UNK N   1      24.920  20.526   3.143  0.00  0.00     0.130 C 
HETATM   29  C   UNK N   1      23.479  20.607   2.757  0.00  0.00     0.091 C 
HETATM   30  O   UNK N   1      25.776  20.864   2.344  0.00  0.00    -0.298 OA
ENDBRANCH  27  28
ENDBRANCH  25  27
ENDBRANCH  24  25
ENDBRANCH  23  24
ENDBRANCH  22  23
ENDBRANCH  19  22
ENDBRANCH  17  18
ENDBRANCH  16  17
ENDBRANCH  13  16
ENDBRANCH  11  12
BRANCH  11  31
HETATM   31  O   UNK N   1      22.253  11.346   1.725  0.00  0.00    -0.385 OA
HETATM   32  H   UNK N   1      22.920  11.403   2.427  0.00  0.00     0.210 HD
ENDBRANCH  11  31
ENDBRANCH   8  11
ENDBRANCH   7   8
ENDBRANCH   6   7
ENDBRANCH   4   6
BRANCH   4  33
HETATM   33  O   UNK N   1      18.985  17.886   3.101  0.00  0.00    -0.307 OA
HETATM   34  H   UNK N   1      19.088  18.835   2.934  0.00  0.00     0.222 HD
ENDBRANCH   4  33
ENDBRANCH   3   4
ENDBRANCH   2   3
BRANCH   2  35
HETATM   35  O   UNK N   1      22.777  16.971   5.756  0.00  0.00    -0.294 OA
BRANCH  35  36
HETATM   36  C   UNK N   1      23.066  15.660   5.358  0.00  0.00     0.215 C 
BRANCH  36  37
HETATM   37  C   UNK N   1      23.192  14.688   6.555  0.00  0.00     0.180 C 
HETATM   38  O   UNK N   1      22.407  15.126   7.652  0.00  0.00    -0.353 OA
HETATM   39  C   UNK N   1      21.368  14.180   7.820  0.00  0.00     0.262 C 
HETATM   40  C   UNK N   1      21.330  13.318   6.567  0.00  0.00     0.199 C 
HETATM   41  C   UNK N   1      22.781  13.255   6.236  0.00  0.00     0.197 C 
BRANCH  39  42
HETATM   42  N   UNK N   1      21.556  13.469   9.096  0.00  0.00    -0.297 N 
HETATM   43  C   UNK N   1      22.667  13.081   9.751  0.00  0.00     0.142 A 
HETATM   44  C   UNK N   1      22.319  12.521  10.927  0.00  0.00     0.122 A 
HETATM   45  N   UNK N   1      23.957  13.205   9.369  0.00  0.00    -0.336 N 
HETATM   46  C   UNK N   1      23.294  12.049  11.792  0.00  0.00     0.131 A 
HETATM   47  N   UNK N   1      20.983  12.536  11.063  0.00  0.00    -0.346 N 
HETATM   48  N   UNK N   1      24.600  12.161  11.409  0.00  0.00    -0.337 N 
HETATM   49  C   UNK N   1      24.933  12.732  10.206  0.00  0.00     0.183 A 
ATOM     50  HN  UNK N   1      25.337  11.815  12.023  1.00  0.00     0.168 HD
HETATM   51  C   UNK N   1      20.533  13.128   9.921  0.00  0.00     0.188 A 
ATOM     52  HN  UNK N   1      20.430  12.183  11.844  1.00  0.00     0.167 HD
ATOM     53  HN  UNK N   1      24.199  13.641   8.479  1.00  0.00     0.168 HD
BRANCH  46  54
HETATM   54  N   UNK N   1      22.958  11.479  13.036  0.00  0.00    -0.383 N 
HETATM   55  H   UNK N   1      23.314  10.596  13.287  0.00  0.00     0.157 HD
HETATM   56  H   UNK N   1      22.365  11.964  13.655  0.00  0.00     0.157 HD
ENDBRANCH  46  54
ENDBRANCH  39  42
BRANCH  40  57
HETATM   57  O   UNK N   1      20.751  12.064   6.770  0.00  0.00    -0.388 OA
HETATM   58  H   UNK N   1      19.936  11.591   6.540  0.00  0.00     0.210 HD
ENDBRANCH  40  57
BRANCH  41  59
HETATM   59  O   UNK N   1      23.016  12.919   4.898  0.00  0.00    -0.286 OA
BRANCH  59  60
HETATM   60  P   UNK N   1      23.517  11.246   4.844  0.00  0.00     0.391 P 
HETATM   61  O   UNK N   1      24.294  10.921   6.148  0.00  0.00    -0.632 OA
BRANCH  60  62
HETATM   62  O   UNK N   1      24.612  11.014   3.522  0.00  0.00    -0.307 OA
HETATM   63  H   UNK N   1      24.910  10.258   2.993  0.00  0.00     0.222 HD
ENDBRANCH  60  62
BRANCH  60  64
HETATM   64  O   UNK N   1      22.230  10.095   4.707  0.00  0.00    -0.307 OA
HETATM   65  H   UNK N   1      21.994   9.454   5.395  0.00  0.00     0.222 HD
ENDBRANCH  60  64
ENDBRANCH  59  60
ENDBRANCH  41  59
ENDBRANCH  36  37
ENDBRANCH  35  36
ENDBRANCH   2  35
BRANCH   2  66
HETATM   66  O   UNK N   1      20.602  16.622   4.899  0.00  0.00    -0.307 OA
HETATM   67  H   UNK N   1      20.479  15.713   5.213  0.00  0.00     0.222 HD
ENDBRANCH   2  66
TORSDOF 29
ENDMDL
MODEL 6
REMARK VINA RESULT:      -6.6      3.261      5.234
REMARK  29 active torsions:
REMARK  status: ('A' for Active; 'I' for Inactive)
REMARK    1  A    between atoms: C_1  and  N_38 
REMARK    2  A    between atoms: C_3  and  O_6 
REMARK    3  A    between atoms: C_4  and  C_32 
REMARK    4  A    between atoms: C_5  and  O_33 
REMARK    5  A    between atoms: N_9  and  C_7 
REMARK    6  A    between atoms: C_7  and  C_8 
REMARK    7  A    between atoms: C_8  and  S_51 
REMARK       I    between atoms: C_10  and  N_9 
REMARK    8  A    between atoms: C_13  and  C_10 
REMARK    9  A    between atoms: C_12  and  N_14 
REMARK   10  A    between atoms: C_13  and  C_12 
REMARK       I    between atoms: C_16  and  N_14 
REMARK   11  A    between atoms: C_16  and  C_21 
REMARK   12  A    between atoms: C_19  and  C_17 
REMARK   13  A    between atoms: C_17  and  O_23 
REMARK   14  A    between atoms: C_21  and  C_19 
REMARK   15  A    between atoms: C_21  and  O_22 
REMARK   16  A    between atoms: O_23  and  P_30 
REMARK   17  A    between atoms: P_30  and  O_24 
REMARK   18  A    between atoms: O_24  and  P_31 
REMARK   19  A    between atoms: P_31  and  O_25 
REMARK   20  A    between atoms: C_32  and  O_25 
REMARK   21  A    between atoms: P_30  and  O_27 
REMARK   22  A    between atoms: P_31  and  O_29 
REMARK   23  A    between atoms: O_33  and  P_36 
REMARK   24  A    between atoms: P_36  and  O_34 
REMARK   25  A    between atoms: P_36  and  O_35 
REMARK   26  A    between atoms: N_50  and  C_46 
REMARK   27  A    between atoms: S_51  and  C_54 
REMARK   28  A    between atoms: C_54  and  C_52 
REMARK   29  A    between atoms: C_52  and  C_56 
ROOT
HETATM    1  O   UNK N   1      31.420  12.560   4.625  0.00  0.00    -0.631 OA
HETATM    2  P   UNK N   1      32.048  13.962   4.402  0.00  0.00     0.401 P 
ENDROOT
BRANCH   2   3
HETATM    3  O   UNK N   1      33.718  14.168   4.821  0.00  0.00    -0.195 OA
BRANCH   3   4
HETATM    4  P   UNK N   1      34.042  13.401   6.355  0.00  0.00     0.401 P 
HETATM    5  O   UNK N   1      35.568  13.151   6.230  0.00  0.00    -0.631 OA
BRANCH   4   6
HETATM    6  O   UNK N   1      33.981  14.314   7.852  0.00  0.00    -0.296 OA
BRANCH   6   7
HETATM    7  C   UNK N   1      34.847  15.422   7.790  0.00  0.00     0.192 C 
BRANCH   7   8
HETATM    8  C   UNK N   1      34.215  16.675   8.467  0.00  0.00     0.009 C 
HETATM    9  C   UNK N   1      34.308  17.900   7.558  0.00  0.00     0.020 C 
HETATM   10  C   UNK N   1      32.739  16.383   8.665  0.00  0.00     0.020 C 
BRANCH   8  11
HETATM   11  C   UNK N   1      34.810  16.999   9.865  0.00  0.00     0.219 C 
BRANCH  11  12
HETATM   12  C   UNK N   1      35.476  15.843  10.561  0.00  0.00     0.247 C 
HETATM   13  N   UNK N   1      34.686  14.883  11.102  0.00  0.00    -0.358 N 
HETATM   14  H   UNK N   1      33.715  15.026  11.011  0.00  0.00     0.162 HD
HETATM   15  O   UNK N   1      36.693  15.794  10.659  0.00  0.00    -0.271 OA
BRANCH  13  16
HETATM   16  C   UNK N   1      35.080  13.673  11.798  0.00  0.00     0.132 C 
BRANCH  16  17
HETATM   17  C   UNK N   1      35.848  12.627  11.011  0.00  0.00     0.122 C 
BRANCH  17  18
HETATM   18  C   UNK N   1      37.184  12.357  11.641  0.00  0.00     0.219 C 
HETATM   19  N   UNK N   1      37.346  11.442  12.634  0.00  0.00    -0.360 N 
HETATM   20  H   UNK N   1      38.249  11.307  13.003  0.00  0.00     0.162 HD
HETATM   21  O   UNK N   1      38.156  12.964  11.227  0.00  0.00    -0.274 OA
BRANCH  19  22
HETATM   22  C   UNK N   1      36.260  10.658  13.174  0.00  0.00     0.133 C 
BRANCH  22  23
HETATM   23  C   UNK N   1      36.089  10.929  14.663  0.00  0.00     0.102 C 
BRANCH  23  24
HETATM   24  S   UNK N   1      36.742  12.573  15.104  0.00  0.00    -0.090 SA
BRANCH  24  25
HETATM   25  C   UNK N   1      35.273  13.105  15.997  0.00  0.00     0.193 C 
HETATM   26  O   UNK N   1      34.173  13.015  15.472  0.00  0.00    -0.285 OA
BRANCH  25  27
HETATM   27  C   UNK N   1      35.416  13.797  17.316  0.00  0.00     0.168 C 
BRANCH  27  28
HETATM   28  C   UNK N   1      35.241  12.879  18.489  0.00  0.00     0.130 C 
HETATM   29  C   UNK N   1      35.311  11.397  18.315  0.00  0.00     0.091 C 
HETATM   30  O   UNK N   1      34.972  13.343  19.584  0.00  0.00    -0.298 OA
ENDBRANCH  27  28
ENDBRANCH  25  27
ENDBRANCH  24  25
ENDBRANCH  23  24
ENDBRANCH  22  23
ENDBRANCH  19  22
ENDBRANCH  17  18
ENDBRANCH  16  17
ENDBRANCH  13  16
ENDBRANCH  11  12
BRANCH  11  31
HETATM   31  O   UNK N   1      35.673  18.103   9.792  0.00  0.00    -0.385 OA
HETATM   32  H   UNK N   1      35.439  18.865   9.239  0.00  0.00     0.210 HD
ENDBRANCH  11  31
ENDBRANCH   8  11
ENDBRANCH   7   8
ENDBRANCH   6   7
ENDBRANCH   4   6
BRANCH   4  33
HETATM   33  O   UNK N   1      33.432  11.783   6.401  0.00  0.00    -0.307 OA
HETATM   34  H   UNK N   1      33.351  11.160   5.663  0.00  0.00     0.222 HD
ENDBRANCH   4  33
ENDBRANCH   3   4
ENDBRANCH   2   3
BRANCH   2  35
HETATM   35  O   UNK N   1      30.946  15.275   4.088  0.00  0.00    -0.294 OA
BRANCH  35  36
HETATM   36  C   UNK N   1      30.338  15.578   5.313  0.00  0.00     0.215 C 
BRANCH  36  37
HETATM   37  C   UNK N   1      29.178  16.592   5.167  0.00  0.00     0.180 C 
HETATM   38  O   UNK N   1      28.209  16.129   4.241  0.00  0.00    -0.353 OA
HETATM   39  C   UNK N   1      27.030  15.861   4.975  0.00  0.00     0.262 C 
HETATM   40  C   UNK N   1      27.406  15.843   6.450  0.00  0.00     0.199 C 
HETATM   41  C   UNK N   1      28.456  16.899   6.475  0.00  0.00     0.197 C 
BRANCH  39  42
HETATM   42  N   UNK N   1      25.980  16.816   4.580  0.00  0.00    -0.297 N 
HETATM   43  C   UNK N   1      26.045  18.085   4.135  0.00  0.00     0.142 A 
HETATM   44  C   UNK N   1      24.803  18.516   3.836  0.00  0.00     0.122 A 
HETATM   45  N   UNK N   1      27.135  18.868   3.974  0.00  0.00    -0.336 N 
HETATM   46  C   UNK N   1      24.608  19.799   3.346  0.00  0.00     0.131 A 
HETATM   47  N   UNK N   1      23.911  17.543   4.076  0.00  0.00    -0.346 N 
HETATM   48  N   UNK N   1      25.703  20.599   3.190  0.00  0.00    -0.337 N 
HETATM   49  C   UNK N   1      26.958  20.142   3.502  0.00  0.00     0.183 A 
ATOM     50  HN  UNK N   1      25.587  21.549   2.837  1.00  0.00     0.168 HD
HETATM   51  C   UNK N   1      24.661  16.500   4.532  0.00  0.00     0.188 A 
ATOM     52  HN  UNK N   1      22.899  17.575   3.946  1.00  0.00     0.167 HD
ATOM     53  HN  UNK N   1      28.067  18.517   4.197  1.00  0.00     0.168 HD
BRANCH  46  54
HETATM   54  N   UNK N   1      23.323  20.267   3.006  0.00  0.00    -0.383 N 
HETATM   55  H   UNK N   1      23.077  20.393   2.062  0.00  0.00     0.157 HD
HETATM   56  H   UNK N   1      22.671  20.470   3.716  0.00  0.00     0.157 HD
ENDBRANCH  46  54
ENDBRANCH  39  42
BRANCH  40  57
HETATM   57  O   UNK N   1      26.332  16.108   7.302  0.00  0.00    -0.388 OA
HETATM   58  H   UNK N   1      25.704  15.619   7.857  0.00  0.00     0.210 HD
ENDBRANCH  40  57
BRANCH  41  59
HETATM   59  O   UNK N   1      29.300  16.796   7.586  0.00  0.00    -0.286 OA
BRANCH  59  60
HETATM   60  P   UNK N   1      28.885  18.078   8.699  0.00  0.00     0.391 P 
HETATM   61  O   UNK N   1      28.857  19.419   7.917  0.00  0.00    -0.632 OA
BRANCH  60  62
HETATM   62  O   UNK N   1      30.117  18.213   9.909  0.00  0.00    -0.307 OA
HETATM   63  H   UNK N   1      31.086  18.243   9.911  0.00  0.00     0.222 HD
ENDBRANCH  60  62
BRANCH  60  64
HETATM   64  O   UNK N   1      27.351  17.904   9.484  0.00  0.00    -0.307 OA
HETATM   65  H   UNK N   1      27.238  17.700  10.426  0.00  0.00     0.222 HD
ENDBRANCH  60  64
ENDBRANCH  59  60
ENDBRANCH  41  59
ENDBRANCH  36  37
ENDBRANCH  35  36
ENDBRANCH   2  35
BRANCH   2  66
HETATM   66  O   UNK N   1      31.756  14.286   6.076  0.00  0.00    -0.307 OA
HETATM   67  H   UNK N   1      31.386  13.846   6.858  0.00  0.00     0.222 HD
ENDBRANCH   2  66
TORSDOF 29
ENDMDL
MODEL 7
REMARK VINA RESULT:      -6.6      1.858      3.005
REMARK  29 active torsions:
REMARK  status: ('A' for Active; 'I' for Inactive)
REMARK    1  A    between atoms: C_1  and  N_38 
REMARK    2  A    between atoms: C_3  and  O_6 
REMARK    3  A    between atoms: C_4  and  C_32 
REMARK    4  A    between atoms: C_5  and  O_33 
REMARK    5  A    between atoms: N_9  and  C_7 
REMARK    6  A    between atoms: C_7  and  C_8 
REMARK    7  A    between atoms: C_8  and  S_51 
REMARK       I    between atoms: C_10  and  N_9 
REMARK    8  A    between atoms: C_13  and  C_10 
REMARK    9  A    between atoms: C_12  and  N_14 
REMARK   10  A    between atoms: C_13  and  C_12 
REMARK       I    between atoms: C_16  and  N_14 
REMARK   11  A    between atoms: C_16  and  C_21 
REMARK   12  A    between atoms: C_19  and  C_17 
REMARK   13  A    between atoms: C_17  and  O_23 
REMARK   14  A    between atoms: C_21  and  C_19 
REMARK   15  A    between atoms: C_21  and  O_22 
REMARK   16  A    between atoms: O_23  and  P_30 
REMARK   17  A    between atoms: P_30  and  O_24 
REMARK   18  A    between atoms: O_24  and  P_31 
REMARK   19  A    between atoms: P_31  and  O_25 
REMARK   20  A    between atoms: C_32  and  O_25 
REMARK   21  A    between atoms: P_30  and  O_27 
REMARK   22  A    between atoms: P_31  and  O_29 
REMARK   23  A    between atoms: O_33  and  P_36 
REMARK   24  A    between atoms: P_36  and  O_34 
REMARK   25  A    between atoms: P_36  and  O_35 
REMARK   26  A    between atoms: N_50  and  C_46 
REMARK   27  A    between atoms: S_51  and  C_54 
REMARK   28  A    between atoms: C_54  and  C_52 
REMARK   29  A    between atoms: C_52  and  C_56 
ROOT
HETATM    1  O   UNK N   1      28.009  13.003   1.918  0.00  0.00    -0.631 OA
HETATM    2  P   UNK N   1      28.446  14.335   2.586  0.00  0.00     0.401 P 
ENDROOT
BRANCH   2   3
HETATM    3  O   UNK N   1      29.903  14.320   3.526  0.00  0.00    -0.195 OA
BRANCH   3   4
HETATM    4  P   UNK N   1      30.295  15.944   4.034  0.00  0.00     0.401 P 
HETATM    5  O   UNK N   1      29.219  16.164   5.130  0.00  0.00    -0.631 OA
BRANCH   4   6
HETATM    6  O   UNK N   1      31.760  16.278   4.941  0.00  0.00    -0.296 OA
BRANCH   6   7
HETATM    7  C   UNK N   1      31.543  17.320   5.862  0.00  0.00     0.192 C 
BRANCH   7   8
HETATM    8  C   UNK N   1      32.391  17.120   7.154  0.00  0.00     0.009 C 
HETATM    9  C   UNK N   1      31.770  17.856   8.342  0.00  0.00     0.020 C 
HETATM   10  C   UNK N   1      32.362  15.640   7.488  0.00  0.00     0.020 C 
BRANCH   8  11
HETATM   11  C   UNK N   1      33.882  17.525   6.994  0.00  0.00     0.219 C 
BRANCH  11  12
HETATM   12  C   UNK N   1      34.587  17.888   8.273  0.00  0.00     0.247 C 
HETATM   13  N   UNK N   1      34.691  16.938   9.236  0.00  0.00    -0.358 N 
HETATM   14  H   UNK N   1      34.274  16.070   9.027  0.00  0.00     0.162 HD
HETATM   15  O   UNK N   1      35.023  19.016   8.444  0.00  0.00    -0.271 OA
BRANCH  13  16
HETATM   16  C   UNK N   1      35.334  17.031  10.533  0.00  0.00     0.132 C 
BRANCH  16  17
HETATM   17  C   UNK N   1      36.001  15.782  11.079  0.00  0.00     0.122 C 
BRANCH  17  18
HETATM   18  C   UNK N   1      34.987  14.708  11.350  0.00  0.00     0.219 C 
HETATM   19  N   UNK N   1      35.340  13.478  11.810  0.00  0.00    -0.360 N 
HETATM   20  H   UNK N   1      34.629  12.818  11.974  0.00  0.00     0.162 HD
HETATM   21  O   UNK N   1      33.809  14.961  11.174  0.00  0.00    -0.274 OA
BRANCH  19  22
HETATM   22  C   UNK N   1      36.707  13.091  12.072  0.00  0.00     0.133 C 
BRANCH  22  23
HETATM   23  C   UNK N   1      36.784  12.167  13.280  0.00  0.00     0.102 C 
BRANCH  23  24
HETATM   24  S   UNK N   1      35.651  10.752  13.089  0.00  0.00    -0.090 SA
BRANCH  24  25
HETATM   25  C   UNK N   1      34.955  10.869  14.745  0.00  0.00     0.193 C 
HETATM   26  O   UNK N   1      33.746  10.962  14.894  0.00  0.00    -0.285 OA
BRANCH  25  27
HETATM   27  C   UNK N   1      35.866  11.005  15.925  0.00  0.00     0.168 C 
BRANCH  27  28
HETATM   28  C   UNK N   1      35.276  11.817  17.039  0.00  0.00     0.130 C 
HETATM   29  C   UNK N   1      34.895  13.245  16.823  0.00  0.00     0.091 C 
HETATM   30  O   UNK N   1      35.166  11.327  18.150  0.00  0.00    -0.298 OA
ENDBRANCH  27  28
ENDBRANCH  25  27
ENDBRANCH  24  25
ENDBRANCH  23  24
ENDBRANCH  22  23
ENDBRANCH  19  22
ENDBRANCH  17  18
ENDBRANCH  16  17
ENDBRANCH  13  16
ENDBRANCH  11  12
BRANCH  11  31
HETATM   31  O   UNK N   1      34.591  16.537   6.295  0.00  0.00    -0.385 OA
HETATM   32  H   UNK N   1      35.120  15.884   6.781  0.00  0.00     0.210 HD
ENDBRANCH  11  31
ENDBRANCH   8  11
ENDBRANCH   7   8
ENDBRANCH   6   7
ENDBRANCH   4   6
BRANCH   4  33
HETATM   33  O   UNK N   1      29.825  17.115   2.851  0.00  0.00    -0.307 OA
HETATM   34  H   UNK N   1      29.607  16.959   1.919  0.00  0.00     0.222 HD
ENDBRANCH   4  33
ENDBRANCH   3   4
ENDBRANCH   2   3
BRANCH   2  35
HETATM   35  O   UNK N   1      27.266  15.617   2.624  0.00  0.00    -0.294 OA
BRANCH  35  36
HETATM   36  C   UNK N   1      26.230  15.172   3.454  0.00  0.00     0.215 C 
BRANCH  36  37
HETATM   37  C   UNK N   1      24.955  16.040   3.332  0.00  0.00     0.180 C 
HETATM   38  O   UNK N   1      23.846  15.261   2.911  0.00  0.00    -0.353 OA
HETATM   39  C   UNK N   1      22.937  15.217   3.993  0.00  0.00     0.262 C 
HETATM   40  C   UNK N   1      23.676  15.707   5.229  0.00  0.00     0.199 C 
HETATM   41  C   UNK N   1      24.559  16.745   4.626  0.00  0.00     0.197 C 
BRANCH  39  42
HETATM   42  N   UNK N   1      21.711  15.949   3.632  0.00  0.00    -0.297 N 
HETATM   43  C   UNK N   1      21.480  17.258   3.416  0.00  0.00     0.142 A 
HETATM   44  C   UNK N   1      20.196  17.427   3.037  0.00  0.00     0.122 A 
HETATM   45  N   UNK N   1      22.338  18.296   3.525  0.00  0.00    -0.336 N 
HETATM   46  C   UNK N   1      19.715  18.695   2.745  0.00  0.00     0.131 A 
HETATM   47  N   UNK N   1      19.571  16.240   2.997  0.00  0.00    -0.346 N 
HETATM   48  N   UNK N   1      20.574  19.750   2.864  0.00  0.00    -0.337 N 
HETATM   49  C   UNK N   1      21.876  19.556   3.253  0.00  0.00     0.183 A 
ATOM     50  HN  UNK N   1      20.244  20.693   2.662  1.00  0.00     0.168 HD
HETATM   51  C   UNK N   1      20.527  15.341   3.366  0.00  0.00     0.188 A 
ATOM     52  HN  UNK N   1      18.600  16.053   2.747  1.00  0.00     0.167 HD
ATOM     53  HN  UNK N   1      23.308  18.143   3.803  1.00  0.00     0.168 HD
BRANCH  46  54
HETATM   54  N   UNK N   1      18.384  18.896   2.328  0.00  0.00    -0.383 N 
HETATM   55  H   UNK N   1      17.646  18.450   2.801  0.00  0.00     0.157 HD
HETATM   56  H   UNK N   1      18.194  19.485   1.561  0.00  0.00     0.157 HD
ENDBRANCH  46  54
ENDBRANCH  39  42
BRANCH  40  57
HETATM   57  O   UNK N   1      22.832  16.207   6.222  0.00  0.00    -0.388 OA
HETATM   58  H   UNK N   1      22.879  16.798   6.991  0.00  0.00     0.210 HD
ENDBRANCH  40  57
BRANCH  41  59
HETATM   59  O   UNK N   1      25.664  17.048   5.427  0.00  0.00    -0.286 OA
BRANCH  59  60
HETATM   60  P   UNK N   1      26.224  18.644   4.991  0.00  0.00     0.391 P 
HETATM   61  O   UNK N   1      25.087  19.372   4.225  0.00  0.00    -0.632 OA
BRANCH  60  62
HETATM   62  O   UNK N   1      27.569  18.508   3.910  0.00  0.00    -0.307 OA
HETATM   63  H   UNK N   1      28.296  17.878   3.782  0.00  0.00     0.222 HD
ENDBRANCH  60  62
BRANCH  60  64
HETATM   64  O   UNK N   1      26.681  19.654   6.322  0.00  0.00    -0.307 OA
HETATM   65  H   UNK N   1      26.259  20.500   6.537  0.00  0.00     0.222 HD
ENDBRANCH  60  64
ENDBRANCH  59  60
ENDBRANCH  41  59
ENDBRANCH  36  37
ENDBRANCH  35  36
ENDBRANCH   2  35
BRANCH   2  66
HETATM   66  O   UNK N   1      27.695  13.774   4.041  0.00  0.00    -0.307 OA
HETATM   67  H   UNK N   1      27.945  13.455   4.922  0.00  0.00     0.222 HD
ENDBRANCH   2  66
TORSDOF 29
ENDMDL
MODEL 8
REMARK VINA RESULT:      -6.6      4.122      7.801
REMARK  29 active torsions:
REMARK  status: ('A' for Active; 'I' for Inactive)
REMARK    1  A    between atoms: C_1  and  N_38 
REMARK    2  A    between atoms: C_3  and  O_6 
REMARK    3  A    between atoms: C_4  and  C_32 
REMARK    4  A    between atoms: C_5  and  O_33 
REMARK    5  A    between atoms: N_9  and  C_7 
REMARK    6  A    between atoms: C_7  and  C_8 
REMARK    7  A    between atoms: C_8  and  S_51 
REMARK       I    between atoms: C_10  and  N_9 
REMARK    8  A    between atoms: C_13  and  C_10 
REMARK    9  A    between atoms: C_12  and  N_14 
REMARK   10  A    between atoms: C_13  and  C_12 
REMARK       I    between atoms: C_16  and  N_14 
REMARK   11  A    between atoms: C_16  and  C_21 
REMARK   12  A    between atoms: C_19  and  C_17 
REMARK   13  A    between atoms: C_17  and  O_23 
REMARK   14  A    between atoms: C_21  and  C_19 
REMARK   15  A    between atoms: C_21  and  O_22 
REMARK   16  A    between atoms: O_23  and  P_30 
REMARK   17  A    between atoms: P_30  and  O_24 
REMARK   18  A    between atoms: O_24  and  P_31 
REMARK   19  A    between atoms: P_31  and  O_25 
REMARK   20  A    between atoms: C_32  and  O_25 
REMARK   21  A    between atoms: P_30  and  O_27 
REMARK   22  A    between atoms: P_31  and  O_29 
REMARK   23  A    between atoms: O_33  and  P_36 
REMARK   24  A    between atoms: P_36  and  O_34 
REMARK   25  A    between atoms: P_36  and  O_35 
REMARK   26  A    between atoms: N_50  and  C_46 
REMARK   27  A    between atoms: S_51  and  C_54 
REMARK   28  A    between atoms: C_54  and  C_52 
REMARK   29  A    between atoms: C_52  and  C_56 
ROOT
HETATM    1  O   UNK N   1      19.074  17.509   3.537  0.00  0.00    -0.631 OA
HETATM    2  P   UNK N   1      20.332  17.590   2.630  0.00  0.00     0.401 P 
ENDROOT
BRANCH   2   3
HETATM    3  O   UNK N   1      20.678  19.111   1.873  0.00  0.00    -0.195 OA
BRANCH   3   4
HETATM    4  P   UNK N   1      21.601  20.117   2.960  0.00  0.00     0.401 P 
HETATM    5  O   UNK N   1      20.629  20.196   4.166  0.00  0.00    -0.631 OA
BRANCH   4   6
HETATM    6  O   UNK N   1      23.048  19.508   3.745  0.00  0.00    -0.296 OA
BRANCH   6   7
HETATM    7  C   UNK N   1      24.201  19.994   3.100  0.00  0.00     0.192 C 
BRANCH   7   8
HETATM    8  C   UNK N   1      25.498  19.502   3.810  0.00  0.00     0.009 C 
HETATM    9  C   UNK N   1      26.720  20.289   3.336  0.00  0.00     0.020 C 
HETATM   10  C   UNK N   1      25.337  19.790   5.291  0.00  0.00     0.020 C 
BRANCH   8  11
HETATM   11  C   UNK N   1      25.753  17.977   3.664  0.00  0.00     0.219 C 
BRANCH  11  12
HETATM   12  C   UNK N   1      26.842  17.424   4.543  0.00  0.00     0.247 C 
HETATM   13  N   UNK N   1      26.557  17.200   5.849  0.00  0.00    -0.358 N 
HETATM   14  H   UNK N   1      25.643  17.435   6.133  0.00  0.00     0.162 HD
HETATM   15  O   UNK N   1      27.959  17.217   4.092  0.00  0.00    -0.271 OA
BRANCH  13  16
HETATM   16  C   UNK N   1      27.417  16.658   6.884  0.00  0.00     0.132 C 
BRANCH  16  17
HETATM   17  C   UNK N   1      28.601  17.498   7.327  0.00  0.00     0.122 C 
BRANCH  17  18
HETATM   18  C   UNK N   1      28.732  17.494   8.823  0.00  0.00     0.219 C 
HETATM   19  N   UNK N   1      29.859  17.922   9.452  0.00  0.00    -0.360 N 
HETATM   20  H   UNK N   1      29.881  17.899  10.436  0.00  0.00     0.162 HD
HETATM   21  O   UNK N   1      27.784  17.117   9.489  0.00  0.00    -0.274 OA
BRANCH  19  22
HETATM   22  C   UNK N   1      31.023  18.408   8.751  0.00  0.00     0.133 C 
BRANCH  22  23
HETATM   23  C   UNK N   1      32.097  17.330   8.678  0.00  0.00     0.102 C 
BRANCH  23  24
HETATM   24  S   UNK N   1      33.628  17.986   7.937  0.00  0.00    -0.090 SA
BRANCH  24  25
HETATM   25  C   UNK N   1      33.753  16.724   6.661  0.00  0.00     0.193 C 
HETATM   26  O   UNK N   1      34.796  16.584   6.041  0.00  0.00    -0.285 OA
BRANCH  25  27
HETATM   27  C   UNK N   1      32.534  15.954   6.257  0.00  0.00     0.168 C 
BRANCH  27  28
HETATM   28  C   UNK N   1      32.055  16.285   4.875  0.00  0.00     0.130 C 
HETATM   29  C   UNK N   1      31.546  17.651   4.551  0.00  0.00     0.091 C 
HETATM   30  O   UNK N   1      32.018  15.412   4.024  0.00  0.00    -0.298 OA
ENDBRANCH  27  28
ENDBRANCH  25  27
ENDBRANCH  24  25
ENDBRANCH  23  24
ENDBRANCH  22  23
ENDBRANCH  19  22
ENDBRANCH  17  18
ENDBRANCH  16  17
ENDBRANCH  13  16
ENDBRANCH  11  12
BRANCH  11  31
HETATM   31  O   UNK N   1      24.562  17.257   3.833  0.00  0.00    -0.385 OA
HETATM   32  H   UNK N   1      24.092  16.907   3.059  0.00  0.00     0.210 HD
ENDBRANCH  11  31
ENDBRANCH   8  11
ENDBRANCH   7   8
ENDBRANCH   6   7
ENDBRANCH   4   6
BRANCH   4  33
HETATM   33  O   UNK N   1      21.633  21.765   2.435  0.00  0.00    -0.307 OA
HETATM   34  H   UNK N   1      22.410  22.300   2.212  0.00  0.00     0.222 HD
ENDBRANCH   4  33
ENDBRANCH   3   4
ENDBRANCH   2   3
BRANCH   2  35
HETATM   35  O   UNK N   1      21.072  16.078   2.179  0.00  0.00    -0.294 OA
BRANCH  35  36
HETATM   36  C   UNK N   1      20.755  15.167   3.195  0.00  0.00     0.215 C 
BRANCH  36  37
HETATM   37  C   UNK N   1      21.939  14.912   4.157  0.00  0.00     0.180 C 
HETATM   38  O   UNK N   1      21.522  14.988   5.511  0.00  0.00    -0.353 OA
HETATM   39  C   UNK N   1      21.636  13.687   6.053  0.00  0.00     0.262 C 
HETATM   40  C   UNK N   1      21.810  12.722   4.889  0.00  0.00     0.199 C 
HETATM   41  C   UNK N   1      22.618  13.561   3.959  0.00  0.00     0.197 C 
BRANCH  39  42
HETATM   42  N   UNK N   1      22.696  13.674   7.076  0.00  0.00    -0.297 N 
HETATM   43  C   UNK N   1      22.698  13.265   8.359  0.00  0.00     0.142 A 
HETATM   44  C   UNK N   1      23.942  13.392   8.864  0.00  0.00     0.122 A 
HETATM   45  N   UNK N   1      21.671  12.782   9.092  0.00  0.00    -0.336 N 
HETATM   46  C   UNK N   1      24.204  13.023  10.175  0.00  0.00     0.131 A 
HETATM   47  N   UNK N   1      24.770  13.880   7.927  0.00  0.00    -0.346 N 
HETATM   48  N   UNK N   1      23.169  12.545  10.926  0.00  0.00    -0.337 N 
HETATM   49  C   UNK N   1      21.910  12.425  10.392  0.00  0.00     0.183 A 
ATOM     50  HN  UNK N   1      23.332  12.273  11.895  1.00  0.00     0.168 HD
HETATM   51  C   UNK N   1      23.978  14.044   6.829  0.00  0.00     0.188 A 
ATOM     52  HN  UNK N   1      25.765  14.082   8.016  1.00  0.00     0.167 HD
ATOM     53  HN  UNK N   1      20.740  12.685   8.685  1.00  0.00     0.168 HD
BRANCH  46  54
HETATM   54  N   UNK N   1      25.499  13.126  10.722  0.00  0.00    -0.383 N 
HETATM   55  H   UNK N   1      26.170  13.705  10.294  0.00  0.00     0.157 HD
HETATM   56  H   UNK N   1      25.731  12.618  11.533  0.00  0.00     0.157 HD
ENDBRANCH  46  54
ENDBRANCH  39  42
BRANCH  40  57
HETATM   57  O   UNK N   1      22.437  11.526   5.244  0.00  0.00    -0.388 OA
HETATM   58  H   UNK N   1      23.273  11.064   5.077  0.00  0.00     0.210 HD
ENDBRANCH  40  57
BRANCH  41  59
HETATM   59  O   UNK N   1      22.549  13.119   2.633  0.00  0.00    -0.286 OA
BRANCH  59  60
HETATM   60  P   UNK N   1      24.149  13.240   1.941  0.00  0.00     0.391 P 
HETATM   61  O   UNK N   1      25.162  12.598   2.927  0.00  0.00    -0.632 OA
BRANCH  60  62
HETATM   62  O   UNK N   1      24.580  14.909   1.774  0.00  0.00    -0.307 OA
HETATM   63  H   UNK N   1      24.986  15.455   1.083  0.00  0.00     0.222 HD
ENDBRANCH  60  62
BRANCH  60  64
HETATM   64  O   UNK N   1      24.350  12.459   0.409  0.00  0.00    -0.307 OA
HETATM   65  H   UNK N   1      24.890  12.808  -0.317  0.00  0.00     0.222 HD
ENDBRANCH  60  64
ENDBRANCH  59  60
ENDBRANCH  41  59
ENDBRANCH  36  37
ENDBRANCH  35  36
ENDBRANCH   2  35
BRANCH   2  66
HETATM   66  O   UNK N   1      19.287  17.337   1.274  0.00  0.00    -0.307 OA
HETATM   67  H   UNK N   1      18.691  17.843   0.700  0.00  0.00     0.222 HD
ENDBRANCH   2  66
TORSDOF 29
ENDMDL
MODEL 9
REMARK VINA RESULT:      -6.6      5.818     10.376
REMARK  29 active torsions:
REMARK  status: ('A' for Active; 'I' for Inactive)
REMARK    1  A    between atoms: C_1  and  N_38 
REMARK    2  A    between atoms: C_3  and  O_6 
REMARK    3  A    between atoms: C_4  and  C_32 
REMARK    4  A    between atoms: C_5  and  O_33 
REMARK    5  A    between atoms: N_9  and  C_7 
REMARK    6  A    between atoms: C_7  and  C_8 
REMARK    7  A    between atoms: C_8  and  S_51 
REMARK       I    between atoms: C_10  and  N_9 
REMARK    8  A    between atoms: C_13  and  C_10 
REMARK    9  A    between atoms: C_12  and  N_14 
REMARK   10  A    between atoms: C_13  and  C_12 
REMARK       I    between atoms: C_16  and  N_14 
REMARK   11  A    between atoms: C_16  and  C_21 
REMARK   12  A    between atoms: C_19  and  C_17 
REMARK   13  A    between atoms: C_17  and  O_23 
REMARK   14  A    between atoms: C_21  and  C_19 
REMARK   15  A    between atoms: C_21  and  O_22 
REMARK   16  A    between atoms: O_23  and  P_30 
REMARK   17  A    between atoms: P_30  and  O_24 
REMARK   18  A    between atoms: O_24  and  P_31 
REMARK   19  A    between atoms: P_31  and  O_25 
REMARK   20  A    between atoms: C_32  and  O_25 
REMARK   21  A    between atoms: P_30  and  O_27 
REMARK   22  A    between atoms: P_31  and  O_29 
REMARK   23  A    between atoms: O_33  and  P_36 
REMARK   24  A    between atoms: P_36  and  O_34 
REMARK   25  A    between atoms: P_36  and  O_35 
REMARK   26  A    between atoms: N_50  and  C_46 
REMARK   27  A    between atoms: S_51  and  C_54 
REMARK   28  A    between atoms: C_54  and  C_52 
REMARK   29  A    between atoms: C_52  and  C_56 
ROOT
HETATM    1  O   UNK N   1      20.860  18.833   4.470  0.00  0.00    -0.631 OA
HETATM    2  P   UNK N   1      21.795  17.602   4.325  0.00  0.00     0.401 P 
ENDROOT
BRANCH   2   3
HETATM    3  O   UNK N   1      21.877  16.836   2.771  0.00  0.00    -0.195 OA
BRANCH   3   4
HETATM    4  P   UNK N   1      20.264  16.550   2.168  0.00  0.00     0.401 P 
HETATM    5  O   UNK N   1      20.496  16.728   0.645  0.00  0.00    -0.631 OA
BRANCH   4   6
HETATM    6  O   UNK N   1      19.557  14.944   2.206  0.00  0.00    -0.296 OA
BRANCH   6   7
HETATM    7  C   UNK N   1      20.489  14.006   2.689  0.00  0.00     0.192 C 
BRANCH   7   8
HETATM    8  C   UNK N   1      20.575  12.760   1.758  0.00  0.00     0.009 C 
HETATM    9  C   UNK N   1      20.003  11.518   2.443  0.00  0.00     0.020 C 
HETATM   10  C   UNK N   1      19.699  13.039   0.551  0.00  0.00     0.020 C 
BRANCH   8  11
HETATM   11  C   UNK N   1      22.006  12.469   1.229  0.00  0.00     0.219 C 
BRANCH  11  12
HETATM   12  C   UNK N   1      22.941  13.647   1.234  0.00  0.00     0.247 C 
HETATM   13  N   UNK N   1      23.824  13.757   2.258  0.00  0.00    -0.358 N 
HETATM   14  H   UNK N   1      23.775  13.050   2.943  0.00  0.00     0.162 HD
HETATM   15  O   UNK N   1      22.880  14.494   0.355  0.00  0.00    -0.271 OA
BRANCH  13  16
HETATM   16  C   UNK N   1      24.833  14.777   2.478  0.00  0.00     0.132 C 
BRANCH  16  17
HETATM   17  C   UNK N   1      26.226  14.519   1.933  0.00  0.00     0.122 C 
BRANCH  17  18
HETATM   18  C   UNK N   1      27.191  14.227   3.045  0.00  0.00     0.219 C 
HETATM   19  N   UNK N   1      27.864  15.212   3.698  0.00  0.00    -0.360 N 
HETATM   20  H   UNK N   1      28.480  14.957   4.422  0.00  0.00     0.162 HD
HETATM   21  O   UNK N   1      27.355  13.069   3.385  0.00  0.00    -0.274 OA
BRANCH  19  22
HETATM   22  C   UNK N   1      27.719  16.614   3.383  0.00  0.00     0.133 C 
BRANCH  22  23
HETATM   23  C   UNK N   1      28.617  17.462   4.274  0.00  0.00     0.102 C 
BRANCH  23  24
HETATM   24  S   UNK N   1      27.893  19.113   4.543  0.00  0.00    -0.090 SA
BRANCH  24  25
HETATM   25  C   UNK N   1      27.825  18.978   6.337  0.00  0.00     0.193 C 
HETATM   26  O   UNK N   1      27.838  19.986   7.026  0.00  0.00    -0.285 OA
BRANCH  25  27
HETATM   27  C   UNK N   1      27.907  17.630   6.983  0.00  0.00     0.168 C 
BRANCH  27  28
HETATM   28  C   UNK N   1      28.954  17.549   8.054  0.00  0.00     0.130 C 
HETATM   29  C   UNK N   1      28.577  17.631   9.497  0.00  0.00     0.091 C 
HETATM   30  O   UNK N   1      30.131  17.483   7.743  0.00  0.00    -0.298 OA
ENDBRANCH  27  28
ENDBRANCH  25  27
ENDBRANCH  24  25
ENDBRANCH  23  24
ENDBRANCH  22  23
ENDBRANCH  19  22
ENDBRANCH  17  18
ENDBRANCH  16  17
ENDBRANCH  13  16
ENDBRANCH  11  12
BRANCH  11  31
HETATM   31  O   UNK N   1      22.572  11.378   1.907  0.00  0.00    -0.385 OA
HETATM   32  H   UNK N   1      23.537  11.284   1.953  0.00  0.00     0.210 HD
ENDBRANCH  11  31
ENDBRANCH   8  11
ENDBRANCH   7   8
ENDBRANCH   6   7
ENDBRANCH   4   6
BRANCH   4  33
HETATM   33  O   UNK N   1      19.208  17.876   2.512  0.00  0.00    -0.307 OA
HETATM   34  H   UNK N   1      19.211  18.755   2.103  0.00  0.00     0.222 HD
ENDBRANCH   4  33
ENDBRANCH   3   4
ENDBRANCH   2   3
BRANCH   2  35
HETATM   35  O   UNK N   1      22.397  16.896   5.800  0.00  0.00    -0.294 OA
BRANCH  35  36
HETATM   36  C   UNK N   1      22.889  15.630   5.457  0.00  0.00     0.215 C 
BRANCH  36  37
HETATM   37  C   UNK N   1      23.038  14.697   6.682  0.00  0.00     0.180 C 
HETATM   38  O   UNK N   1      22.173  15.093   7.734  0.00  0.00    -0.353 OA
HETATM   39  C   UNK N   1      21.205  14.071   7.880  0.00  0.00     0.262 C 
HETATM   40  C   UNK N   1      21.290  13.183   6.648  0.00  0.00     0.199 C 
HETATM   41  C   UNK N   1      22.755  13.229   6.380  0.00  0.00     0.197 C 
BRANCH  39  42
HETATM   42  N   UNK N   1      21.392  13.405   9.181  0.00  0.00    -0.297 N 
HETATM   43  C   UNK N   1      22.502  13.016   9.837  0.00  0.00     0.142 A 
HETATM   44  C   UNK N   1      22.155  12.509  11.037  0.00  0.00     0.122 A 
HETATM   45  N   UNK N   1      23.790  13.095   9.436  0.00  0.00    -0.336 N 
HETATM   46  C   UNK N   1      23.129  12.047  11.909  0.00  0.00     0.131 A 
HETATM   47  N   UNK N   1      20.822  12.560  11.187  0.00  0.00    -0.346 N 
HETATM   48  N   UNK N   1      24.432  12.113  11.507  0.00  0.00    -0.337 N 
HETATM   49  C   UNK N   1      24.764  12.630  10.280  0.00  0.00     0.183 A 
ATOM     50  HN  UNK N   1      25.169  11.774  12.125  1.00  0.00     0.168 HD
HETATM   51  C   UNK N   1      20.371  13.120  10.028  0.00  0.00     0.188 A 
ATOM     52  HN  UNK N   1      20.270  12.250  11.988  1.00  0.00     0.167 HD
ATOM     53  HN  UNK N   1      24.031  13.491   8.527  1.00  0.00     0.168 HD
BRANCH  46  54
HETATM   54  N   UNK N   1      22.795  11.532  13.177  0.00  0.00    -0.383 N 
HETATM   55  H   UNK N   1      22.068  11.940  13.700  0.00  0.00     0.157 HD
HETATM   56  H   UNK N   1      23.291  10.763  13.541  0.00  0.00     0.157 HD
ENDBRANCH  46  54
ENDBRANCH  39  42
BRANCH  40  57
HETATM   57  O   UNK N   1      20.804  11.891   6.857  0.00  0.00    -0.388 OA
HETATM   58  H   UNK N   1      21.010  11.113   7.399  0.00  0.00     0.210 HD
ENDBRANCH  40  57
BRANCH  41  59
HETATM   59  O   UNK N   1      23.075  12.884   5.063  0.00  0.00    -0.286 OA
BRANCH  59  60
HETATM   60  P   UNK N   1      24.318  11.657   5.114  0.00  0.00     0.391 P 
HETATM   61  O   UNK N   1      25.500  12.188   5.970  0.00  0.00    -0.632 OA
BRANCH  60  62
HETATM   62  O   UNK N   1      24.923  11.382   3.515  0.00  0.00    -0.307 OA
HETATM   63  H   UNK N   1      25.417  10.675   3.073  0.00  0.00     0.222 HD
ENDBRANCH  60  62
BRANCH  60  64
HETATM   64  O   UNK N   1      23.828  10.140   5.791  0.00  0.00    -0.307 OA
HETATM   65  H   UNK N   1      23.361  10.043   6.635  0.00  0.00     0.222 HD
ENDBRANCH  60  64
ENDBRANCH  59  60
ENDBRANCH  41  59
ENDBRANCH  36  37
ENDBRANCH  35  36
ENDBRANCH   2  35
BRANCH   2  66
HETATM   66  O   UNK N   1      20.404  16.602   4.564  0.00  0.00    -0.307 OA
HETATM   67  H   UNK N   1      19.547  16.628   5.019  0.00  0.00     0.222 HD
ENDBRANCH   2  66
TORSDOF 29
ENDMDL
