REMARK  20 active torsions:
REMARK  status: ('A' for Active; 'I' for Inactive)
REMARK    1  A    between atoms: C_10  and  C_4 
REMARK    2  A    between atoms: O_43  and  C_4 
REMARK    3  A    between atoms: C_11  and  C_5 
REMARK    4  A    between atoms: O_44  and  C_5 
REMARK    5  A    between atoms: C_17  and  C_8 
REMARK    6  A    between atoms: C_19  and  C_9 
REMARK    7  A    between atoms: C_13  and  O_34 
REMARK    8  A    between atoms: C_14  and  O_35 
REMARK    9  A    between atoms: C_15  and  O_36 
REMARK   10  A    between atoms: C_16  and  O_37 
REMARK   11  A    between atoms: N_22  and  C_18 
REMARK   12  A    between atoms: N_23  and  C_19 
REMARK   13  A    between atoms: O_38  and  C_19 
REMARK   14  A    between atoms: C_21  and  N_33 
REMARK   15  A    between atoms: P_48  and  O_39 
REMARK   16  A    between atoms: P_49  and  O_41 
REMARK   17  A    between atoms: P_48  and  O_43 
REMARK   18  A    between atoms: P_49  and  O_44 
REMARK   19  A    between atoms: P_48  and  O_47 
REMARK   20  A    between atoms: P_49  and  O_47 
ROOT
HETATM    1  O   UNK N   1      -0.833  -4.794  -1.479  0.00  0.00    -0.631 OA
HETATM    2  P   UNK N   1      -1.757  -3.893  -0.619  0.00  0.00     0.401 P 
ENDROOT
BRANCH   2   3
HETATM    3  O   UNK N   1      -2.364  -2.656  -1.682  0.00  0.00    -0.307 OA
HETATM    4  H   UNK N   1      -1.936  -2.018  -2.274  0.00  0.00     0.222 HD
ENDBRANCH   2   3
BRANCH   2   5
HETATM    5  O   UNK N   1      -0.782  -3.285   0.705  0.00  0.00    -0.294 OA
BRANCH   5   6
HETATM    6  C   UNK N   1      -0.788  -1.880   0.646  0.00  0.00     0.215 C 
BRANCH   6   7
HETATM    7  C   UNK N   1       0.245  -1.380  -0.366  0.00  0.00     0.180 C 
HETATM    8  C   UNK N   1       1.698  -1.785  -0.053  0.00  0.00     0.182 C 
HETATM    9  C   UNK N   1       2.312  -0.479   0.346  0.00  0.00     0.198 C 
HETATM   10  C   UNK N   1       1.542   0.437  -0.589  0.00  0.00     0.262 C 
HETATM   11  O   UNK N   1       0.195   0.036  -0.474  0.00  0.00    -0.353 OA
BRANCH   8  12
HETATM   12  O   UNK N   1       1.851  -2.771   0.929  0.00  0.00    -0.390 OA
HETATM   13  H   UNK N   1       1.313  -3.204   1.609  0.00  0.00     0.210 HD
ENDBRANCH   8  12
BRANCH   9  14
HETATM   14  O   UNK N   1       1.987  -0.171   1.673  0.00  0.00    -0.388 OA
HETATM   15  H   UNK N   1       2.059   0.130   2.592  0.00  0.00     0.210 HD
ENDBRANCH   9  14
BRANCH  10  16
HETATM   16  N   UNK N   1       1.739   1.841  -0.227  0.00  0.00    -0.297 N 
HETATM   17  C   UNK N   1       0.809   2.741   0.188  0.00  0.00     0.188 A 
HETATM   18  N   UNK N   1       1.378   3.954   0.449  0.00  0.00    -0.346 N 
HETATM   19  C   UNK N   1       2.686   3.773   0.180  0.00  0.00     0.122 A 
ATOM     20  HN  UNK N   1       0.917   4.804   0.774  1.00  0.00     0.167 HD
HETATM   21  C   UNK N   1       3.748   4.657   0.275  0.00  0.00     0.131 A 
HETATM   22  C   UNK N   1       2.896   2.510  -0.229  0.00  0.00     0.142 A 
HETATM   23  N   UNK N   1       4.993   4.201  -0.061  0.00  0.00    -0.337 N 
HETATM   24  C   UNK N   1       5.182   2.906  -0.482  0.00  0.00     0.183 A 
ATOM     25  HN  UNK N   1       5.793   4.831   0.001  1.00  0.00     0.168 HD
HETATM   26  N   UNK N   1       4.123   2.044  -0.568  0.00  0.00    -0.336 N 
ATOM     27  HN  UNK N   1       4.253   1.081  -0.877  1.00  0.00     0.168 HD
BRANCH  21  28
HETATM   28  N   UNK N   1       3.564   5.984   0.711  0.00  0.00    -0.383 N 
HETATM   29  H   UNK N   1       4.302   6.559   1.016  0.00  0.00     0.157 HD
HETATM   30  H   UNK N   1       2.651   6.354   0.711  0.00  0.00     0.157 HD
ENDBRANCH  21  28
ENDBRANCH  10  16
ENDBRANCH   6   7
ENDBRANCH   5   6
ENDBRANCH   2   5
BRANCH   2  31
HETATM   31  O   UNK N   1      -3.049  -4.904  -0.055  0.00  0.00    -0.195 OA
BRANCH  31  32
HETATM   32  P   UNK N   1      -3.849  -3.958   1.161  0.00  0.00     0.401 P 
HETATM   33  O   UNK N   1      -5.315  -4.476   1.218  0.00  0.00    -0.631 OA
BRANCH  32  34
HETATM   34  O   UNK N   1      -3.143  -4.255   2.719  0.00  0.00    -0.307 OA
HETATM   35  H   UNK N   1      -3.090  -4.680   3.589  0.00  0.00     0.222 HD
ENDBRANCH  32  34
BRANCH  32  36
HETATM   36  O   UNK N   1      -3.821  -2.252   0.756  0.00  0.00    -0.294 OA
BRANCH  36  37
HETATM   37  C   UNK N   1      -5.122  -1.797   0.896  0.00  0.00     0.215 C 
BRANCH  37  38
HETATM   38  C   UNK N   1      -5.609  -1.002  -0.323  0.00  0.00     0.178 C 
HETATM   39  C   UNK N   1      -5.751   0.503   0.017  0.00  0.00     0.180 C 
HETATM   40  C   UNK N   1      -7.247   0.759  -0.161  0.00  0.00     0.183 C 
HETATM   41  C   UNK N   1      -7.735  -0.632   0.190  0.00  0.00     0.188 C 
HETATM   42  O   UNK N   1      -6.907  -1.474  -0.572  0.00  0.00    -0.368 OA
BRANCH  39  43
HETATM   43  O   UNK N   1      -4.966   1.323  -0.799  0.00  0.00    -0.390 OA
HETATM   44  H   UNK N   1      -4.201   1.136  -1.365  0.00  0.00     0.210 HD
ENDBRANCH  39  43
BRANCH  40  45
HETATM   45  O   UNK N   1      -7.537   1.027  -1.505  0.00  0.00    -0.390 OA
HETATM   46  H   UNK N   1      -7.477   1.294  -2.435  0.00  0.00     0.210 HD
ENDBRANCH  40  45
BRANCH  41  47
HETATM   47  C   UNK N   1      -9.153  -1.054  -0.011  0.00  0.00    -0.011 A 
HETATM   48  C   UNK N   1      -9.433  -2.398   0.228  0.00  0.00     0.028 A 
HETATM   49  C   UNK N   1     -10.710  -2.905   0.063  0.00  0.00     0.030 A 
HETATM   50  C   UNK N   1     -11.730  -2.028  -0.333  0.00  0.00     0.103 A 
HETATM   51  N   UNK N   1     -11.452  -0.710  -0.557  0.00  0.00    -0.374 N 
HETATM   52  C   UNK N   1     -10.190  -0.208  -0.414  0.00  0.00     0.097 A 
ATOM     53  HN  UNK N   1     -12.207  -0.084  -0.838  1.00  0.00     0.164 HD
BRANCH  49  54
HETATM   54  C   UNK N   1     -10.939  -4.346   0.289  0.00  0.00     0.145 C 
BRANCH  54  55
HETATM   55  N   UNK N   1     -12.107  -4.854   0.144  0.00  0.00    -0.379 N 
HETATM   56  H   UNK N   1     -12.893  -4.272   0.032  0.00  0.00     0.158 HD
ATOM     57  HN  UNK N   1     -12.222  -5.867   0.144  1.00  0.00     0.158 HD
ENDBRANCH  54  55
BRANCH  54  58
HETATM   58  O   UNK N   1      -9.908  -5.144   0.637  0.00  0.00    -0.346 OA
HETATM   59  H   UNK N   1     -10.029  -6.041   0.878  0.00  0.00     0.219 HD
ENDBRANCH  54  58
ENDBRANCH  49  54
ENDBRANCH  41  47
ENDBRANCH  37  38
ENDBRANCH  36  37
ENDBRANCH  32  36
ENDBRANCH  31  32
ENDBRANCH   2  31
TORSDOF 20
