MODEL 1
REMARK VINA RESULT:      -4.0      0.000      0.000
REMARK  6 active torsions:
REMARK  status: ('A' for Active; 'I' for Inactive)
REMARK    1  A    between atoms: C_2  and  N_1 
REMARK    2  A    between atoms: C_2  and  C_3 
REMARK    3  A    between atoms: C_2  and  C_6 
REMARK    4  A    between atoms: C_3  and  S_4 
REMARK    5  A    between atoms: S_4  and  Se_5 
REMARK    6  A    between atoms: C_6  and  O_7 
ROOT
HETATM    1  C   UNK N   1      33.993  17.232   8.994  0.00  0.00     0.183 C 
ENDROOT
BRANCH   1   2
HETATM    2  N   UNK N   1      34.671  17.018  10.262  0.00  0.00    -0.417 N 
HETATM    3  H   UNK N   1      35.486  16.404  10.308  0.00  0.00     0.150 HD
HETATM    4  H   UNK N   1      34.334  17.480  11.106  0.00  0.00     0.150 HD
ENDBRANCH   1   2
BRANCH   1   5
HETATM    5  C   UNK N   1      32.735  16.384   8.758  0.00  0.00     0.121 C 
BRANCH   5   6
HETATM    6  S   UNK N   1      31.221  17.349   8.436  0.00  0.00    -0.095 SA
BRANCH   6   7
HETATM    7 Se   UNK N   1      31.108  16.747   6.269  0.00  0.00     0.000 Se
HETATM    8  H   UNK N   1      31.573  15.376   5.840  0.00  0.00     0.000 HD
ENDBRANCH   6   7
ENDBRANCH   5   6
ENDBRANCH   1   5
BRANCH   1   9
HETATM    9  C   UNK N   1      34.610  18.258   8.075  0.00  0.00     0.163 C 
HETATM   10  O   UNK N   1      35.251  19.197   8.523  0.00  0.00    -0.648 OA
BRANCH   9  11
HETATM   11  O   UNK N   1      34.458  18.144   6.743  0.00  0.00    -0.775 OA
HETATM   12  H   UNK N   1      34.610  18.884   6.189  0.00  0.00     0.167 HD
ENDBRANCH   9  11
ENDBRANCH   1   9
TORSDOF 6
ENDMDL
MODEL 2
REMARK VINA RESULT:      -4.0      0.637      1.275
REMARK  6 active torsions:
REMARK  status: ('A' for Active; 'I' for Inactive)
REMARK    1  A    between atoms: C_2  and  N_1 
REMARK    2  A    between atoms: C_2  and  C_3 
REMARK    3  A    between atoms: C_2  and  C_6 
REMARK    4  A    between atoms: C_3  and  S_4 
REMARK    5  A    between atoms: S_4  and  Se_5 
REMARK    6  A    between atoms: C_6  and  O_7 
ROOT
HETATM    1  C   UNK N   1      34.259  17.122   9.097  0.00  0.00     0.183 C 
ENDROOT
BRANCH   1   2
HETATM    2  N   UNK N   1      34.906  17.143  10.399  0.00  0.00    -0.417 N 
HETATM    3  H   UNK N   1      35.924  17.120  10.463  0.00  0.00     0.150 HD
HETATM    4  H   UNK N   1      34.343  17.179  11.248  0.00  0.00     0.150 HD
ENDBRANCH   1   2
BRANCH   1   5
HETATM    5  C   UNK N   1      33.244  15.992   8.874  0.00  0.00     0.121 C 
BRANCH   5   6
HETATM    6  S   UNK N   1      31.550  16.558   8.502  0.00  0.00    -0.095 SA
BRANCH   6   7
HETATM    7 Se   UNK N   1      31.448  15.466   6.535  0.00  0.00     0.000 Se
HETATM    8  H   UNK N   1      32.553  15.632   5.520  0.00  0.00     0.000 HD
ENDBRANCH   6   7
ENDBRANCH   5   6
ENDBRANCH   1   5
BRANCH   1   9
HETATM    9  C   UNK N   1      34.667  18.211   8.134  0.00  0.00     0.163 C 
HETATM   10  O   UNK N   1      34.408  18.124   6.944  0.00  0.00    -0.648 OA
BRANCH   9  11
HETATM   11  O   UNK N   1      35.325  19.293   8.586  0.00  0.00    -0.775 OA
HETATM   12  H   UNK N   1      35.351  20.075   8.070  0.00  0.00     0.167 HD
ENDBRANCH   9  11
ENDBRANCH   1   9
TORSDOF 6
ENDMDL
MODEL 3
REMARK VINA RESULT:      -3.9      3.065      3.540
REMARK  6 active torsions:
REMARK  status: ('A' for Active; 'I' for Inactive)
REMARK    1  A    between atoms: C_2  and  N_1 
REMARK    2  A    between atoms: C_2  and  C_3 
REMARK    3  A    between atoms: C_2  and  C_6 
REMARK    4  A    between atoms: C_3  and  S_4 
REMARK    5  A    between atoms: S_4  and  Se_5 
REMARK    6  A    between atoms: C_6  and  O_7 
ROOT
HETATM    1  C   UNK N   1      33.775  17.187   8.810  0.00  0.00     0.183 C 
ENDROOT
BRANCH   1   2
HETATM    2  N   UNK N   1      32.346  17.400   8.982  0.00  0.00    -0.417 N 
HETATM    3  H   UNK N   1      32.009  18.046   9.697  0.00  0.00     0.150 HD
HETATM    4  H   UNK N   1      31.682  16.906   8.388  0.00  0.00     0.150 HD
ENDBRANCH   1   2
BRANCH   1   5
HETATM    5  C   UNK N   1      34.356  15.957   9.521  0.00  0.00     0.121 C 
BRANCH   5   6
HETATM    6  S   UNK N   1      35.502  16.343  10.886  0.00  0.00    -0.095 SA
BRANCH   6   7
HETATM    7 Se   UNK N   1      35.251  14.336  11.876  0.00  0.00     0.000 Se
HETATM    8  H   UNK N   1      36.365  13.764  12.720  0.00  0.00     0.000 HD
ENDBRANCH   6   7
ENDBRANCH   5   6
ENDBRANCH   1   5
BRANCH   1   9
HETATM    9  C   UNK N   1      34.500  18.200   7.957  0.00  0.00     0.163 C 
HETATM   10  O   UNK N   1      34.435  18.154   6.738  0.00  0.00    -0.648 OA
BRANCH   9  11
HETATM   11  O   UNK N   1      35.230  19.168   8.540  0.00  0.00    -0.775 OA
HETATM   12  H   UNK N   1      36.139  19.026   8.718  0.00  0.00     0.167 HD
ENDBRANCH   9  11
ENDBRANCH   1   9
TORSDOF 6
ENDMDL
MODEL 4
REMARK VINA RESULT:      -3.8      2.473      2.869
REMARK  6 active torsions:
REMARK  status: ('A' for Active; 'I' for Inactive)
REMARK    1  A    between atoms: C_2  and  N_1 
REMARK    2  A    between atoms: C_2  and  C_3 
REMARK    3  A    between atoms: C_2  and  C_6 
REMARK    4  A    between atoms: C_3  and  S_4 
REMARK    5  A    between atoms: S_4  and  Se_5 
REMARK    6  A    between atoms: C_6  and  O_7 
ROOT
HETATM    1  C   UNK N   1      34.388  17.115   9.129  0.00  0.00     0.183 C 
ENDROOT
BRANCH   1   2
HETATM    2  N   UNK N   1      34.998  17.193  10.447  0.00  0.00    -0.417 N 
HETATM    3  H   UNK N   1      35.619  17.970  10.676  0.00  0.00     0.150 HD
HETATM    4  H   UNK N   1      34.805  16.473  11.141  0.00  0.00     0.150 HD
ENDBRANCH   1   2
BRANCH   1   5
HETATM    5  C   UNK N   1      33.491  15.894   8.880  0.00  0.00     0.121 C 
BRANCH   5   6
HETATM    6  S   UNK N   1      34.311  14.516   8.011  0.00  0.00    -0.095 SA
BRANCH   6   7
HETATM    7 Se   UNK N   1      34.572  13.284   9.878  0.00  0.00     0.000 Se
HETATM    8  H   UNK N   1      33.662  12.108  10.140  0.00  0.00     0.000 HD
ENDBRANCH   6   7
ENDBRANCH   5   6
ENDBRANCH   1   5
BRANCH   1   9
HETATM    9  C   UNK N   1      34.714  18.240   8.177  0.00  0.00     0.163 C 
HETATM   10  O   UNK N   1      34.393  18.179   7.000  0.00  0.00    -0.648 OA
BRANCH   9  11
HETATM   11  O   UNK N   1      35.366  19.328   8.624  0.00  0.00    -0.775 OA
HETATM   12  H   UNK N   1      36.276  19.443   8.429  0.00  0.00     0.167 HD
ENDBRANCH   9  11
ENDBRANCH   1   9
TORSDOF 6
ENDMDL
MODEL 5
REMARK VINA RESULT:      -3.8     13.868     14.360
REMARK  6 active torsions:
REMARK  status: ('A' for Active; 'I' for Inactive)
REMARK    1  A    between atoms: C_2  and  N_1 
REMARK    2  A    between atoms: C_2  and  C_3 
REMARK    3  A    between atoms: C_2  and  C_6 
REMARK    4  A    between atoms: C_3  and  S_4 
REMARK    5  A    between atoms: S_4  and  Se_5 
REMARK    6  A    between atoms: C_6  and  O_7 
ROOT
HETATM    1  C   UNK N   1      20.260  19.119   2.185  0.00  0.00     0.183 C 
ENDROOT
BRANCH   1   2
HETATM    2  N   UNK N   1      18.820  18.961   2.310  0.00  0.00    -0.417 N 
HETATM    3  H   UNK N   1      18.209  19.774   2.224  0.00  0.00     0.150 HD
HETATM    4  H   UNK N   1      18.421  18.040   2.483  0.00  0.00     0.150 HD
ENDBRANCH   1   2
BRANCH   1   5
HETATM    5  C   UNK N   1      21.111  18.060   2.902  0.00  0.00     0.121 C 
BRANCH   5   6
HETATM    6  S   UNK N   1      22.452  18.740   3.935  0.00  0.00    -0.095 SA
BRANCH   6   7
HETATM    7 Se   UNK N   1      21.523  18.056   5.869  0.00  0.00     0.000 Se
HETATM    8  H   UNK N   1      21.527  16.590   6.232  0.00  0.00     0.000 HD
ENDBRANCH   6   7
ENDBRANCH   5   6
ENDBRANCH   1   5
BRANCH   1   9
HETATM    9  C   UNK N   1      20.732  20.298   1.370  0.00  0.00     0.163 C 
HETATM   10  O   UNK N   1      21.253  21.263   1.907  0.00  0.00    -0.648 OA
BRANCH   9  11
HETATM   11  O   UNK N   1      20.581  20.293   0.033  0.00  0.00    -0.775 OA
HETATM   12  H   UNK N   1      19.859  20.744  -0.358  0.00  0.00     0.167 HD
ENDBRANCH   9  11
ENDBRANCH   1   9
TORSDOF 6
ENDMDL
MODEL 6
REMARK VINA RESULT:      -3.7     14.263     14.717
REMARK  6 active torsions:
REMARK  status: ('A' for Active; 'I' for Inactive)
REMARK    1  A    between atoms: C_2  and  N_1 
REMARK    2  A    between atoms: C_2  and  C_3 
REMARK    3  A    between atoms: C_2  and  C_6 
REMARK    4  A    between atoms: C_3  and  S_4 
REMARK    5  A    between atoms: S_4  and  Se_5 
REMARK    6  A    between atoms: C_6  and  O_7 
ROOT
HETATM    1  C   UNK N   1      20.238  19.054   2.246  0.00  0.00     0.183 C 
ENDROOT
BRANCH   1   2
HETATM    2  N   UNK N   1      18.789  18.932   2.298  0.00  0.00    -0.417 N 
HETATM    3  H   UNK N   1      18.266  18.705   1.452  0.00  0.00     0.150 HD
HETATM    4  H   UNK N   1      18.297  19.072   3.179  0.00  0.00     0.150 HD
ENDBRANCH   1   2
BRANCH   1   5
HETATM    5  C   UNK N   1      21.025  18.012   3.053  0.00  0.00     0.121 C 
BRANCH   5   6
HETATM    6  S   UNK N   1      19.989  16.858   4.014  0.00  0.00    -0.095 SA
BRANCH   6   7
HETATM    7 Se   UNK N   1      20.119  15.214   2.480  0.00  0.00     0.000 Se
HETATM    8  H   UNK N   1      21.316  14.294   2.460  0.00  0.00     0.000 HD
ENDBRANCH   6   7
ENDBRANCH   5   6
ENDBRANCH   1   5
BRANCH   1   9
HETATM    9  C   UNK N   1      20.779  20.186   1.406  0.00  0.00     0.163 C 
HETATM   10  O   UNK N   1      21.305  21.157   1.928  0.00  0.00    -0.648 OA
BRANCH   9  11
HETATM   11  O   UNK N   1      20.686  20.131   0.066  0.00  0.00    -0.775 OA
HETATM   12  H   UNK N   1      21.328  19.662  -0.430  0.00  0.00     0.167 HD
ENDBRANCH   9  11
ENDBRANCH   1   9
TORSDOF 6
ENDMDL
MODEL 7
REMARK VINA RESULT:      -3.5      4.798      5.117
REMARK  6 active torsions:
REMARK  status: ('A' for Active; 'I' for Inactive)
REMARK    1  A    between atoms: C_2  and  N_1 
REMARK    2  A    between atoms: C_2  and  C_3 
REMARK    3  A    between atoms: C_2  and  C_6 
REMARK    4  A    between atoms: C_3  and  S_4 
REMARK    5  A    between atoms: S_4  and  Se_5 
REMARK    6  A    between atoms: C_6  and  O_7 
ROOT
HETATM    1  C   UNK N   1      34.579  15.093  11.196  0.00  0.00     0.183 C 
ENDROOT
BRANCH   1   2
HETATM    2  N   UNK N   1      33.213  14.939  10.719  0.00  0.00    -0.417 N 
HETATM    3  H   UNK N   1      32.432  15.048  11.366  0.00  0.00     0.150 HD
HETATM    4  H   UNK N   1      33.037  14.722   9.739  0.00  0.00     0.150 HD
ENDBRANCH   1   2
BRANCH   1   5
HETATM    5  C   UNK N   1      35.077  14.003  12.155  0.00  0.00     0.121 C 
BRANCH   5   6
HETATM    6  S   UNK N   1      35.458  12.408  11.357  0.00  0.00    -0.095 SA
BRANCH   6   7
HETATM    7 Se   UNK N   1      37.648  12.872  11.113  0.00  0.00     0.000 Se
HETATM    8  H   UNK N   1      38.646  11.748  10.958  0.00  0.00     0.000 HD
ENDBRANCH   6   7
ENDBRANCH   5   6
ENDBRANCH   1   5
BRANCH   1   9
HETATM    9  C   UNK N   1      35.328  16.301  10.688  0.00  0.00     0.163 C 
HETATM   10  O   UNK N   1      36.546  16.359  10.758  0.00  0.00    -0.648 OA
BRANCH   9  11
HETATM   11  O   UNK N   1      34.652  17.332  10.150  0.00  0.00    -0.775 OA
HETATM   12  H   UNK N   1      33.989  17.769  10.647  0.00  0.00     0.167 HD
ENDBRANCH   9  11
ENDBRANCH   1   9
TORSDOF 6
ENDMDL
MODEL 8
REMARK VINA RESULT:      -3.3     12.503     12.789
REMARK  6 active torsions:
REMARK  status: ('A' for Active; 'I' for Inactive)
REMARK    1  A    between atoms: C_2  and  N_1 
REMARK    2  A    between atoms: C_2  and  C_3 
REMARK    3  A    between atoms: C_2  and  C_6 
REMARK    4  A    between atoms: C_3  and  S_4 
REMARK    5  A    between atoms: S_4  and  Se_5 
REMARK    6  A    between atoms: C_6  and  O_7 
ROOT
HETATM    1  C   UNK N   1      44.405  21.997   3.549  0.00  0.00     0.183 C 
ENDROOT
BRANCH   1   2
HETATM    2  N   UNK N   1      45.702  22.198   4.176  0.00  0.00    -0.417 N 
HETATM    3  H   UNK N   1      45.803  22.086   5.186  0.00  0.00     0.150 HD
HETATM    4  H   UNK N   1      46.509  22.450   3.608  0.00  0.00     0.150 HD
ENDBRANCH   1   2
BRANCH   1   5
HETATM    5  C   UNK N   1      44.127  20.578   3.031  0.00  0.00     0.121 C 
BRANCH   5   6
HETATM    6  S   UNK N   1      45.548  19.440   3.142  0.00  0.00    -0.095 SA
BRANCH   6   7
HETATM    7 Se   UNK N   1      44.310  17.603   2.732  0.00  0.00     0.000 Se
HETATM    8  H   UNK N   1      42.881  17.744   2.265  0.00  0.00     0.000 HD
ENDBRANCH   6   7
ENDBRANCH   5   6
ENDBRANCH   1   5
BRANCH   1   9
HETATM    9  C   UNK N   1      43.502  23.205   3.489  0.00  0.00     0.163 C 
HETATM   10  O   UNK N   1      42.747  23.376   2.543  0.00  0.00    -0.648 OA
BRANCH   9  11
HETATM   11  O   UNK N   1      43.522  24.108   4.485  0.00  0.00    -0.775 OA
HETATM   12  H   UNK N   1      43.046  23.945   5.275  0.00  0.00     0.167 HD
ENDBRANCH   9  11
ENDBRANCH   1   9
TORSDOF 6
ENDMDL
MODEL 9
REMARK VINA RESULT:      -3.3      4.281      4.521
REMARK  6 active torsions:
REMARK  status: ('A' for Active; 'I' for Inactive)
REMARK    1  A    between atoms: C_2  and  N_1 
REMARK    2  A    between atoms: C_2  and  C_3 
REMARK    3  A    between atoms: C_2  and  C_6 
REMARK    4  A    between atoms: C_3  and  S_4 
REMARK    5  A    between atoms: S_4  and  Se_5 
REMARK    6  A    between atoms: C_6  and  O_7 
ROOT
HETATM    1  C   UNK N   1      34.838  15.086  10.256  0.00  0.00     0.183 C 
ENDROOT
BRANCH   1   2
HETATM    2  N   UNK N   1      33.548  15.139  10.925  0.00  0.00    -0.417 N 
HETATM    3  H   UNK N   1      33.063  14.273  11.166  0.00  0.00     0.150 HD
HETATM    4  H   UNK N   1      33.128  16.039  11.154  0.00  0.00     0.150 HD
ENDBRANCH   1   2
BRANCH   1   5
HETATM    5  C   UNK N   1      35.084  13.852   9.376  0.00  0.00     0.121 C 
BRANCH   5   6
HETATM    6  S   UNK N   1      35.843  14.214   7.758  0.00  0.00    -0.095 SA
BRANCH   6   7
HETATM    7 Se   UNK N   1      37.893  13.527   8.388  0.00  0.00     0.000 Se
HETATM    8  H   UNK N   1      38.763  14.424   9.236  0.00  0.00     0.000 HD
ENDBRANCH   6   7
ENDBRANCH   5   6
ENDBRANCH   1   5
BRANCH   1   9
HETATM    9  C   UNK N   1      35.767  16.249  10.510  0.00  0.00     0.163 C 
HETATM   10  O   UNK N   1      35.398  17.398  10.322  0.00  0.00    -0.648 OA
BRANCH   9  11
HETATM   11  O   UNK N   1      37.018  16.024  10.950  0.00  0.00    -0.775 OA
HETATM   12  H   UNK N   1      37.243  15.192  11.318  0.00  0.00     0.167 HD
ENDBRANCH   9  11
ENDBRANCH   1   9
TORSDOF 6
ENDMDL
