REMARK  6 active torsions:
REMARK  status: ('A' for Active; 'I' for Inactive)
REMARK    1  A    between atoms: C_2  and  N_1 
REMARK    2  A    between atoms: C_2  and  C_3 
REMARK    3  A    between atoms: C_2  and  C_6 
REMARK    4  A    between atoms: C_3  and  S_4 
REMARK    5  A    between atoms: S_4  and  Se_5 
REMARK    6  A    between atoms: C_6  and  O_7 
ROOT
HETATM    1  C   UNK N   1       2.374   1.471  -0.000  0.00  0.00     0.183 C 
ENDROOT
BRANCH   1   2
HETATM    2  N   UNK N   1       2.808   2.859   0.000  0.00  0.00    -0.417 N 
HETATM    3  H   UNK N   1       3.804   3.082   0.000  0.00  0.00     0.150 HD
HETATM    4  H   UNK N   1       2.118   3.609   0.000  0.00  0.00     0.150 HD
ENDBRANCH   1   2
BRANCH   1   5
HETATM    5  C   UNK N   1       0.855   1.247   0.000  0.00  0.00     0.121 C 
BRANCH   5   6
HETATM    6  S   UNK N   1       0.348  -0.505  -0.000  0.00  0.00    -0.095 SA
BRANCH   6   7
HETATM    7 Se   UNK N   1      -1.854  -0.032   0.000  0.00  0.00     0.000 Se
HETATM    8  H   UNK N   1      -2.318   1.405   0.000  0.00  0.00     0.000 HD
ENDBRANCH   6   7
ENDBRANCH   5   6
ENDBRANCH   1   5
BRANCH   1   9
HETATM    9  C   UNK N   1       3.469   0.432   0.000  0.00  0.00     0.163 C 
HETATM   10  O   UNK N   1       3.202  -0.760   0.000  0.00  0.00    -0.648 OA
BRANCH   9  11
HETATM   11  O   UNK N   1       4.758   0.816   0.000  0.00  0.00    -0.775 OA
HETATM   12  H   UNK N   1       5.439   0.172  -0.000  0.00  0.00     0.167 HD
ENDBRANCH   9  11
ENDBRANCH   1   9
TORSDOF 6
