MODEL 1
REMARK VINA RESULT:      -5.3      0.000      0.000
REMARK  3 active torsions:
REMARK  status: ('A' for Active; 'I' for Inactive)
REMARK    1  A    between atoms: O_1  and  C_2 
REMARK    2  A    between atoms: C_2  and  C_4 
REMARK    3  A    between atoms: C_4  and  C_5 
ROOT
HETATM    1  C   UNK N   1      22.168  12.631  10.292  0.00  0.00     0.029 A 
HETATM    2  C   UNK N   1      20.869  13.104  10.460  0.00  0.00     0.100 A 
HETATM    3  C   UNK N   1      20.364  14.033   9.558  0.00  0.00     0.251 A 
HETATM    4  O   UNK N   1      19.231  14.454   9.693  0.00  0.00    -0.268 OA
HETATM    5  N   UNK N   1      21.141  14.472   8.519  0.00  0.00    -0.275 N 
HETATM    6  C   UNK N   1      22.418  14.001   8.363  0.00  0.00     0.327 A 
HETATM    7  O   UNK N   1      23.103  14.395   7.438  0.00  0.00    -0.247 OA
HETATM    8  N   UNK N   1      22.922  13.084   9.250  0.00  0.00    -0.312 N 
HETATM    9  H   UNK N   1      20.781  15.130   7.882  0.00  0.00     0.173 HD
HETATM   10  H   UNK N   1      23.840  12.748   9.134  0.00  0.00     0.170 HD
ENDROOT
BRANCH   1  11
HETATM   11  C   UNK N   1      22.684  11.628  11.284  0.00  0.00     0.167 C 
BRANCH  11  12
HETATM   12  C   UNK N   1      23.804  12.033  12.200  0.00  0.00     0.145 C 
HETATM   13  O   UNK N   1      23.659  12.073  13.411  0.00  0.00    -0.650 OA
BRANCH  12  14
HETATM   14  O   UNK N   1      24.994  12.358  11.665  0.00  0.00    -0.776 OA
HETATM   15  H   UNK N   1      25.043  13.010  10.994  0.00  0.00     0.167 HD
ENDBRANCH  12  14
ENDBRANCH  11  12
ENDBRANCH   1  11
TORSDOF 3
ENDMDL
MODEL 2
REMARK VINA RESULT:      -5.2      8.314     10.346
REMARK  3 active torsions:
REMARK  status: ('A' for Active; 'I' for Inactive)
REMARK    1  A    between atoms: O_1  and  C_2 
REMARK    2  A    between atoms: C_2  and  C_4 
REMARK    3  A    between atoms: C_4  and  C_5 
ROOT
HETATM    1  C   UNK N   1      20.169  18.647   2.661  0.00  0.00     0.029 A 
HETATM    2  C   UNK N   1      20.002  17.625   3.591  0.00  0.00     0.100 A 
HETATM    3  C   UNK N   1      19.837  16.320   3.143  0.00  0.00     0.251 A 
HETATM    4  O   UNK N   1      19.690  15.418   3.945  0.00  0.00    -0.268 OA
HETATM    5  N   UNK N   1      19.840  16.052   1.800  0.00  0.00    -0.275 N 
HETATM    6  C   UNK N   1      20.005  17.065   0.892  0.00  0.00     0.327 A 
HETATM    7  O   UNK N   1      20.006  16.820  -0.300  0.00  0.00    -0.247 OA
HETATM    8  N   UNK N   1      20.168  18.355   1.329  0.00  0.00    -0.312 N 
HETATM    9  H   UNK N   1      19.723  15.127   1.485  0.00  0.00     0.173 HD
HETATM   10  H   UNK N   1      20.286  19.080   0.673  0.00  0.00     0.170 HD
ENDROOT
BRANCH   1  11
HETATM   11  C   UNK N   1      20.345  20.046   3.178  0.00  0.00     0.167 C 
BRANCH  11  12
HETATM   12  C   UNK N   1      21.092  21.039   2.331  0.00  0.00     0.145 C 
HETATM   13  O   UNK N   1      20.759  21.280   1.183  0.00  0.00    -0.650 OA
BRANCH  12  14
HETATM   14  O   UNK N   1      22.153  21.673   2.860  0.00  0.00    -0.776 OA
HETATM   15  H   UNK N   1      23.019  21.454   2.577  0.00  0.00     0.167 HD
ENDBRANCH  12  14
ENDBRANCH  11  12
ENDBRANCH   1  11
TORSDOF 3
ENDMDL
MODEL 3
REMARK VINA RESULT:      -5.1     13.667     14.857
REMARK  3 active torsions:
REMARK  status: ('A' for Active; 'I' for Inactive)
REMARK    1  A    between atoms: O_1  and  C_2 
REMARK    2  A    between atoms: C_2  and  C_4 
REMARK    3  A    between atoms: C_4  and  C_5 
ROOT
HETATM    1  C   UNK N   1      35.673  14.236  12.957  0.00  0.00     0.029 A 
HETATM    2  C   UNK N   1      35.286  12.945  13.306  0.00  0.00     0.100 A 
HETATM    3  C   UNK N   1      35.720  12.410  14.512  0.00  0.00     0.251 A 
HETATM    4  O   UNK N   1      35.389  11.283  14.829  0.00  0.00    -0.268 OA
HETATM    5  N   UNK N   1      36.520  13.150  15.342  0.00  0.00    -0.275 N 
HETATM    6  C   UNK N   1      36.896  14.419  14.989  0.00  0.00     0.327 A 
HETATM    7  O   UNK N   1      37.607  15.072  15.730  0.00  0.00    -0.247 OA
HETATM    8  N   UNK N   1      36.470  14.953  13.799  0.00  0.00    -0.312 N 
HETATM    9  H   UNK N   1      36.827  12.768  16.195  0.00  0.00     0.173 HD
HETATM   10  H   UNK N   1      36.743  15.865  13.550  0.00  0.00     0.170 HD
ENDROOT
BRANCH   1  11
HETATM   11  C   UNK N   1      35.186  14.785  11.646  0.00  0.00     0.167 C 
BRANCH  11  12
HETATM   12  C   UNK N   1      35.837  16.025  11.099  0.00  0.00     0.145 C 
HETATM   13  O   UNK N   1      35.199  17.043  10.886  0.00  0.00    -0.650 OA
BRANCH  12  14
HETATM   14  O   UNK N   1      37.156  16.005  10.841  0.00  0.00    -0.776 OA
HETATM   15  H   UNK N   1      37.652  15.225  10.996  0.00  0.00     0.167 HD
ENDBRANCH  12  14
ENDBRANCH  11  12
ENDBRANCH   1  11
TORSDOF 3
ENDMDL
MODEL 4
REMARK VINA RESULT:      -5.1     11.144     12.560
REMARK  3 active torsions:
REMARK  status: ('A' for Active; 'I' for Inactive)
REMARK    1  A    between atoms: O_1  and  C_2 
REMARK    2  A    between atoms: C_2  and  C_4 
REMARK    3  A    between atoms: C_4  and  C_5 
ROOT
HETATM    1  C   UNK N   1      33.325  16.260   9.108  0.00  0.00     0.029 A 
HETATM    2  C   UNK N   1      32.868  15.186   8.350  0.00  0.00     0.100 A 
HETATM    3  C   UNK N   1      33.022  13.895   8.841  0.00  0.00     0.251 A 
HETATM    4  O   UNK N   1      32.626  12.947   8.189  0.00  0.00    -0.268 OA
HETATM    5  N   UNK N   1      33.617  13.692  10.057  0.00  0.00    -0.275 N 
HETATM    6  C   UNK N   1      34.064  14.756  10.796  0.00  0.00     0.327 A 
HETATM    7  O   UNK N   1      34.592  14.569  11.876  0.00  0.00    -0.247 OA
HETATM    8  N   UNK N   1      33.915  16.032  10.316  0.00  0.00    -0.312 N 
HETATM    9  H   UNK N   1      33.725  12.776  10.403  0.00  0.00     0.173 HD
HETATM   10  H   UNK N   1      34.237  16.794  10.849  0.00  0.00     0.170 HD
ENDROOT
BRANCH   1  11
HETATM   11  C   UNK N   1      33.144  17.642   8.548  0.00  0.00     0.167 C 
BRANCH  11  12
HETATM   12  C   UNK N   1      34.296  18.285   7.828  0.00  0.00     0.145 C 
HETATM   13  O   UNK N   1      35.031  19.087   8.381  0.00  0.00    -0.650 OA
BRANCH  12  14
HETATM   14  O   UNK N   1      34.518  17.962   6.542  0.00  0.00    -0.776 OA
HETATM   15  H   UNK N   1      35.177  17.333   6.323  0.00  0.00     0.167 HD
ENDBRANCH  12  14
ENDBRANCH  11  12
ENDBRANCH   1  11
TORSDOF 3
ENDMDL
MODEL 5
REMARK VINA RESULT:      -5.1     11.745     12.797
REMARK  3 active torsions:
REMARK  status: ('A' for Active; 'I' for Inactive)
REMARK    1  A    between atoms: O_1  and  C_2 
REMARK    2  A    between atoms: C_2  and  C_4 
REMARK    3  A    between atoms: C_4  and  C_5 
ROOT
HETATM    1  C   UNK N   1      34.273  16.213   9.701  0.00  0.00     0.029 A 
HETATM    2  C   UNK N   1      33.260  15.831   8.827  0.00  0.00     0.100 A 
HETATM    3  C   UNK N   1      32.912  16.678   7.781  0.00  0.00     0.251 A 
HETATM    4  O   UNK N   1      32.029  16.356   7.009  0.00  0.00    -0.268 OA
HETATM    5  N   UNK N   1      33.564  17.871   7.620  0.00  0.00    -0.275 N 
HETATM    6  C   UNK N   1      34.560  18.238   8.487  0.00  0.00     0.327 A 
HETATM    7  O   UNK N   1      35.135  19.300   8.338  0.00  0.00    -0.247 OA
HETATM    8  N   UNK N   1      34.907  17.407   9.521  0.00  0.00    -0.312 N 
HETATM    9  H   UNK N   1      33.316  18.469   6.878  0.00  0.00     0.173 HD
HETATM   10  H   UNK N   1      35.623  17.674  10.141  0.00  0.00     0.170 HD
ENDROOT
BRANCH   1  11
HETATM   11  C   UNK N   1      34.625  15.276  10.821  0.00  0.00     0.167 C 
BRANCH  11  12
HETATM   12  C   UNK N   1      35.912  15.495  11.566  0.00  0.00     0.145 C 
HETATM   13  O   UNK N   1      36.034  15.188  12.741  0.00  0.00    -0.650 OA
BRANCH  12  14
HETATM   14  O   UNK N   1      36.952  16.043  10.914  0.00  0.00    -0.776 OA
HETATM   15  H   UNK N   1      37.680  16.384  11.395  0.00  0.00     0.167 HD
ENDBRANCH  12  14
ENDBRANCH  11  12
ENDBRANCH   1  11
TORSDOF 3
ENDMDL
MODEL 6
REMARK VINA RESULT:      -5.1      9.970     10.946
REMARK  3 active torsions:
REMARK  status: ('A' for Active; 'I' for Inactive)
REMARK    1  A    between atoms: O_1  and  C_2 
REMARK    2  A    between atoms: C_2  and  C_4 
REMARK    3  A    between atoms: C_4  and  C_5 
ROOT
HETATM    1  C   UNK N   1      31.816  17.632   8.094  0.00  0.00     0.029 A 
HETATM    2  C   UNK N   1      30.800  18.168   8.880  0.00  0.00     0.100 A 
HETATM    3  C   UNK N   1      29.502  18.197   8.384  0.00  0.00     0.251 A 
HETATM    4  O   UNK N   1      28.605  18.662   9.061  0.00  0.00    -0.268 OA
HETATM    5  N   UNK N   1      29.235  17.701   7.136  0.00  0.00    -0.275 N 
HETATM    6  C   UNK N   1      30.242  17.175   6.370  0.00  0.00     0.327 A 
HETATM    7  O   UNK N   1      29.998  16.736   5.262  0.00  0.00    -0.247 OA
HETATM    8  N   UNK N   1      31.525  17.144   6.855  0.00  0.00    -0.312 N 
HETATM    9  H   UNK N   1      28.315  17.722   6.787  0.00  0.00     0.173 HD
HETATM   10  H   UNK N   1      32.245  16.766   6.301  0.00  0.00     0.170 HD
ENDROOT
BRANCH   1  11
HETATM   11  C   UNK N   1      33.208  17.617   8.660  0.00  0.00     0.167 C 
BRANCH  11  12
HETATM   12  C   UNK N   1      34.308  18.284   7.883  0.00  0.00     0.145 C 
HETATM   13  O   UNK N   1      35.045  19.110   8.395  0.00  0.00    -0.650 OA
BRANCH  12  14
HETATM   14  O   UNK N   1      34.477  17.957   6.590  0.00  0.00    -0.776 OA
HETATM   15  H   UNK N   1      35.052  17.254   6.355  0.00  0.00     0.167 HD
ENDBRANCH  12  14
ENDBRANCH  11  12
ENDBRANCH   1  11
TORSDOF 3
ENDMDL
MODEL 7
REMARK VINA RESULT:      -5.0      9.983     11.094
REMARK  3 active torsions:
REMARK  status: ('A' for Active; 'I' for Inactive)
REMARK    1  A    between atoms: O_1  and  C_2 
REMARK    2  A    between atoms: C_2  and  C_4 
REMARK    3  A    between atoms: C_4  and  C_5 
ROOT
HETATM    1  C   UNK N   1      31.968  17.453   8.359  0.00  0.00     0.029 A 
HETATM    2  C   UNK N   1      31.538  16.883   7.164  0.00  0.00     0.100 A 
HETATM    3  C   UNK N   1      30.188  16.932   6.837  0.00  0.00     0.251 A 
HETATM    4  O   UNK N   1      29.799  16.438   5.796  0.00  0.00    -0.268 OA
HETATM    5  N   UNK N   1      29.299  17.535   7.687  0.00  0.00    -0.275 N 
HETATM    6  C   UNK N   1      29.733  18.093   8.860  0.00  0.00     0.327 A 
HETATM    7  O   UNK N   1      28.938  18.627   9.611  0.00  0.00    -0.247 OA
HETATM    8  N   UNK N   1      31.064  18.048   9.188  0.00  0.00    -0.312 N 
HETATM    9  H   UNK N   1      28.344  17.568   7.453  0.00  0.00     0.173 HD
HETATM   10  H   UNK N   1      31.371  18.450  10.032  0.00  0.00     0.170 HD
ENDROOT
BRANCH   1  11
HETATM   11  C   UNK N   1      33.434  17.384   8.682  0.00  0.00     0.167 C 
BRANCH  11  12
HETATM   12  C   UNK N   1      34.387  18.235   7.890  0.00  0.00     0.145 C 
HETATM   13  O   UNK N   1      35.019  19.141   8.407  0.00  0.00    -0.650 OA
BRANCH  12  14
HETATM   14  O   UNK N   1      34.540  17.985   6.578  0.00  0.00    -0.776 OA
HETATM   15  H   UNK N   1      35.160  18.477   6.076  0.00  0.00     0.167 HD
ENDBRANCH  12  14
ENDBRANCH  11  12
ENDBRANCH   1  11
TORSDOF 3
ENDMDL
MODEL 8
REMARK VINA RESULT:      -5.0      0.815      2.298
REMARK  3 active torsions:
REMARK  status: ('A' for Active; 'I' for Inactive)
REMARK    1  A    between atoms: O_1  and  C_2 
REMARK    2  A    between atoms: C_2  and  C_4 
REMARK    3  A    between atoms: C_4  and  C_5 
ROOT
HETATM    1  C   UNK N   1      22.170  12.649  10.077  0.00  0.00     0.029 A 
HETATM    2  C   UNK N   1      22.887  13.205   9.022  0.00  0.00     0.100 A 
HETATM    3  C   UNK N   1      22.295  14.195   8.246  0.00  0.00     0.251 A 
HETATM    4  O   UNK N   1      22.911  14.689   7.321  0.00  0.00    -0.268 OA
HETATM    5  N   UNK N   1      21.020  14.611   8.524  0.00  0.00    -0.275 N 
HETATM    6  C   UNK N   1      20.322  14.058   9.565  0.00  0.00     0.327 A 
HETATM    7  O   UNK N   1      19.190  14.433   9.806  0.00  0.00    -0.247 OA
HETATM    8  N   UNK N   1      20.902  13.081  10.334  0.00  0.00    -0.312 N 
HETATM    9  H   UNK N   1      20.603  15.312   7.973  0.00  0.00     0.173 HD
HETATM   10  H   UNK N   1      20.397  12.686  11.081  0.00  0.00     0.170 HD
ENDROOT
BRANCH   1  11
HETATM   11  C   UNK N   1      22.838  11.582  10.896  0.00  0.00     0.167 C 
BRANCH  11  12
HETATM   12  C   UNK N   1      23.718  11.999  12.041  0.00  0.00     0.145 C 
HETATM   13  O   UNK N   1      23.311  12.013  13.191  0.00  0.00    -0.650 OA
BRANCH  12  14
HETATM   14  O   UNK N   1      24.986  12.366  11.784  0.00  0.00    -0.776 OA
HETATM   15  H   UNK N   1      25.453  12.899  12.396  0.00  0.00     0.167 HD
ENDBRANCH  12  14
ENDBRANCH  11  12
ENDBRANCH   1  11
TORSDOF 3
ENDMDL
MODEL 9
REMARK VINA RESULT:      -4.9      8.261     10.958
REMARK  3 active torsions:
REMARK  status: ('A' for Active; 'I' for Inactive)
REMARK    1  A    between atoms: O_1  and  C_2 
REMARK    2  A    between atoms: C_2  and  C_4 
REMARK    3  A    between atoms: C_4  and  C_5 
ROOT
HETATM    1  C   UNK N   1      22.023  20.055   2.997  0.00  0.00     0.029 A 
HETATM    2  C   UNK N   1      21.936  19.002   3.904  0.00  0.00     0.100 A 
HETATM    3  C   UNK N   1      23.100  18.497   4.470  0.00  0.00     0.251 A 
HETATM    4  O   UNK N   1      23.038  17.578   5.264  0.00  0.00    -0.268 OA
HETATM    5  N   UNK N   1      24.314  19.035   4.134  0.00  0.00    -0.275 N 
HETATM    6  C   UNK N   1      24.389  20.071   3.240  0.00  0.00     0.327 A 
HETATM    7  O   UNK N   1      25.470  20.544   2.946  0.00  0.00    -0.247 OA
HETATM    8  N   UNK N   1      23.243  20.573   2.678  0.00  0.00    -0.312 N 
HETATM    9  H   UNK N   1      25.137  18.676   4.537  0.00  0.00     0.173 HD
HETATM   10  H   UNK N   1      23.301  21.317   2.037  0.00  0.00     0.170 HD
ENDROOT
BRANCH   1  11
HETATM   11  C   UNK N   1      20.746  20.577   2.403  0.00  0.00     0.167 C 
BRANCH  11  12
HETATM   12  C   UNK N   1      20.786  21.181   1.026  0.00  0.00     0.145 C 
HETATM   13  O   UNK N   1      21.223  20.564   0.069  0.00  0.00    -0.650 OA
BRANCH  12  14
HETATM   14  O   UNK N   1      20.327  22.432   0.855  0.00  0.00    -0.776 OA
HETATM   15  H   UNK N   1      19.452  22.650   1.111  0.00  0.00     0.167 HD
ENDBRANCH  12  14
ENDBRANCH  11  12
ENDBRANCH   1  11
TORSDOF 3
ENDMDL
