REMARK  11 active torsions:
REMARK  status: ('A' for Active; 'I' for Inactive)
REMARK    1  A    between atoms: C_6  and  C_3 
REMARK    2  A    between atoms: C_10  and  C_3 
REMARK    3  A    between atoms: C_12  and  C_6 
REMARK    4  A    between atoms: C_8  and  C_7 
REMARK    5  A    between atoms: C_13  and  C_7 
REMARK    6  A    between atoms: C_14  and  C_8 
REMARK    7  A    between atoms: C_17  and  C_11 
REMARK    8  A    between atoms: C_19  and  C_13 
REMARK    9  A    between atoms: C_13  and  N_24 
REMARK       I    between atoms: N_24  and  C_17 
REMARK   10  A    between atoms: O_35  and  C_18 
REMARK   11  A    between atoms: O_37  and  C_19 
REMARK       I    between atoms: N_21  and  C_20 
ROOT
HETATM    1  C   UNK N   1      -1.811  -0.170  -0.291  0.00  0.00     0.008 C 
HETATM    2  C   UNK N   1      -3.507  -1.844   0.138  0.00  0.00     0.008 C 
HETATM    3  C   UNK N   1      -2.472   0.733   0.537  0.00  0.00     0.017 C 
HETATM    4  C   UNK N   1      -4.162  -0.950   0.973  0.00  0.00     0.017 C 
HETATM    5  C   UNK N   1      -2.376  -1.423  -0.555  0.00  0.00    -0.058 C 
HETATM    6  C   UNK N   1      -3.702   0.375   1.093  0.00  0.00     0.032 C 
ENDROOT
BRANCH   5   7
HETATM    7  C   UNK N   1      -1.976  -2.124  -1.809  0.00  0.00     0.043 C 
BRANCH   7   8
HETATM    8  C   UNK N   1      -1.626  -3.585  -1.704  0.00  0.00     0.045 C 
BRANCH   8   9
HETATM    9  C   UNK N   1      -0.486  -3.838  -0.789  0.00  0.00    -0.024 A 
HETATM   10  C   UNK N   1      -0.401  -4.959   0.023  0.00  0.00     0.098 A 
HETATM   11  N   UNK N   1       0.742  -4.911   0.745  0.00  0.00    -0.350 N 
HETATM   12  C   UNK N   1       1.356  -3.770   0.387  0.00  0.00     0.136 A 
HETATM   13  H   UNK N   1       1.059  -5.575   1.399  0.00  0.00     0.166 HD
HETATM   14  C   UNK N   1       0.650  -3.083  -0.549  0.00  0.00     0.067 A 
HETATM   15  N   UNK N   1       2.532  -3.323   0.882  0.00  0.00    -0.176 N 
HETATM   16  C   UNK N   1       1.161  -1.869  -1.031  0.00  0.00     0.170 A 
HETATM   17  N   UNK N   1       2.344  -1.422  -0.523  0.00  0.00    -0.170 N 
HETATM   18  C   UNK N   1       3.025  -2.136   0.425  0.00  0.00     0.679 A 
ATOM     19  HN  UNK N   1       2.729  -0.538  -0.856  1.00  0.00     0.186 HD
HETATM   20  N   UNK N   1       4.131  -1.689   0.883  0.00  0.00    -0.234 N 
HETATM   21  H   UNK N   1       4.855  -2.255   1.236  0.00  0.00     0.174 HD
ATOM     22  HN  UNK N   1       4.273  -0.679   0.883  1.00  0.00     0.174 HD
HETATM   23  H   UNK N   1       3.022  -3.844   1.559  0.00  0.00     0.186 HD
BRANCH  16  24
HETATM   24  O   UNK N   1       0.531  -1.148  -1.972  0.00  0.00    -0.345 OA
HETATM   25  H   UNK N   1       0.748  -0.515  -2.628  0.00  0.00     0.219 HD
ENDBRANCH  16  24
ENDBRANCH   8   9
ENDBRANCH   7   8
ENDBRANCH   5   7
BRANCH   6  26
HETATM   26  C   UNK N   1      -4.741   1.417   1.155  0.00  0.00     0.252 C 
HETATM   27  N   UNK N   1      -6.004   0.962   0.993  0.00  0.00    -0.343 N 
HETATM   28  H   UNK N   1      -6.306   0.258   1.612  0.00  0.00     0.163 HD
HETATM   29  O   UNK N   1      -4.455   2.577   0.895  0.00  0.00    -0.268 OA
BRANCH  27  30
HETATM   30  C   UNK N   1      -6.951   1.409   0.001  0.00  0.00     0.183 C 
BRANCH  30  31
HETATM   31  C   UNK N   1      -8.007   0.323   0.039  0.00  0.00     0.044 C 
BRANCH  31  32
HETATM   32  C   UNK N   1      -9.024   0.278  -1.075  0.00  0.00     0.081 C 
BRANCH  32  33
HETATM   33  C   UNK N   1      -9.980  -0.774  -0.643  0.00  0.00     0.110 A 
HETATM   34  N   UNK N   1     -11.236  -0.538  -0.235  0.00  0.00    -0.275 N 
HETATM   35  N   UNK N   1     -11.696  -1.705   0.183  0.00  0.00    -0.225 N 
ATOM     36  HN  UNK N   1     -11.732   0.353  -0.245  1.00  0.00     0.189 HD
HETATM   37  N   UNK N   1     -10.753  -2.627   0.045  0.00  0.00    -0.005 NA
HETATM   38  H   UNK N   1     -12.600  -1.865   0.541  0.00  0.00     0.205 HD
HETATM   39  N   UNK N   1      -9.668  -2.070  -0.463  0.00  0.00    -0.271 N 
ATOM     40  HN  UNK N   1      -8.780  -2.526  -0.675  1.00  0.00     0.185 HD
ENDBRANCH  32  33
ENDBRANCH  31  32
ENDBRANCH  30  31
BRANCH  30  41
HETATM   41  C   UNK N   1      -7.506   2.786   0.248  0.00  0.00     0.163 C 
HETATM   42  O   UNK N   1      -6.770   3.758   0.221  0.00  0.00    -0.648 OA
BRANCH  41  43
HETATM   43  O   UNK N   1      -8.828   2.964   0.439  0.00  0.00    -0.775 OA
HETATM   44  H   UNK N   1      -9.180   3.822   0.572  0.00  0.00     0.167 HD
ENDBRANCH  41  43
ENDBRANCH  30  41
ENDBRANCH  27  30
ENDBRANCH   6  26
TORSDOF 11
