REMARK  2 active torsions:
REMARK  status: ('A' for Active; 'I' for Inactive)
REMARK    1  A    between atoms: C_8  and  C_7 
REMARK    2  A    between atoms: O_12  and  C_8 
ROOT
HETATM    1  C   UNK N   1       4.454   0.847  -0.000  0.00  0.00     0.002 A 
HETATM    2  C   UNK N   1       4.428   2.262   0.000  0.00  0.00     0.002 A 
HETATM    3  C   UNK N   1       3.254   0.111  -0.000  0.00  0.00     0.032 A 
HETATM    4  C   UNK N   1       3.200   2.954   0.000  0.00  0.00     0.032 A 
HETATM    5  C   UNK N   1       2.065   0.830  -0.000  0.00  0.00     0.060 A 
HETATM    6  C   UNK N   1       2.038   2.191   0.000  0.00  0.00     0.060 A 
HETATM    7  C   UNK N   1       0.042   1.468   0.000  0.00  0.00     0.181 A 
HETATM    8  N   UNK N   1       0.815   0.352  -0.000  0.00  0.00    -0.335 N 
HETATM    9  N   UNK N   1       0.767   2.617   0.000  0.00  0.00    -0.335 N 
ATOM     10  HN  UNK N   1       0.425   3.578   0.000  1.00  0.00     0.168 HD
HETATM   11  H   UNK N   1       0.524  -0.588  -0.000  0.00  0.00     0.168 HD
ENDROOT
BRANCH   7  12
HETATM   12  C   UNK N   1      -1.422   1.425  -0.000  0.00  0.00     0.212 C 
HETATM   13  O   UNK N   1      -2.068   2.460  -0.000  0.00  0.00    -0.644 OA
BRANCH  12  14
HETATM   14  O   UNK N   1      -2.058   0.239  -0.000  0.00  0.00    -0.771 OA
HETATM   15  H   UNK N   1      -2.995   0.209  -0.000  0.00  0.00     0.168 HD
ENDBRANCH  12  14
ENDBRANCH   7  12
TORSDOF 2
