MODEL 1
REMARK VINA RESULT:      -4.3      0.000      0.000
REMARK  3 active torsions:
REMARK  status: ('A' for Active; 'I' for Inactive)
REMARK    1  A    between atoms: N_1  and  C_2 
REMARK    2  A    between atoms: C_2  and  P_5 
REMARK    3  A    between atoms: P_5  and  O_6 
ROOT
HETATM    1  C   UNK N   1      34.583  16.565   9.398  0.00  0.00     0.130 A 
HETATM    2  C   UNK N   1      35.036  15.224   8.891  0.00  0.00     0.047 A 
HETATM    3  C   UNK N   1      33.573  15.460   9.297  0.00  0.00     0.047 A 
ENDROOT
BRANCH   1   4
HETATM    4  N   UNK N   1      34.973  16.875  10.763  0.00  0.00    -0.412 N 
HETATM    5  H   UNK N   1      35.826  17.379  11.004  0.00  0.00     0.151 HD
HETATM    6  H   UNK N   1      34.360  16.573  11.520  0.00  0.00     0.151 HD
ENDBRANCH   1   4
BRANCH   1   7
HETATM    7  P   UNK N   1      34.382  17.971   8.199  0.00  0.00     0.276 P 
HETATM    8  O   UNK N   1      34.597  17.556   6.526  0.00  0.00    -0.645 OA
HETATM    9  O   UNK N   1      32.920  18.486   8.263  0.00  0.00    -0.645 OA
BRANCH   7  10
HETATM   10  O   UNK N   1      35.333  19.389   8.510  0.00  0.00    -0.321 OA
HETATM   11  H   UNK N   1      35.216  20.180   9.060  0.00  0.00     0.221 HD
ENDBRANCH   7  10
ENDBRANCH   1   7
TORSDOF 3
ENDMDL
MODEL 2
REMARK VINA RESULT:      -3.8     18.182     18.381
REMARK  3 active torsions:
REMARK  status: ('A' for Active; 'I' for Inactive)
REMARK    1  A    between atoms: N_1  and  C_2 
REMARK    2  A    between atoms: C_2  and  P_5 
REMARK    3  A    between atoms: P_5  and  O_6 
ROOT
HETATM    1  C   UNK N   1      25.632  26.006  -5.336  0.00  0.00     0.130 A 
HETATM    2  C   UNK N   1      25.950  26.854  -6.535  0.00  0.00     0.047 A 
HETATM    3  C   UNK N   1      24.676  27.099  -5.713  0.00  0.00     0.047 A 
ENDROOT
BRANCH   1   4
HETATM    4  N   UNK N   1      25.138  24.672  -5.634  0.00  0.00    -0.412 N 
HETATM    5  H   UNK N   1      25.539  24.071  -6.354  0.00  0.00     0.151 HD
HETATM    6  H   UNK N   1      24.349  24.318  -5.094  0.00  0.00     0.151 HD
ENDBRANCH   1   4
BRANCH   1   7
HETATM    7  P   UNK N   1      26.587  26.259  -3.762  0.00  0.00     0.276 P 
HETATM    8  O   UNK N   1      25.931  27.448  -2.679  0.00  0.00    -0.645 OA
HETATM    9  O   UNK N   1      26.553  24.950  -2.932  0.00  0.00    -0.645 OA
BRANCH   7  10
HETATM   10  O   UNK N   1      28.281  26.594  -3.936  0.00  0.00    -0.321 OA
HETATM   11  H   UNK N   1      29.053  26.074  -4.209  0.00  0.00     0.221 HD
ENDBRANCH   7  10
ENDBRANCH   1   7
TORSDOF 3
ENDMDL
MODEL 3
REMARK VINA RESULT:      -3.8      3.003      3.385
REMARK  3 active torsions:
REMARK  status: ('A' for Active; 'I' for Inactive)
REMARK    1  A    between atoms: N_1  and  C_2 
REMARK    2  A    between atoms: C_2  and  P_5 
REMARK    3  A    between atoms: P_5  and  O_6 
ROOT
HETATM    1  C   UNK N   1      33.696  17.174   8.666  0.00  0.00     0.130 A 
HETATM    2  C   UNK N   1      34.085  17.203   7.215  0.00  0.00     0.047 A 
HETATM    3  C   UNK N   1      34.331  18.419   8.120  0.00  0.00     0.047 A 
ENDROOT
BRANCH   1   4
HETATM    4  N   UNK N   1      32.273  17.313   8.928  0.00  0.00    -0.412 N 
HETATM    5  H   UNK N   1      31.599  16.562   8.785  0.00  0.00     0.151 HD
HETATM    6  H   UNK N   1      31.932  18.209   9.275  0.00  0.00     0.151 HD
ENDBRANCH   1   4
BRANCH   1   7
HETATM    7  P   UNK N   1      34.721  16.190   9.865  0.00  0.00     0.276 P 
HETATM    8  O   UNK N   1      35.778  15.014   9.146  0.00  0.00    -0.645 OA
HETATM    9  O   UNK N   1      35.689  17.146  10.608  0.00  0.00    -0.645 OA
BRANCH   7  10
HETATM   10  O   UNK N   1      33.857  15.398  11.145  0.00  0.00    -0.321 OA
HETATM   11  H   UNK N   1      34.110  14.811  11.875  0.00  0.00     0.221 HD
ENDBRANCH   7  10
ENDBRANCH   1   7
TORSDOF 3
ENDMDL
MODEL 4
REMARK VINA RESULT:      -3.8      2.372      3.071
REMARK  3 active torsions:
REMARK  status: ('A' for Active; 'I' for Inactive)
REMARK    1  A    between atoms: N_1  and  C_2 
REMARK    2  A    between atoms: C_2  and  P_5 
REMARK    3  A    between atoms: P_5  and  O_6 
ROOT
HETATM    1  C   UNK N   1      32.381  17.169   8.362  0.00  0.00     0.130 A 
HETATM    2  C   UNK N   1      31.145  17.273   7.513  0.00  0.00     0.047 A 
HETATM    3  C   UNK N   1      31.433  18.304   8.615  0.00  0.00     0.047 A 
ENDROOT
BRANCH   1   4
HETATM    4  N   UNK N   1      32.343  16.139   9.388  0.00  0.00    -0.412 N 
HETATM    5  H   UNK N   1      31.480  15.719   9.731  0.00  0.00     0.151 HD
HETATM    6  H   UNK N   1      33.227  15.820   9.783  0.00  0.00     0.151 HD
ENDBRANCH   1   4
BRANCH   1   7
HETATM    7  P   UNK N   1      34.029  17.624   7.632  0.00  0.00     0.276 P 
HETATM    8  O   UNK N   1      34.809  18.994   8.359  0.00  0.00    -0.645 OA
HETATM    9  O   UNK N   1      35.029  16.463   7.875  0.00  0.00    -0.645 OA
BRANCH   7  10
HETATM   10  O   UNK N   1      34.071  17.854   5.913  0.00  0.00    -0.321 OA
HETATM   11  H   UNK N   1      34.730  17.688   5.220  0.00  0.00     0.221 HD
ENDBRANCH   7  10
ENDBRANCH   1   7
TORSDOF 3
ENDMDL
MODEL 5
REMARK VINA RESULT:      -3.7      2.549      2.896
REMARK  3 active torsions:
REMARK  status: ('A' for Active; 'I' for Inactive)
REMARK    1  A    between atoms: N_1  and  C_2 
REMARK    2  A    between atoms: C_2  and  P_5 
REMARK    3  A    between atoms: P_5  and  O_6 
ROOT
HETATM    1  C   UNK N   1      32.224  17.397   7.924  0.00  0.00     0.130 A 
HETATM    2  C   UNK N   1      31.606  16.047   7.695  0.00  0.00     0.047 A 
HETATM    3  C   UNK N   1      31.447  17.170   6.660  0.00  0.00     0.047 A 
ENDROOT
BRANCH   1   4
HETATM    4  N   UNK N   1      31.536  18.239   8.888  0.00  0.00    -0.412 N 
HETATM    5  H   UNK N   1      31.694  19.242   8.972  0.00  0.00     0.151 HD
HETATM    6  H   UNK N   1      30.859  17.802   9.513  0.00  0.00     0.151 HD
ENDBRANCH   1   4
BRANCH   1   7
HETATM    7  P   UNK N   1      34.062  17.603   7.729  0.00  0.00     0.276 P 
HETATM    8  O   UNK N   1      35.024  16.300   8.355  0.00  0.00    -0.645 OA
HETATM    9  O   UNK N   1      34.412  17.623   6.218  0.00  0.00    -0.645 OA
BRANCH   7  10
HETATM   10  O   UNK N   1      34.737  19.084   8.330  0.00  0.00    -0.321 OA
HETATM   11  H   UNK N   1      35.142  19.864   7.918  0.00  0.00     0.221 HD
ENDBRANCH   7  10
ENDBRANCH   1   7
TORSDOF 3
ENDMDL
MODEL 6
REMARK VINA RESULT:      -3.7     12.588     13.074
REMARK  3 active torsions:
REMARK  status: ('A' for Active; 'I' for Inactive)
REMARK    1  A    between atoms: N_1  and  C_2 
REMARK    2  A    between atoms: C_2  and  P_5 
REMARK    3  A    between atoms: P_5  and  O_6 
ROOT
HETATM    1  C   UNK N   1      44.631  22.237   3.464  0.00  0.00     0.130 A 
HETATM    2  C   UNK N   1      43.854  20.972   3.236  0.00  0.00     0.047 A 
HETATM    3  C   UNK N   1      43.386  22.007   4.269  0.00  0.00     0.047 A 
ENDROOT
BRANCH   1   4
HETATM    4  N   UNK N   1      45.857  22.082   4.229  0.00  0.00    -0.412 N 
HETATM    5  H   UNK N   1      46.768  22.405   3.905  0.00  0.00     0.151 HD
HETATM    6  H   UNK N   1      45.803  21.625   5.140  0.00  0.00     0.151 HD
ENDBRANCH   1   4
BRANCH   1   7
HETATM    7  P   UNK N   1      44.550  23.598   2.199  0.00  0.00     0.276 P 
HETATM    8  O   UNK N   1      42.964  23.941   1.581  0.00  0.00    -0.645 OA
HETATM    9  O   UNK N   1      44.981  24.932   2.862  0.00  0.00    -0.645 OA
BRANCH   7  10
HETATM   10  O   UNK N   1      45.617  23.448   0.839  0.00  0.00    -0.321 OA
HETATM   11  H   UNK N   1      46.550  23.664   0.679  0.00  0.00     0.221 HD
ENDBRANCH   7  10
ENDBRANCH   1   7
TORSDOF 3
ENDMDL
MODEL 7
REMARK VINA RESULT:      -3.7     17.890     18.152
REMARK  3 active torsions:
REMARK  status: ('A' for Active; 'I' for Inactive)
REMARK    1  A    between atoms: N_1  and  C_2 
REMARK    2  A    between atoms: C_2  and  P_5 
REMARK    3  A    between atoms: P_5  and  O_6 
ROOT
HETATM    1  C   UNK N   1      25.927  26.879  -4.261  0.00  0.00     0.130 A 
HETATM    2  C   UNK N   1      24.985  27.463  -5.276  0.00  0.00     0.047 A 
HETATM    3  C   UNK N   1      26.490  27.769  -5.330  0.00  0.00     0.047 A 
ENDROOT
BRANCH   1   4
HETATM    4  N   UNK N   1      25.886  27.500  -2.947  0.00  0.00    -0.412 N 
HETATM    5  H   UNK N   1      26.506  28.257  -2.664  0.00  0.00     0.151 HD
HETATM    6  H   UNK N   1      25.200  27.159  -2.274  0.00  0.00     0.151 HD
ENDBRANCH   1   4
BRANCH   1   7
HETATM    7  P   UNK N   1      26.383  25.079  -4.370  0.00  0.00     0.276 P 
HETATM    8  O   UNK N   1      25.356  24.115  -5.386  0.00  0.00    -0.645 OA
HETATM    9  O   UNK N   1      27.779  24.950  -5.033  0.00  0.00    -0.645 OA
BRANCH   7  10
HETATM   10  O   UNK N   1      26.561  24.239  -2.863  0.00  0.00    -0.321 OA
HETATM   11  H   UNK N   1      26.071  23.529  -2.417  0.00  0.00     0.221 HD
ENDBRANCH   7  10
ENDBRANCH   1   7
TORSDOF 3
ENDMDL
MODEL 8
REMARK VINA RESULT:      -3.5     11.356     11.767
REMARK  3 active torsions:
REMARK  status: ('A' for Active; 'I' for Inactive)
REMARK    1  A    between atoms: N_1  and  C_2 
REMARK    2  A    between atoms: C_2  and  P_5 
REMARK    3  A    between atoms: P_5  and  O_6 
ROOT
HETATM    1  C   UNK N   1      43.214  22.695   3.096  0.00  0.00     0.130 A 
HETATM    2  C   UNK N   1      44.389  21.801   2.815  0.00  0.00     0.047 A 
HETATM    3  C   UNK N   1      43.348  21.423   3.879  0.00  0.00     0.047 A 
ENDROOT
BRANCH   1   4
HETATM    4  N   UNK N   1      43.515  23.889   3.868  0.00  0.00    -0.412 N 
HETATM    5  H   UNK N   1      43.271  24.832   3.564  0.00  0.00     0.151 HD
HETATM    6  H   UNK N   1      43.995  23.778   4.761  0.00  0.00     0.151 HD
ENDBRANCH   1   4
BRANCH   1   7
HETATM    7  P   UNK N   1      41.810  22.764   1.879  0.00  0.00     0.276 P 
HETATM    8  O   UNK N   1      40.365  21.935   2.367  0.00  0.00    -0.645 OA
HETATM    9  O   UNK N   1      41.351  24.237   1.718  0.00  0.00    -0.645 OA
BRANCH   7  10
HETATM   10  O   UNK N   1      42.174  22.265   0.257  0.00  0.00    -0.321 OA
HETATM   11  H   UNK N   1      41.837  22.506  -0.621  0.00  0.00     0.221 HD
ENDBRANCH   7  10
ENDBRANCH   1   7
TORSDOF 3
ENDMDL
MODEL 9
REMARK VINA RESULT:      -3.5      4.352      4.714
REMARK  3 active torsions:
REMARK  status: ('A' for Active; 'I' for Inactive)
REMARK    1  A    between atoms: N_1  and  C_2 
REMARK    2  A    between atoms: C_2  and  P_5 
REMARK    3  A    between atoms: P_5  and  O_6 
ROOT
HETATM    1  C   UNK N   1      36.275  14.000  12.175  0.00  0.00     0.130 A 
HETATM    2  C   UNK N   1      35.557  13.226  13.244  0.00  0.00     0.047 A 
HETATM    3  C   UNK N   1      36.310  14.521  13.582  0.00  0.00     0.047 A 
ENDROOT
BRANCH   1   4
HETATM    4  N   UNK N   1      37.536  13.425  11.736  0.00  0.00    -0.412 N 
HETATM    5  H   UNK N   1      38.444  13.732  12.081  0.00  0.00     0.151 HD
HETATM    6  H   UNK N   1      37.509  12.676  11.045  0.00  0.00     0.151 HD
ENDBRANCH   1   4
BRANCH   1   7
HETATM    7  P   UNK N   1      35.290  14.998  10.955  0.00  0.00     0.276 P 
HETATM    8  O   UNK N   1      35.849  16.623  10.703  0.00  0.00    -0.645 OA
HETATM    9  O   UNK N   1      35.410  14.347   9.553  0.00  0.00    -0.645 OA
BRANCH   7  10
HETATM   10  O   UNK N   1      33.578  15.075  11.230  0.00  0.00    -0.321 OA
HETATM   11  H   UNK N   1      32.878  15.703  10.991  0.00  0.00     0.221 HD
ENDBRANCH   7  10
ENDBRANCH   1   7
TORSDOF 3
ENDMDL
