MODEL 1
REMARK VINA RESULT:      -5.5      0.000      0.000
REMARK  12 active torsions:
REMARK  status: ('A' for Active; 'I' for Inactive)
REMARK    1  A    between atoms: C_2  and  C_1 
REMARK    2  A    between atoms: O_14  and  C_1 
REMARK    3  A    between atoms: C_3  and  C_2 
REMARK    4  A    between atoms: C_2  and  O_6 
REMARK    5  A    between atoms: C_4  and  C_3 
REMARK    6  A    between atoms: C_3  and  O_7 
REMARK    7  A    between atoms: C_5  and  C_4 
REMARK    8  A    between atoms: C_4  and  O_8 
REMARK    9  A    between atoms: O_10  and  C_5 
REMARK   10  A    between atoms: P_15  and  O_11 
REMARK   11  A    between atoms: P_15  and  O_12 
REMARK   12  A    between atoms: P_15  and  O_14 
ROOT
HETATM    1  C   UNK N   1      34.278  15.025  10.127  0.00  0.00     0.174 C 
ENDROOT
BRANCH   1   2
HETATM    2  C   UNK N   1      35.427  14.102  10.555  0.00  0.00     0.215 C 
BRANCH   2   3
HETATM    3  O   UNK N   1      36.353  14.762  11.380  0.00  0.00    -0.294 OA
BRANCH   3   4
HETATM    4  P   UNK N   1      36.329  14.002  12.960  0.00  0.00     0.390 P 
HETATM    5  O   UNK N   1      34.876  13.584  13.323  0.00  0.00    -0.632 OA
BRANCH   4   6
HETATM    6  O   UNK N   1      37.289  12.558  12.999  0.00  0.00    -0.307 OA
HETATM    7  H   UNK N   1      37.590  12.024  13.752  0.00  0.00     0.222 HD
ENDBRANCH   4   6
BRANCH   4   8
HETATM    8  O   UNK N   1      36.857  15.118  14.178  0.00  0.00    -0.307 OA
HETATM    9  H   UNK N   1      37.175  15.248  15.086  0.00  0.00     0.222 HD
ENDBRANCH   4   8
ENDBRANCH   3   4
ENDBRANCH   2   3
ENDBRANCH   1   2
BRANCH   1  10
HETATM   10  C   UNK N   1      34.777  16.449   9.802  0.00  0.00     0.188 C 
BRANCH  10  11
HETATM   11  C   UNK N   1      33.789  17.289   8.956  0.00  0.00     0.246 C 
BRANCH  11  12
HETATM   12  C   UNK N   1      34.531  18.241   8.046  0.00  0.00     0.172 C 
HETATM   13  O   UNK N   1      35.238  19.121   8.514  0.00  0.00    -0.648 OA
BRANCH  12  14
HETATM   14  O   UNK N   1      34.428  18.117   6.709  0.00  0.00    -0.774 OA
HETATM   15  H   UNK N   1      34.819  18.757   6.147  0.00  0.00     0.167 HD
ENDBRANCH  12  14
ENDBRANCH  11  12
BRANCH  11  16
HETATM   16  O   UNK N   1      32.987  16.443   8.184  0.00  0.00    -0.382 OA
HETATM   17  H   UNK N   1      32.111  16.179   8.505  0.00  0.00     0.210 HD
ENDBRANCH  11  16
ENDBRANCH  10  11
BRANCH  10  18
HETATM   18  O   UNK N   1      35.057  17.107  11.004  0.00  0.00    -0.390 OA
HETATM   19  H   UNK N   1      34.722  18.005  11.156  0.00  0.00     0.210 HD
ENDBRANCH  10  18
ENDBRANCH   1  10
BRANCH   1  20
HETATM   20  O   UNK N   1      33.288  15.052  11.112  0.00  0.00    -0.391 OA
HETATM   21  H   UNK N   1      32.939  14.223  11.472  0.00  0.00     0.210 HD
ENDBRANCH   1  20
TORSDOF 12
ENDMDL
MODEL 2
REMARK VINA RESULT:      -5.5      2.289      6.138
REMARK  12 active torsions:
REMARK  status: ('A' for Active; 'I' for Inactive)
REMARK    1  A    between atoms: C_2  and  C_1 
REMARK    2  A    between atoms: O_14  and  C_1 
REMARK    3  A    between atoms: C_3  and  C_2 
REMARK    4  A    between atoms: C_2  and  O_6 
REMARK    5  A    between atoms: C_4  and  C_3 
REMARK    6  A    between atoms: C_3  and  O_7 
REMARK    7  A    between atoms: C_5  and  C_4 
REMARK    8  A    between atoms: C_4  and  O_8 
REMARK    9  A    between atoms: O_10  and  C_5 
REMARK   10  A    between atoms: P_15  and  O_11 
REMARK   11  A    between atoms: P_15  and  O_12 
REMARK   12  A    between atoms: P_15  and  O_14 
ROOT
HETATM    1  C   UNK N   1      35.920  15.537  10.334  0.00  0.00     0.174 C 
ENDROOT
BRANCH   1   2
HETATM    2  C   UNK N   1      34.979  16.687   9.953  0.00  0.00     0.215 C 
BRANCH   2   3
HETATM    3  O   UNK N   1      34.292  16.430   8.754  0.00  0.00    -0.294 OA
BRANCH   3   4
HETATM    4  P   UNK N   1      34.038  17.953   7.923  0.00  0.00     0.390 P 
HETATM    5  O   UNK N   1      35.051  19.013   8.440  0.00  0.00    -0.632 OA
BRANCH   4   6
HETATM    6  O   UNK N   1      34.294  17.808   6.214  0.00  0.00    -0.307 OA
HETATM    7  H   UNK N   1      35.104  17.911   5.690  0.00  0.00     0.222 HD
ENDBRANCH   4   6
BRANCH   4   8
HETATM    8  O   UNK N   1      32.448  18.565   8.252  0.00  0.00    -0.307 OA
HETATM    9  H   UNK N   1      31.757  18.733   8.912  0.00  0.00     0.222 HD
ENDBRANCH   4   8
ENDBRANCH   3   4
ENDBRANCH   2   3
ENDBRANCH   1   2
BRANCH   1  10
HETATM   10  C   UNK N   1      35.218  14.494  11.231  0.00  0.00     0.188 C 
BRANCH  10  11
HETATM   11  C   UNK N   1      35.897  14.281  12.605  0.00  0.00     0.246 C 
BRANCH  11  12
HETATM   12  C   UNK N   1      35.075  13.359  13.477  0.00  0.00     0.172 C 
HETATM   13  O   UNK N   1      35.066  13.499  14.691  0.00  0.00    -0.648 OA
BRANCH  12  14
HETATM   14  O   UNK N   1      34.334  12.383  12.919  0.00  0.00    -0.774 OA
HETATM   15  H   UNK N   1      33.465  12.566  12.620  0.00  0.00     0.167 HD
ENDBRANCH  12  14
ENDBRANCH  11  12
BRANCH  11  16
HETATM   16  O   UNK N   1      37.171  13.731  12.426  0.00  0.00    -0.382 OA
HETATM   17  H   UNK N   1      37.739  14.048  11.706  0.00  0.00     0.210 HD
ENDBRANCH  11  16
ENDBRANCH  10  11
BRANCH  10  18
HETATM   18  O   UNK N   1      33.887  14.886  11.410  0.00  0.00    -0.390 OA
HETATM   19  H   UNK N   1      33.680  15.680  11.929  0.00  0.00     0.210 HD
ENDBRANCH  10  18
ENDBRANCH   1  10
BRANCH   1  20
HETATM   20  O   UNK N   1      37.069  16.037  10.951  0.00  0.00    -0.391 OA
HETATM   21  H   UNK N   1      37.943  15.853  10.571  0.00  0.00     0.210 HD
ENDBRANCH   1  20
TORSDOF 12
ENDMDL
MODEL 3
REMARK VINA RESULT:      -5.3     15.515     17.116
REMARK  12 active torsions:
REMARK  status: ('A' for Active; 'I' for Inactive)
REMARK    1  A    between atoms: C_2  and  C_1 
REMARK    2  A    between atoms: O_14  and  C_1 
REMARK    3  A    between atoms: C_3  and  C_2 
REMARK    4  A    between atoms: C_2  and  O_6 
REMARK    5  A    between atoms: C_4  and  C_3 
REMARK    6  A    between atoms: C_3  and  O_7 
REMARK    7  A    between atoms: C_5  and  C_4 
REMARK    8  A    between atoms: C_4  and  O_8 
REMARK    9  A    between atoms: O_10  and  C_5 
REMARK   10  A    between atoms: P_15  and  O_11 
REMARK   11  A    between atoms: P_15  and  O_12 
REMARK   12  A    between atoms: P_15  and  O_14 
ROOT
HETATM    1  C   UNK N   1      20.862  18.760   4.008  0.00  0.00     0.174 C 
ENDROOT
BRANCH   1   2
HETATM    2  C   UNK N   1      20.494  17.344   3.546  0.00  0.00     0.215 C 
BRANCH   2   3
HETATM    3  O   UNK N   1      21.473  16.793   2.704  0.00  0.00    -0.294 OA
BRANCH   3   4
HETATM    4  P   UNK N   1      20.669  15.953   1.392  0.00  0.00     0.390 P 
HETATM    5  O   UNK N   1      20.276  16.965   0.278  0.00  0.00    -0.632 OA
BRANCH   4   6
HETATM    6  O   UNK N   1      21.700  14.771   0.651  0.00  0.00    -0.307 OA
HETATM    7  H   UNK N   1      22.539  14.390   0.956  0.00  0.00     0.222 HD
ENDBRANCH   4   6
BRANCH   4   8
HETATM    8  O   UNK N   1      19.201  15.217   1.951  0.00  0.00    -0.307 OA
HETATM    9  H   UNK N   1      18.351  15.331   2.406  0.00  0.00     0.222 HD
ENDBRANCH   4   8
ENDBRANCH   3   4
ENDBRANCH   2   3
ENDBRANCH   1   2
BRANCH   1  10
HETATM   10  C   UNK N   1      20.331  19.836   3.036  0.00  0.00     0.188 C 
BRANCH  10  11
HETATM   11  C   UNK N   1      21.433  20.536   2.203  0.00  0.00     0.246 C 
BRANCH  11  12
HETATM   12  C   UNK N   1      20.883  21.029   0.884  0.00  0.00     0.172 C 
HETATM   13  O   UNK N   1      20.826  20.283  -0.082  0.00  0.00    -0.648 OA
BRANCH  12  14
HETATM   14  O   UNK N   1      20.438  22.295   0.768  0.00  0.00    -0.774 OA
HETATM   15  H   UNK N   1      19.529  22.460   0.611  0.00  0.00     0.167 HD
ENDBRANCH  12  14
ENDBRANCH  11  12
BRANCH  11  16
HETATM   16  O   UNK N   1      21.955  21.618   2.919  0.00  0.00    -0.382 OA
HETATM   17  H   UNK N   1      21.428  22.423   3.034  0.00  0.00     0.210 HD
ENDBRANCH  11  16
ENDBRANCH  10  11
BRANCH  10  18
HETATM   18  O   UNK N   1      19.393  19.243   2.185  0.00  0.00    -0.390 OA
HETATM   19  H   UNK N   1      19.028  19.744   1.439  0.00  0.00     0.210 HD
ENDBRANCH  10  18
ENDBRANCH   1  10
BRANCH   1  20
HETATM   20  O   UNK N   1      22.244  18.871   4.173  0.00  0.00    -0.391 OA
HETATM   21  H   UNK N   1      22.764  19.412   3.559  0.00  0.00     0.210 HD
ENDBRANCH   1  20
TORSDOF 12
ENDMDL
MODEL 4
REMARK VINA RESULT:      -5.0      2.422      5.425
REMARK  12 active torsions:
REMARK  status: ('A' for Active; 'I' for Inactive)
REMARK    1  A    between atoms: C_2  and  C_1 
REMARK    2  A    between atoms: O_14  and  C_1 
REMARK    3  A    between atoms: C_3  and  C_2 
REMARK    4  A    between atoms: C_2  and  O_6 
REMARK    5  A    between atoms: C_4  and  C_3 
REMARK    6  A    between atoms: C_3  and  O_7 
REMARK    7  A    between atoms: C_5  and  C_4 
REMARK    8  A    between atoms: C_4  and  O_8 
REMARK    9  A    between atoms: O_10  and  C_5 
REMARK   10  A    between atoms: P_15  and  O_11 
REMARK   11  A    between atoms: P_15  and  O_12 
REMARK   12  A    between atoms: P_15  and  O_14 
ROOT
HETATM    1  C   UNK N   1      34.084  15.342  10.440  0.00  0.00     0.174 C 
ENDROOT
BRANCH   1   2
HETATM    2  C   UNK N   1      34.063  15.483   8.912  0.00  0.00     0.215 C 
BRANCH   2   3
HETATM    3  O   UNK N   1      35.039  16.383   8.453  0.00  0.00    -0.294 OA
BRANCH   3   4
HETATM    4  P   UNK N   1      34.233  17.835   7.890  0.00  0.00     0.390 P 
HETATM    5  O   UNK N   1      35.001  19.092   8.387  0.00  0.00    -0.632 OA
BRANCH   4   6
HETATM    6  O   UNK N   1      34.194  17.925   6.158  0.00  0.00    -0.307 OA
HETATM    7  H   UNK N   1      34.837  18.297   5.534  0.00  0.00     0.222 HD
ENDBRANCH   4   6
BRANCH   4   8
HETATM    8  O   UNK N   1      32.628  17.930   8.542  0.00  0.00    -0.307 OA
HETATM    9  H   UNK N   1      31.678  18.018   8.366  0.00  0.00     0.222 HD
ENDBRANCH   4   8
ENDBRANCH   3   4
ENDBRANCH   2   3
ENDBRANCH   1   2
BRANCH   1  10
HETATM   10  C   UNK N   1      35.050  14.229  10.900  0.00  0.00     0.188 C 
BRANCH  10  11
HETATM   11  C   UNK N   1      36.488  14.721  11.198  0.00  0.00     0.246 C 
BRANCH  11  12
HETATM   12  C   UNK N   1      37.495  14.009  10.323  0.00  0.00     0.172 C 
HETATM   13  O   UNK N   1      37.333  13.949   9.114  0.00  0.00    -0.648 OA
BRANCH  12  14
HETATM   14  O   UNK N   1      38.587  13.444  10.873  0.00  0.00    -0.774 OA
HETATM   15  H   UNK N   1      38.923  12.640  10.528  0.00  0.00     0.167 HD
ENDBRANCH  12  14
ENDBRANCH  11  12
BRANCH  11  16
HETATM   16  O   UNK N   1      36.574  16.100  10.974  0.00  0.00    -0.382 OA
HETATM   17  H   UNK N   1      37.393  16.574  11.185  0.00  0.00     0.210 HD
ENDBRANCH  11  16
ENDBRANCH  10  11
BRANCH  10  18
HETATM   18  O   UNK N   1      34.511  13.613  12.034  0.00  0.00    -0.390 OA
HETATM   19  H   UNK N   1      34.399  14.119  12.855  0.00  0.00     0.210 HD
ENDBRANCH  10  18
ENDBRANCH   1  10
BRANCH   1  20
HETATM   20  O   UNK N   1      32.793  15.117  10.923  0.00  0.00    -0.391 OA
HETATM   21  H   UNK N   1      32.626  15.115  11.878  0.00  0.00     0.210 HD
ENDBRANCH   1  20
TORSDOF 12
ENDMDL
MODEL 5
REMARK VINA RESULT:      -4.9      2.944      6.494
REMARK  12 active torsions:
REMARK  status: ('A' for Active; 'I' for Inactive)
REMARK    1  A    between atoms: C_2  and  C_1 
REMARK    2  A    between atoms: O_14  and  C_1 
REMARK    3  A    between atoms: C_3  and  C_2 
REMARK    4  A    between atoms: C_2  and  O_6 
REMARK    5  A    between atoms: C_4  and  C_3 
REMARK    6  A    between atoms: C_3  and  O_7 
REMARK    7  A    between atoms: C_5  and  C_4 
REMARK    8  A    between atoms: C_4  and  O_8 
REMARK    9  A    between atoms: O_10  and  C_5 
REMARK   10  A    between atoms: P_15  and  O_11 
REMARK   11  A    between atoms: P_15  and  O_12 
REMARK   12  A    between atoms: P_15  and  O_14 
ROOT
HETATM    1  C   UNK N   1      36.196  13.171  12.763  0.00  0.00     0.174 C 
ENDROOT
BRANCH   1   2
HETATM    2  C   UNK N   1      35.126  13.512  11.717  0.00  0.00     0.215 C 
BRANCH   2   3
HETATM    3  O   UNK N   1      34.701  14.847  11.814  0.00  0.00    -0.294 OA
BRANCH   3   4
HETATM    4  P   UNK N   1      35.481  15.772  10.545  0.00  0.00     0.390 P 
HETATM    5  O   UNK N   1      34.918  17.221  10.524  0.00  0.00    -0.632 OA
BRANCH   4   6
HETATM    6  O   UNK N   1      37.192  15.905  10.799  0.00  0.00    -0.307 OA
HETATM    7  H   UNK N   1      37.925  15.873  10.163  0.00  0.00     0.222 HD
ENDBRANCH   4   6
BRANCH   4   8
HETATM    8  O   UNK N   1      35.148  15.073   8.992  0.00  0.00    -0.307 OA
HETATM    9  H   UNK N   1      34.534  14.997   8.245  0.00  0.00     0.222 HD
ENDBRANCH   4   8
ENDBRANCH   3   4
ENDBRANCH   2   3
ENDBRANCH   1   2
BRANCH   1  10
HETATM   10  C   UNK N   1      36.061  14.047  14.027  0.00  0.00     0.188 C 
BRANCH  10  11
HETATM   11  C   UNK N   1      36.437  13.322  15.342  0.00  0.00     0.246 C 
BRANCH  11  12
HETATM   12  C   UNK N   1      35.204  13.014  16.161  0.00  0.00     0.172 C 
HETATM   13  O   UNK N   1      34.094  13.060  15.653  0.00  0.00    -0.648 OA
BRANCH  12  14
HETATM   14  O   UNK N   1      35.322  12.673  17.459  0.00  0.00    -0.774 OA
HETATM   15  H   UNK N   1      36.164  12.682  17.872  0.00  0.00     0.167 HD
ENDBRANCH  12  14
ENDBRANCH  11  12
BRANCH  11  16
HETATM   16  O   UNK N   1      37.110  12.130  15.053  0.00  0.00    -0.382 OA
HETATM   17  H   UNK N   1      37.416  11.560  15.774  0.00  0.00     0.210 HD
ENDBRANCH  11  16
ENDBRANCH  10  11
BRANCH  10  18
HETATM   18  O   UNK N   1      36.854  15.187  13.865  0.00  0.00    -0.390 OA
HETATM   19  H   UNK N   1      37.795  15.098  13.646  0.00  0.00     0.210 HD
ENDBRANCH  10  18
ENDBRANCH   1  10
BRANCH   1  20
HETATM   20  O   UNK N   1      37.472  13.287  12.206  0.00  0.00    -0.391 OA
HETATM   21  H   UNK N   1      38.148  13.822  12.650  0.00  0.00     0.210 HD
ENDBRANCH   1  20
TORSDOF 12
ENDMDL
MODEL 6
REMARK VINA RESULT:      -4.8      1.886      2.968
REMARK  12 active torsions:
REMARK  status: ('A' for Active; 'I' for Inactive)
REMARK    1  A    between atoms: C_2  and  C_1 
REMARK    2  A    between atoms: O_14  and  C_1 
REMARK    3  A    between atoms: C_3  and  C_2 
REMARK    4  A    between atoms: C_2  and  O_6 
REMARK    5  A    between atoms: C_4  and  C_3 
REMARK    6  A    between atoms: C_3  and  O_7 
REMARK    7  A    between atoms: C_5  and  C_4 
REMARK    8  A    between atoms: C_4  and  O_8 
REMARK    9  A    between atoms: O_10  and  C_5 
REMARK   10  A    between atoms: P_15  and  O_11 
REMARK   11  A    between atoms: P_15  and  O_12 
REMARK   12  A    between atoms: P_15  and  O_14 
ROOT
HETATM    1  C   UNK N   1      35.214  13.127  11.644  0.00  0.00     0.174 C 
ENDROOT
BRANCH   1   2
HETATM    2  C   UNK N   1      35.141  12.644  13.099  0.00  0.00     0.215 C 
BRANCH   2   3
HETATM    3  O   UNK N   1      35.179  13.712  14.011  0.00  0.00    -0.294 OA
BRANCH   3   4
HETATM    4  P   UNK N   1      36.335  13.325  15.271  0.00  0.00     0.390 P 
HETATM    5  O   UNK N   1      35.606  13.204  16.639  0.00  0.00    -0.632 OA
BRANCH   4   6
HETATM    6  O   UNK N   1      37.118  11.803  14.986  0.00  0.00    -0.307 OA
HETATM    7  H   UNK N   1      37.200  11.282  14.171  0.00  0.00     0.222 HD
ENDBRANCH   4   6
BRANCH   4   8
HETATM    8  O   UNK N   1      37.508  14.593  15.429  0.00  0.00    -0.307 OA
HETATM    9  H   UNK N   1      37.696  15.544  15.377  0.00  0.00     0.222 HD
ENDBRANCH   4   8
ENDBRANCH   3   4
ENDBRANCH   2   3
ENDBRANCH   1   2
BRANCH   1  10
HETATM   10  C   UNK N   1      35.027  14.655  11.537  0.00  0.00     0.188 C 
BRANCH  10  11
HETATM   11  C   UNK N   1      35.825  15.312  10.385  0.00  0.00     0.246 C 
BRANCH  11  12
HETATM   12  C   UNK N   1      34.922  16.155   9.513  0.00  0.00     0.172 C 
HETATM   13  O   UNK N   1      34.548  15.741   8.426  0.00  0.00    -0.648 OA
BRANCH  12  14
HETATM   14  O   UNK N   1      34.512  17.366   9.936  0.00  0.00    -0.774 OA
HETATM   15  H   UNK N   1      34.124  17.967   9.331  0.00  0.00     0.167 HD
ENDBRANCH  12  14
ENDBRANCH  11  12
BRANCH  11  16
HETATM   16  O   UNK N   1      36.842  16.117  10.910  0.00  0.00    -0.382 OA
HETATM   17  H   UNK N   1      37.545  15.721  11.448  0.00  0.00     0.210 HD
ENDBRANCH  11  16
ENDBRANCH  10  11
BRANCH  10  18
HETATM   18  O   UNK N   1      33.662  14.927  11.389  0.00  0.00    -0.390 OA
HETATM   19  H   UNK N   1      33.169  14.545  10.646  0.00  0.00     0.210 HD
ENDBRANCH  10  18
ENDBRANCH   1  10
BRANCH   1  20
HETATM   20  O   UNK N   1      34.276  12.450  10.862  0.00  0.00    -0.391 OA
HETATM   21  H   UNK N   1      34.224  11.482  10.895  0.00  0.00     0.210 HD
ENDBRANCH   1  20
TORSDOF 12
ENDMDL
MODEL 7
REMARK VINA RESULT:      -4.7      2.475      5.754
REMARK  12 active torsions:
REMARK  status: ('A' for Active; 'I' for Inactive)
REMARK    1  A    between atoms: C_2  and  C_1 
REMARK    2  A    between atoms: O_14  and  C_1 
REMARK    3  A    between atoms: C_3  and  C_2 
REMARK    4  A    between atoms: C_2  and  O_6 
REMARK    5  A    between atoms: C_4  and  C_3 
REMARK    6  A    between atoms: C_3  and  O_7 
REMARK    7  A    between atoms: C_5  and  C_4 
REMARK    8  A    between atoms: C_4  and  O_8 
REMARK    9  A    between atoms: O_10  and  C_5 
REMARK   10  A    between atoms: P_15  and  O_11 
REMARK   11  A    between atoms: P_15  and  O_12 
REMARK   12  A    between atoms: P_15  and  O_14 
ROOT
HETATM    1  C   UNK N   1      33.665  15.598   9.813  0.00  0.00     0.174 C 
ENDROOT
BRANCH   1   2
HETATM    2  C   UNK N   1      33.106  15.375   8.402  0.00  0.00     0.215 C 
BRANCH   2   3
HETATM    3  O   UNK N   1      34.014  15.773   7.406  0.00  0.00    -0.294 OA
BRANCH   3   4
HETATM    4  P   UNK N   1      33.758  17.474   7.068  0.00  0.00     0.390 P 
HETATM    5  O   UNK N   1      32.326  17.891   7.509  0.00  0.00    -0.632 OA
BRANCH   4   6
HETATM    6  O   UNK N   1      34.864  18.482   7.944  0.00  0.00    -0.307 OA
HETATM    7  H   UNK N   1      35.740  18.282   8.312  0.00  0.00     0.222 HD
ENDBRANCH   4   6
BRANCH   4   8
HETATM    8  O   UNK N   1      33.874  17.778   5.364  0.00  0.00    -0.307 OA
HETATM    9  H   UNK N   1      34.381  17.661   4.546  0.00  0.00     0.222 HD
ENDBRANCH   4   8
ENDBRANCH   3   4
ENDBRANCH   2   3
ENDBRANCH   1   2
BRANCH   1  10
HETATM   10  C   UNK N   1      35.117  15.087   9.942  0.00  0.00     0.188 C 
BRANCH  10  11
HETATM   11  C   UNK N   1      35.840  15.554  11.229  0.00  0.00     0.246 C 
BRANCH  11  12
HETATM   12  C   UNK N   1      35.969  14.418  12.219  0.00  0.00     0.172 C 
HETATM   13  O   UNK N   1      35.000  14.044  12.863  0.00  0.00    -0.648 OA
BRANCH  12  14
HETATM   14  O   UNK N   1      37.153  13.800  12.388  0.00  0.00    -0.774 OA
HETATM   15  H   UNK N   1      37.436  13.555  13.247  0.00  0.00     0.167 HD
ENDBRANCH  12  14
ENDBRANCH  11  12
BRANCH  11  16
HETATM   16  O   UNK N   1      37.114  16.035  10.910  0.00  0.00    -0.382 OA
HETATM   17  H   UNK N   1      37.900  15.619  11.296  0.00  0.00     0.210 HD
ENDBRANCH  11  16
ENDBRANCH  10  11
BRANCH  10  18
HETATM   18  O   UNK N   1      35.103  13.690   9.880  0.00  0.00    -0.390 OA
HETATM   19  H   UNK N   1      34.542  13.182  10.487  0.00  0.00     0.210 HD
ENDBRANCH  10  18
ENDBRANCH   1  10
BRANCH   1  20
HETATM   20  O   UNK N   1      32.836  14.998  10.763  0.00  0.00    -0.391 OA
HETATM   21  H   UNK N   1      32.705  15.418  11.627  0.00  0.00     0.210 HD
ENDBRANCH   1  20
TORSDOF 12
ENDMDL
MODEL 8
REMARK VINA RESULT:      -4.6      2.315      5.483
REMARK  12 active torsions:
REMARK  status: ('A' for Active; 'I' for Inactive)
REMARK    1  A    between atoms: C_2  and  C_1 
REMARK    2  A    between atoms: O_14  and  C_1 
REMARK    3  A    between atoms: C_3  and  C_2 
REMARK    4  A    between atoms: C_2  and  O_6 
REMARK    5  A    between atoms: C_4  and  C_3 
REMARK    6  A    between atoms: C_3  and  O_7 
REMARK    7  A    between atoms: C_5  and  C_4 
REMARK    8  A    between atoms: C_4  and  O_8 
REMARK    9  A    between atoms: O_10  and  C_5 
REMARK   10  A    between atoms: P_15  and  O_11 
REMARK   11  A    between atoms: P_15  and  O_12 
REMARK   12  A    between atoms: P_15  and  O_14 
ROOT
HETATM    1  C   UNK N   1      34.700  15.223  11.203  0.00  0.00     0.174 C 
ENDROOT
BRANCH   1   2
HETATM    2  C   UNK N   1      34.503  15.227   9.682  0.00  0.00     0.215 C 
BRANCH   2   3
HETATM    3  O   UNK N   1      33.447  16.067   9.289  0.00  0.00    -0.294 OA
BRANCH   3   4
HETATM    4  P   UNK N   1      34.123  17.461   8.469  0.00  0.00     0.390 P 
HETATM    5  O   UNK N   1      34.749  17.026   7.114  0.00  0.00    -0.632 OA
BRANCH   4   6
HETATM    6  O   UNK N   1      32.911  18.647   8.102  0.00  0.00    -0.307 OA
HETATM    7  H   UNK N   1      32.732  19.509   8.512  0.00  0.00     0.222 HD
ENDBRANCH   4   6
BRANCH   4   8
HETATM    8  O   UNK N   1      35.397  18.164   9.415  0.00  0.00    -0.307 OA
HETATM    9  H   UNK N   1      35.643  18.749  10.149  0.00  0.00     0.222 HD
ENDBRANCH   4   8
ENDBRANCH   3   4
ENDBRANCH   2   3
ENDBRANCH   1   2
BRANCH   1  10
HETATM   10  C   UNK N   1      36.191  15.112  11.588  0.00  0.00     0.188 C 
BRANCH  10  11
HETATM   11  C   UNK N   1      36.735  13.662  11.600  0.00  0.00     0.246 C 
BRANCH  11  12
HETATM   12  C   UNK N   1      37.742  13.454  10.491  0.00  0.00     0.172 C 
HETATM   13  O   UNK N   1      37.369  13.252   9.346  0.00  0.00    -0.648 OA
BRANCH  12  14
HETATM   14  O   UNK N   1      39.061  13.501  10.758  0.00  0.00    -0.774 OA
HETATM   15  H   UNK N   1      39.600  12.753  10.594  0.00  0.00     0.167 HD
ENDBRANCH  12  14
ENDBRANCH  11  12
BRANCH  11  16
HETATM   16  O   UNK N   1      37.342  13.393  12.832  0.00  0.00    -0.382 OA
HETATM   17  H   UNK N   1      38.309  13.348  12.896  0.00  0.00     0.210 HD
ENDBRANCH  11  16
ENDBRANCH  10  11
BRANCH  10  18
HETATM   18  O   UNK N   1      36.939  15.896  10.704  0.00  0.00    -0.390 OA
HETATM   19  H   UNK N   1      36.779  15.837   9.748  0.00  0.00     0.210 HD
ENDBRANCH  10  18
ENDBRANCH   1  10
BRANCH   1  20
HETATM   20  O   UNK N   1      33.953  14.196  11.785  0.00  0.00    -0.391 OA
HETATM   21  H   UNK N   1      33.577  13.496  11.231  0.00  0.00     0.210 HD
ENDBRANCH   1  20
TORSDOF 12
ENDMDL
MODEL 9
REMARK VINA RESULT:      -4.5      1.408      1.821
REMARK  12 active torsions:
REMARK  status: ('A' for Active; 'I' for Inactive)
REMARK    1  A    between atoms: C_2  and  C_1 
REMARK    2  A    between atoms: O_14  and  C_1 
REMARK    3  A    between atoms: C_3  and  C_2 
REMARK    4  A    between atoms: C_2  and  O_6 
REMARK    5  A    between atoms: C_4  and  C_3 
REMARK    6  A    between atoms: C_3  and  O_7 
REMARK    7  A    between atoms: C_5  and  C_4 
REMARK    8  A    between atoms: C_4  and  O_8 
REMARK    9  A    between atoms: O_10  and  C_5 
REMARK   10  A    between atoms: P_15  and  O_11 
REMARK   11  A    between atoms: P_15  and  O_12 
REMARK   12  A    between atoms: P_15  and  O_14 
ROOT
HETATM    1  C   UNK N   1      33.607  14.839   9.463  0.00  0.00     0.174 C 
ENDROOT
BRANCH   1   2
HETATM    2  C   UNK N   1      34.648  14.003  10.218  0.00  0.00     0.215 C 
BRANCH   2   3
HETATM    3  O   UNK N   1      34.681  14.314  11.588  0.00  0.00    -0.294 OA
BRANCH   3   4
HETATM    4  P   UNK N   1      36.324  14.750  12.018  0.00  0.00     0.390 P 
HETATM    5  O   UNK N   1      36.376  15.218  13.500  0.00  0.00    -0.632 OA
BRANCH   4   6
HETATM    6  O   UNK N   1      37.409  13.403  11.882  0.00  0.00    -0.307 OA
HETATM    7  H   UNK N   1      37.525  12.761  11.162  0.00  0.00     0.222 HD
ENDBRANCH   4   6
BRANCH   4   8
HETATM    8  O   UNK N   1      36.875  16.077  11.046  0.00  0.00    -0.307 OA
HETATM    9  H   UNK N   1      36.846  17.031  10.873  0.00  0.00     0.222 HD
ENDBRANCH   4   8
ENDBRANCH   3   4
ENDBRANCH   2   3
ENDBRANCH   1   2
BRANCH   1  10
HETATM   10  C   UNK N   1      34.189  16.189   8.992  0.00  0.00     0.188 C 
BRANCH  10  11
HETATM   11  C   UNK N   1      33.373  16.873   7.868  0.00  0.00     0.246 C 
BRANCH  11  12
HETATM   12  C   UNK N   1      34.176  16.954   6.589  0.00  0.00     0.172 C 
HETATM   13  O   UNK N   1      34.928  16.045   6.271  0.00  0.00    -0.648 OA
BRANCH  12  14
HETATM   14  O   UNK N   1      34.059  18.026   5.784  0.00  0.00    -0.774 OA
HETATM   15  H   UNK N   1      34.744  18.665   5.749  0.00  0.00     0.167 HD
ENDBRANCH  12  14
ENDBRANCH  11  12
BRANCH  11  16
HETATM   16  O   UNK N   1      32.197  16.155   7.630  0.00  0.00    -0.382 OA
HETATM   17  H   UNK N   1      32.235  15.198   7.481  0.00  0.00     0.210 HD
ENDBRANCH  11  16
ENDBRANCH  10  11
BRANCH  10  18
HETATM   18  O   UNK N   1      34.289  17.041  10.097  0.00  0.00    -0.390 OA
HETATM   19  H   UNK N   1      33.579  17.063  10.759  0.00  0.00     0.210 HD
ENDBRANCH  10  18
ENDBRANCH   1  10
BRANCH   1  20
HETATM   20  O   UNK N   1      32.473  15.031  10.255  0.00  0.00    -0.391 OA
HETATM   21  H   UNK N   1      31.908  15.807  10.114  0.00  0.00     0.210 HD
ENDBRANCH   1  20
TORSDOF 12
ENDMDL
