MODEL 1
REMARK VINA RESULT:      -5.2      0.000      0.000
REMARK  4 active torsions:
REMARK  status: ('A' for Active; 'I' for Inactive)
REMARK    1  A    between atoms: C_5  and  C_2 
REMARK    2  A    between atoms: N_16  and  C_2 
REMARK    3  A    between atoms: C_5  and  O_17 
REMARK    4  A    between atoms: N_9  and  C_7 
ROOT
HETATM    1  C   UNK N   1      35.397  16.722  10.990  0.00  0.00     0.183 A 
HETATM    2  C   UNK N   1      32.363  14.652   8.521  0.00  0.00     0.185 A 
HETATM    3  C   UNK N   1      33.751  14.724  10.145  0.00  0.00     0.122 A 
HETATM    4  C   UNK N   1      34.591  14.488  11.221  0.00  0.00     0.131 A 
HETATM    5  C   UNK N   1      33.759  15.923   9.530  0.00  0.00     0.140 A 
HETATM    6  N   UNK N   1      35.409  15.503  11.629  0.00  0.00    -0.337 N 
ATOM      7  HN  UNK N   1      36.037  15.356  12.419  1.00  0.00     0.168 HD
HETATM    8  N   UNK N   1      34.566  16.939   9.921  0.00  0.00    -0.336 N 
ATOM      9  HN  UNK N   1      34.556  17.836   9.435  1.00  0.00     0.168 HD
HETATM   10  N   UNK N   1      32.875  13.904   9.538  0.00  0.00    -0.346 N 
ATOM     11  HN  UNK N   1      32.645  12.941   9.783  1.00  0.00     0.167 HD
HETATM   12  N   UNK N   1      32.897  15.900   8.506  0.00  0.00    -0.325 N 
ENDROOT
BRANCH  12  13
HETATM   13  C   UNK N   1      32.648  16.956   7.526  0.00  0.00     0.162 C 
BRANCH  13  14
HETATM   14  C   UNK N   1      33.810  17.164   6.558  0.00  0.00     0.132 C 
HETATM   15  C   UNK N   1      33.244  17.522   5.199  0.00  0.00     0.041 C 
BRANCH  14  16
HETATM   16  O   UNK N   1      34.626  18.211   6.990  0.00  0.00    -0.394 OA
HETATM   17  H   UNK N   1      34.361  18.748   7.754  0.00  0.00     0.210 HD
ENDBRANCH  14  16
ENDBRANCH  13  14
ENDBRANCH  12  13
BRANCH   4  18
HETATM   18  N   UNK N   1      34.621  13.234  11.866  0.00  0.00    -0.383 N 
HETATM   19  H   UNK N   1      33.786  12.753  12.065  0.00  0.00     0.157 HD
HETATM   20  H   UNK N   1      35.485  12.837  12.120  0.00  0.00     0.157 HD
ENDBRANCH   4  18
TORSDOF 4
ENDMDL
MODEL 2
REMARK VINA RESULT:      -5.0      3.491      5.524
REMARK  4 active torsions:
REMARK  status: ('A' for Active; 'I' for Inactive)
REMARK    1  A    between atoms: C_5  and  C_2 
REMARK    2  A    between atoms: N_16  and  C_2 
REMARK    3  A    between atoms: C_5  and  O_17 
REMARK    4  A    between atoms: N_9  and  C_7 
ROOT
HETATM    1  C   UNK N   1      29.348  18.375   9.850  0.00  0.00     0.183 A 
HETATM    2  C   UNK N   1      31.055  16.977   6.014  0.00  0.00     0.185 A 
HETATM    3  C   UNK N   1      29.480  17.819   7.187  0.00  0.00     0.122 A 
HETATM    4  C   UNK N   1      28.304  18.337   7.704  0.00  0.00     0.131 A 
HETATM    5  C   UNK N   1      30.533  17.593   7.996  0.00  0.00     0.140 A 
HETATM    6  N   UNK N   1      28.258  18.609   9.042  0.00  0.00    -0.337 N 
ATOM      7  HN  UNK N   1      27.405  18.992   9.449  1.00  0.00     0.168 HD
HETATM    8  N   UNK N   1      30.502  17.854   9.326  0.00  0.00    -0.336 N 
ATOM      9  HN  UNK N   1      31.312  17.669   9.917  1.00  0.00     0.168 HD
HETATM   10  N   UNK N   1      29.780  17.450   5.930  0.00  0.00    -0.346 N 
ATOM     11  HN  UNK N   1      29.189  17.510   5.101  1.00  0.00     0.167 HD
HETATM   12  N   UNK N   1      31.533  17.062   7.282  0.00  0.00    -0.325 N 
ENDROOT
BRANCH  12  13
HETATM   13  C   UNK N   1      32.827  16.589   7.772  0.00  0.00     0.162 C 
BRANCH  13  14
HETATM   14  C   UNK N   1      33.815  17.720   8.049  0.00  0.00     0.132 C 
HETATM   15  C   UNK N   1      34.758  17.274   9.147  0.00  0.00     0.041 C 
BRANCH  14  16
HETATM   16  O   UNK N   1      34.565  18.003   6.906  0.00  0.00    -0.394 OA
HETATM   17  H   UNK N   1      34.726  17.308   6.247  0.00  0.00     0.210 HD
ENDBRANCH  14  16
ENDBRANCH  13  14
ENDBRANCH  12  13
BRANCH   4  18
HETATM   18  N   UNK N   1      27.178  18.561   6.885  0.00  0.00    -0.383 N 
HETATM   19  H   UNK N   1      26.454  17.896   6.835  0.00  0.00     0.157 HD
HETATM   20  H   UNK N   1      27.115  19.389   6.358  0.00  0.00     0.157 HD
ENDBRANCH   4  18
TORSDOF 4
ENDMDL
MODEL 3
REMARK VINA RESULT:      -4.8      3.666      5.594
REMARK  4 active torsions:
REMARK  status: ('A' for Active; 'I' for Inactive)
REMARK    1  A    between atoms: C_5  and  C_2 
REMARK    2  A    between atoms: N_16  and  C_2 
REMARK    3  A    between atoms: C_5  and  O_17 
REMARK    4  A    between atoms: N_9  and  C_7 
ROOT
HETATM    1  C   UNK N   1      28.199  16.521   6.187  0.00  0.00     0.183 A 
HETATM    2  C   UNK N   1      31.761  17.724   8.523  0.00  0.00     0.185 A 
HETATM    3  C   UNK N   1      29.650  17.652   8.195  0.00  0.00     0.122 A 
HETATM    4  C   UNK N   1      28.271  17.789   8.207  0.00  0.00     0.131 A 
HETATM    5  C   UNK N   1      30.254  16.974   7.200  0.00  0.00     0.140 A 
HETATM    6  N   UNK N   1      27.562  17.214   7.190  0.00  0.00    -0.337 N 
ATOM      7  HN  UNK N   1      26.546  17.299   7.175  1.00  0.00     0.168 HD
HETATM    8  N   UNK N   1      29.565  16.401   6.183  0.00  0.00    -0.336 N 
ATOM      9  HN  UNK N   1      30.047  15.896   5.439  1.00  0.00     0.168 HD
HETATM   10  N   UNK N   1      30.571  18.129   9.050  0.00  0.00    -0.346 N 
ATOM     11  HN  UNK N   1      30.416  18.672   9.899  1.00  0.00     0.167 HD
HETATM   12  N   UNK N   1      31.579  17.007   7.384  0.00  0.00    -0.325 N 
ENDROOT
BRANCH  12  13
HETATM   13  C   UNK N   1      32.616  16.470   6.503  0.00  0.00     0.162 C 
BRANCH  13  14
HETATM   14  C   UNK N   1      34.031  16.716   7.020  0.00  0.00     0.132 C 
HETATM   15  C   UNK N   1      34.921  15.591   6.534  0.00  0.00     0.041 C 
BRANCH  14  16
HETATM   16  O   UNK N   1      34.529  17.922   6.525  0.00  0.00    -0.394 OA
HETATM   17  H   UNK N   1      35.104  17.925   5.742  0.00  0.00     0.210 HD
ENDBRANCH  14  16
ENDBRANCH  13  14
ENDBRANCH  12  13
BRANCH   4  18
HETATM   18  N   UNK N   1      27.615  18.515   9.222  0.00  0.00    -0.383 N 
HETATM   19  H   UNK N   1      26.871  19.121   9.004  0.00  0.00     0.157 HD
HETATM   20  H   UNK N   1      27.904  18.416  10.158  0.00  0.00     0.157 HD
ENDBRANCH   4  18
TORSDOF 4
ENDMDL
MODEL 4
REMARK VINA RESULT:      -4.8      2.021      2.079
REMARK  4 active torsions:
REMARK  status: ('A' for Active; 'I' for Inactive)
REMARK    1  A    between atoms: C_5  and  C_2 
REMARK    2  A    between atoms: N_16  and  C_2 
REMARK    3  A    between atoms: C_5  and  O_17 
REMARK    4  A    between atoms: N_9  and  C_7 
ROOT
HETATM    1  C   UNK N   1      35.448  16.621  10.862  0.00  0.00     0.183 A 
HETATM    2  C   UNK N   1      35.313  14.085   7.237  0.00  0.00     0.185 A 
HETATM    3  C   UNK N   1      36.113  14.612   9.148  0.00  0.00     0.122 A 
HETATM    4  C   UNK N   1      36.830  14.751  10.325  0.00  0.00     0.131 A 
HETATM    5  C   UNK N   1      35.108  15.463   8.863  0.00  0.00     0.140 A 
HETATM    6  N   UNK N   1      36.481  15.766  11.171  0.00  0.00    -0.337 N 
ATOM      7  HN  UNK N   1      36.992  15.891  12.044  1.00  0.00     0.168 HD
HETATM    8  N   UNK N   1      34.752  16.476   9.690  0.00  0.00    -0.336 N 
ATOM      9  HN  UNK N   1      33.991  17.110   9.448  1.00  0.00     0.168 HD
HETATM   10  N   UNK N   1      36.260  13.726   8.148  0.00  0.00    -0.346 N 
ATOM     11  HN  UNK N   1      36.930  12.959   8.084  1.00  0.00     0.167 HD
HETATM   12  N   UNK N   1      34.593  15.153   7.667  0.00  0.00    -0.325 N 
ENDROOT
BRANCH  12  13
HETATM   13  C   UNK N   1      33.544  15.864   6.936  0.00  0.00     0.162 C 
BRANCH  13  14
HETATM   14  C   UNK N   1      34.080  17.000   6.068  0.00  0.00     0.132 C 
HETATM   15  C   UNK N   1      32.991  17.419   5.102  0.00  0.00     0.041 C 
BRANCH  14  16
HETATM   16  O   UNK N   1      34.420  18.099   6.858  0.00  0.00    -0.394 OA
HETATM   17  H   UNK N   1      34.951  18.820   6.483  0.00  0.00     0.210 HD
ENDBRANCH  14  16
ENDBRANCH  13  14
ENDBRANCH  12  13
BRANCH   4  18
HETATM   18  N   UNK N   1      37.902  13.890  10.637  0.00  0.00    -0.383 N 
HETATM   19  H   UNK N   1      38.386  13.979  11.489  0.00  0.00     0.157 HD
HETATM   20  H   UNK N   1      38.169  13.192   9.996  0.00  0.00     0.157 HD
ENDBRANCH   4  18
TORSDOF 4
ENDMDL
MODEL 5
REMARK VINA RESULT:      -4.8      2.486      4.033
REMARK  4 active torsions:
REMARK  status: ('A' for Active; 'I' for Inactive)
REMARK    1  A    between atoms: C_5  and  C_2 
REMARK    2  A    between atoms: N_16  and  C_2 
REMARK    3  A    between atoms: C_5  and  O_17 
REMARK    4  A    between atoms: N_9  and  C_7 
ROOT
HETATM    1  C   UNK N   1      34.821  12.254  13.415  0.00  0.00     0.183 A 
HETATM    2  C   UNK N   1      35.707  15.650  10.720  0.00  0.00     0.185 A 
HETATM    3  C   UNK N   1      35.942  14.582  12.556  0.00  0.00     0.122 A 
HETATM    4  C   UNK N   1      36.244  14.124  13.828  0.00  0.00     0.131 A 
HETATM    5  C   UNK N   1      35.103  13.883  11.766  0.00  0.00     0.140 A 
HETATM    6  N   UNK N   1      35.671  12.954  14.240  0.00  0.00    -0.337 N 
ATOM      7  HN  UNK N   1      35.876  12.594  15.171  1.00  0.00     0.168 HD
HETATM    8  N   UNK N   1      34.524  12.723  12.161  0.00  0.00    -0.336 N 
ATOM      9  HN  UNK N   1      33.888  12.216  11.546  1.00  0.00     0.168 HD
HETATM   10  N   UNK N   1      36.347  15.696  11.921  0.00  0.00    -0.346 N 
ATOM     11  HN  UNK N   1      36.988  16.413  12.262  1.00  0.00     0.167 HD
HETATM   12  N   UNK N   1      34.939  14.536  10.609  0.00  0.00    -0.325 N 
ENDROOT
BRANCH  12  13
HETATM   13  C   UNK N   1      34.054  14.179   9.501  0.00  0.00     0.162 C 
BRANCH  13  14
HETATM   14  C   UNK N   1      32.930  15.188   9.279  0.00  0.00     0.132 C 
HETATM   15  C   UNK N   1      32.245  14.860   7.968  0.00  0.00     0.041 C 
BRANCH  14  16
HETATM   16  O   UNK N   1      31.989  15.105  10.306  0.00  0.00    -0.394 OA
HETATM   17  H   UNK N   1      31.567  14.255  10.510  0.00  0.00     0.210 HD
ENDBRANCH  14  16
ENDBRANCH  13  14
ENDBRANCH  12  13
BRANCH   4  18
HETATM   18  N   UNK N   1      37.099  14.848  14.684  0.00  0.00    -0.383 N 
HETATM   19  H   UNK N   1      36.744  15.295  15.486  0.00  0.00     0.157 HD
HETATM   20  H   UNK N   1      38.060  14.907  14.479  0.00  0.00     0.157 HD
ENDBRANCH   4  18
TORSDOF 4
ENDMDL
MODEL 6
REMARK VINA RESULT:      -4.7     14.950     16.057
REMARK  4 active torsions:
REMARK  status: ('A' for Active; 'I' for Inactive)
REMARK    1  A    between atoms: C_5  and  C_2 
REMARK    2  A    between atoms: N_16  and  C_2 
REMARK    3  A    between atoms: C_5  and  O_17 
REMARK    4  A    between atoms: N_9  and  C_7 
ROOT
HETATM    1  C   UNK N   1      20.956  19.667   3.830  0.00  0.00     0.183 A 
HETATM    2  C   UNK N   1      19.968  16.666   0.731  0.00  0.00     0.185 A 
HETATM    3  C   UNK N   1      20.407  18.661   1.360  0.00  0.00     0.122 A 
HETATM    4  C   UNK N   1      20.621  20.024   1.495  0.00  0.00     0.131 A 
HETATM    5  C   UNK N   1      20.466  17.857   2.439  0.00  0.00     0.140 A 
HETATM    6  N   UNK N   1      20.894  20.508   2.743  0.00  0.00    -0.337 N 
ATOM      7  HN  UNK N   1      21.056  21.506   2.870  1.00  0.00     0.168 HD
HETATM    8  N   UNK N   1      20.734  18.322   3.683  0.00  0.00    -0.336 N 
ATOM      9  HN  UNK N   1      20.768  17.692   4.485  1.00  0.00     0.168 HD
HETATM   10  N   UNK N   1      20.104  17.940   0.267  0.00  0.00    -0.346 N 
ATOM     11  HN  UNK N   1      19.999  18.270  -0.693  1.00  0.00     0.167 HD
HETATM   12  N   UNK N   1      20.192  16.600   2.069  0.00  0.00    -0.325 N 
ENDROOT
BRANCH  12  13
HETATM   13  C   UNK N   1      20.069  15.423   2.928  0.00  0.00     0.162 C 
BRANCH  13  14
HETATM   14  C   UNK N   1      19.818  14.134   2.151  0.00  0.00     0.132 C 
HETATM   15  C   UNK N   1      20.571  13.009   2.832  0.00  0.00     0.041 C 
BRANCH  14  16
HETATM   16  O   UNK N   1      18.458  13.821   2.149  0.00  0.00    -0.394 OA
HETATM   17  H   UNK N   1      18.098  13.225   1.473  0.00  0.00     0.210 HD
ENDBRANCH  14  16
ENDBRANCH  13  14
ENDBRANCH  12  13
BRANCH   4  18
HETATM   18  N   UNK N   1      20.539  20.892   0.387  0.00  0.00    -0.383 N 
HETATM   19  H   UNK N   1      20.907  20.626  -0.486  0.00  0.00     0.157 HD
HETATM   20  H   UNK N   1      20.110  21.772   0.487  0.00  0.00     0.157 HD
ENDBRANCH   4  18
TORSDOF 4
ENDMDL
MODEL 7
REMARK VINA RESULT:      -4.7      2.556      5.452
REMARK  4 active torsions:
REMARK  status: ('A' for Active; 'I' for Inactive)
REMARK    1  A    between atoms: C_5  and  C_2 
REMARK    2  A    between atoms: N_16  and  C_2 
REMARK    3  A    between atoms: C_5  and  O_17 
REMARK    4  A    between atoms: N_9  and  C_7 
ROOT
HETATM    1  C   UNK N   1      32.270  14.940   8.677  0.00  0.00     0.183 A 
HETATM    2  C   UNK N   1      35.617  16.328  11.218  0.00  0.00     0.185 A 
HETATM    3  C   UNK N   1      34.215  16.592   9.626  0.00  0.00     0.122 A 
HETATM    4  C   UNK N   1      33.460  17.003   8.540  0.00  0.00     0.131 A 
HETATM    5  C   UNK N   1      33.987  15.392  10.193  0.00  0.00     0.140 A 
HETATM    6  N   UNK N   1      32.490  16.159   8.079  0.00  0.00    -0.337 N 
ATOM      7  HN  UNK N   1      31.919  16.437   7.281  1.00  0.00     0.168 HD
HETATM    8  N   UNK N   1      33.031  14.542   9.746  0.00  0.00    -0.336 N 
ATOM      9  HN  UNK N   1      32.882  13.636  10.190  1.00  0.00     0.168 HD
HETATM   10  N   UNK N   1      35.230  17.211  10.255  0.00  0.00    -0.346 N 
ATOM     11  HN  UNK N   1      35.622  18.132  10.056  1.00  0.00     0.167 HD
HETATM   12  N   UNK N   1      34.857  15.203  11.193  0.00  0.00    -0.325 N 
ENDROOT
BRANCH  12  13
HETATM   13  C   UNK N   1      35.018  14.010  12.022  0.00  0.00     0.162 C 
BRANCH  13  14
HETATM   14  C   UNK N   1      36.147  14.134  13.043  0.00  0.00     0.132 C 
HETATM   15  C   UNK N   1      35.701  13.475  14.332  0.00  0.00     0.041 C 
BRANCH  14  16
HETATM   16  O   UNK N   1      37.294  13.483  12.585  0.00  0.00    -0.394 OA
HETATM   17  H   UNK N   1      38.156  13.682  12.983  0.00  0.00     0.210 HD
ENDBRANCH  14  16
ENDBRANCH  13  14
ENDBRANCH  12  13
BRANCH   4  18
HETATM   18  N   UNK N   1      33.694  18.244   7.911  0.00  0.00    -0.383 N 
HETATM   19  H   UNK N   1      33.506  18.364   6.953  0.00  0.00     0.157 HD
HETATM   20  H   UNK N   1      34.049  18.997   8.436  0.00  0.00     0.157 HD
ENDBRANCH   4  18
TORSDOF 4
ENDMDL
MODEL 8
REMARK VINA RESULT:      -4.6      4.966      6.247
REMARK  4 active torsions:
REMARK  status: ('A' for Active; 'I' for Inactive)
REMARK    1  A    between atoms: C_5  and  C_2 
REMARK    2  A    between atoms: N_16  and  C_2 
REMARK    3  A    between atoms: C_5  and  O_17 
REMARK    4  A    between atoms: N_9  and  C_7 
ROOT
HETATM    1  C   UNK N   1      28.398  17.846   9.477  0.00  0.00     0.183 A 
HETATM    2  C   UNK N   1      29.886  17.471   5.326  0.00  0.00     0.185 A 
HETATM    3  C   UNK N   1      30.138  17.341   7.445  0.00  0.00     0.122 A 
HETATM    4  C   UNK N   1      30.580  17.210   8.751  0.00  0.00     0.131 A 
HETATM    5  C   UNK N   1      28.869  17.716   7.194  0.00  0.00     0.140 A 
HETATM    6  N   UNK N   1      29.691  17.468   9.756  0.00  0.00    -0.337 N 
ATOM      7  HN  UNK N   1      29.990  17.379  10.727  1.00  0.00     0.168 HD
HETATM    8  N   UNK N   1      27.976  17.979   8.179  0.00  0.00    -0.336 N 
ATOM      9  HN  UNK N   1      27.022  18.267   7.962  1.00  0.00     0.168 HD
HETATM   10  N   UNK N   1      30.802  17.169   6.288  0.00  0.00    -0.346 N 
ATOM     11  HN  UNK N   1      31.772  16.880   6.160  1.00  0.00     0.167 HD
HETATM   12  N   UNK N   1      28.688  17.807   5.870  0.00  0.00    -0.325 N 
ENDROOT
BRANCH  12  13
HETATM   13  C   UNK N   1      27.491  18.259   5.162  0.00  0.00     0.162 C 
BRANCH  13  14
HETATM   14  C   UNK N   1      27.240  19.758   5.302  0.00  0.00     0.132 C 
HETATM   15  C   UNK N   1      26.706  20.279   3.983  0.00  0.00     0.041 C 
BRANCH  14  16
HETATM   16  O   UNK N   1      26.289  20.004   6.294  0.00  0.00    -0.394 OA
HETATM   17  H   UNK N   1      25.388  19.658   6.198  0.00  0.00     0.210 HD
ENDBRANCH  14  16
ENDBRANCH  13  14
ENDBRANCH  12  13
BRANCH   4  18
HETATM   18  N   UNK N   1      31.910  16.842   9.042  0.00  0.00    -0.383 N 
HETATM   19  H   UNK N   1      32.209  15.911   8.931  0.00  0.00     0.157 HD
HETATM   20  H   UNK N   1      32.546  17.523   9.360  0.00  0.00     0.157 HD
ENDBRANCH   4  18
TORSDOF 4
ENDMDL
MODEL 9
REMARK VINA RESULT:      -4.6     11.192     12.431
REMARK  4 active torsions:
REMARK  status: ('A' for Active; 'I' for Inactive)
REMARK    1  A    between atoms: C_5  and  C_2 
REMARK    2  A    between atoms: N_16  and  C_2 
REMARK    3  A    between atoms: C_5  and  O_17 
REMARK    4  A    between atoms: N_9  and  C_7 
ROOT
HETATM    1  C   UNK N   1      21.310  12.089  11.615  0.00  0.00     0.183 A 
HETATM    2  C   UNK N   1      23.046  14.026   8.034  0.00  0.00     0.185 A 
HETATM    3  C   UNK N   1      23.209  12.879   9.831  0.00  0.00     0.122 A 
HETATM    4  C   UNK N   1      23.600  12.162  10.950  0.00  0.00     0.131 A 
HETATM    5  C   UNK N   1      21.910  13.180   9.639  0.00  0.00     0.140 A 
HETATM    6  N   UNK N   1      22.632  11.776  11.832  0.00  0.00    -0.337 N 
ATOM      7  HN  UNK N   1      22.892  11.247  12.664  1.00  0.00     0.168 HD
HETATM    8  N   UNK N   1      20.938  12.807  10.507  0.00  0.00    -0.336 N 
ATOM      9  HN  UNK N   1      19.962  13.052  10.341  1.00  0.00     0.168 HD
HETATM   10  N   UNK N   1      23.950  13.390   8.831  0.00  0.00    -0.346 N 
ATOM     11  HN  UNK N   1      24.959  13.319   8.700  1.00  0.00     0.167 HD
HETATM   12  N   UNK N   1      21.784  13.902   8.519  0.00  0.00    -0.325 N 
ENDROOT
BRANCH  12  13
HETATM   13  C   UNK N   1      20.567  14.506   7.979  0.00  0.00     0.162 C 
BRANCH  13  14
HETATM   14  C   UNK N   1      20.146  15.774   8.718  0.00  0.00     0.132 C 
HETATM   15  C   UNK N   1      20.210  16.937   7.749  0.00  0.00     0.041 C 
BRANCH  14  16
HETATM   16  O   UNK N   1      18.835  15.656   9.183  0.00  0.00    -0.394 OA
HETATM   17  H   UNK N   1      18.368  16.437   9.521  0.00  0.00     0.210 HD
ENDBRANCH  14  16
ENDBRANCH  13  14
ENDBRANCH  12  13
BRANCH   4  18
HETATM   18  N   UNK N   1      24.956  11.855  11.187  0.00  0.00    -0.383 N 
HETATM   19  H   UNK N   1      25.651  12.121  10.543  0.00  0.00     0.157 HD
HETATM   20  H   UNK N   1      25.210  11.370  12.005  0.00  0.00     0.157 HD
ENDBRANCH   4  18
TORSDOF 4
ENDMDL
