MODEL 1
REMARK VINA RESULT:      -5.4      0.000      0.000
REMARK  2 active torsions:
REMARK  status: ('A' for Active; 'I' for Inactive)
REMARK    1  A    between atoms: C_8  and  C_7 
REMARK    2  A    between atoms: O_12  and  C_8 
ROOT
HETATM    1  C   UNK N   1      33.922  17.672   7.135  0.00  0.00     0.002 A 
HETATM    2  C   UNK N   1      33.293  17.242   5.942  0.00  0.00     0.002 A 
HETATM    3  C   UNK N   1      33.159  17.943   8.287  0.00  0.00     0.032 A 
HETATM    4  C   UNK N   1      31.894  17.080   5.891  0.00  0.00     0.032 A 
HETATM    5  C   UNK N   1      31.783  17.771   8.195  0.00  0.00     0.060 A 
HETATM    6  C   UNK N   1      31.176  17.358   7.049  0.00  0.00     0.060 A 
HETATM    7  C   UNK N   1      29.693  17.656   8.538  0.00  0.00     0.181 A 
HETATM    8  N   UNK N   1      30.865  17.965   9.149  0.00  0.00    -0.335 N 
HETATM    9  N   UNK N   1      29.852  17.278   7.243  0.00  0.00    -0.335 N 
ATOM     10  HN  UNK N   1      29.134  16.999   6.575  1.00  0.00     0.168 HD
HETATM   11  H   UNK N   1      31.006  18.263  10.077  0.00  0.00     0.168 HD
ENDROOT
BRANCH   7  12
HETATM   12  C   UNK N   1      28.396  17.726   9.215  0.00  0.00     0.212 C 
HETATM   13  O   UNK N   1      28.069  16.860  10.010  0.00  0.00    -0.644 OA
BRANCH  12  14
HETATM   14  O   UNK N   1      27.562  18.751   8.961  0.00  0.00    -0.771 OA
HETATM   15  H   UNK N   1      26.776  18.852   9.463  0.00  0.00     0.168 HD
ENDBRANCH  12  14
ENDBRANCH   7  12
TORSDOF 2
ENDMDL
MODEL 2
REMARK VINA RESULT:      -5.3      3.449      4.502
REMARK  2 active torsions:
REMARK  status: ('A' for Active; 'I' for Inactive)
REMARK    1  A    between atoms: C_8  and  C_7 
REMARK    2  A    between atoms: O_12  and  C_8 
ROOT
HETATM    1  C   UNK N   1      26.801  20.923   4.966  0.00  0.00     0.002 A 
HETATM    2  C   UNK N   1      27.577  20.003   4.222  0.00  0.00     0.002 A 
HETATM    3  C   UNK N   1      26.714  20.815   6.367  0.00  0.00     0.032 A 
HETATM    4  C   UNK N   1      28.274  18.965   4.873  0.00  0.00     0.032 A 
HETATM    5  C   UNK N   1      27.415  19.779   6.971  0.00  0.00     0.060 A 
HETATM    6  C   UNK N   1      28.162  18.892   6.257  0.00  0.00     0.060 A 
HETATM    7  C   UNK N   1      28.289  18.391   8.316  0.00  0.00     0.181 A 
HETATM    8  N   UNK N   1      27.481  19.481   8.274  0.00  0.00    -0.335 N 
HETATM    9  N   UNK N   1      28.725  18.004   7.089  0.00  0.00    -0.335 N 
ATOM     10  HN  UNK N   1      29.337  17.222   6.854  1.00  0.00     0.168 HD
HETATM   11  H   UNK N   1      27.046  19.943   9.026  0.00  0.00     0.168 HD
ENDROOT
BRANCH   7  12
HETATM   12  C   UNK N   1      28.648  17.710   9.562  0.00  0.00     0.212 C 
HETATM   13  O   UNK N   1      27.917  16.850  10.026  0.00  0.00    -0.644 OA
BRANCH  12  14
HETATM   14  O   UNK N   1      29.788  18.035  10.200  0.00  0.00    -0.771 OA
HETATM   15  H   UNK N   1      30.407  18.608   9.791  0.00  0.00     0.168 HD
ENDBRANCH  12  14
ENDBRANCH   7  12
TORSDOF 2
ENDMDL
MODEL 3
REMARK VINA RESULT:      -5.2      3.119      4.521
REMARK  2 active torsions:
REMARK  status: ('A' for Active; 'I' for Inactive)
REMARK    1  A    between atoms: C_8  and  C_7 
REMARK    2  A    between atoms: O_12  and  C_8 
ROOT
HETATM    1  C   UNK N   1      28.209  17.882   9.164  0.00  0.00     0.002 A 
HETATM    2  C   UNK N   1      28.073  17.260   7.900  0.00  0.00     0.002 A 
HETATM    3  C   UNK N   1      29.476  18.273   9.635  0.00  0.00     0.032 A 
HETATM    4  C   UNK N   1      29.206  17.025   7.095  0.00  0.00     0.032 A 
HETATM    5  C   UNK N   1      30.567  18.024   8.812  0.00  0.00     0.060 A 
HETATM    6  C   UNK N   1      30.439  17.426   7.595  0.00  0.00     0.060 A 
HETATM    7  C   UNK N   1      32.490  17.857   7.932  0.00  0.00     0.181 A 
HETATM    8  N   UNK N   1      31.855  18.304   9.045  0.00  0.00    -0.335 N 
HETATM    9  N   UNK N   1      31.644  17.310   7.020  0.00  0.00    -0.335 N 
ATOM     10  HN  UNK N   1      31.872  16.907   6.112  1.00  0.00     0.168 HD
HETATM   11  H   UNK N   1      32.249  18.734   9.838  0.00  0.00     0.168 HD
ENDROOT
BRANCH   7  12
HETATM   12  C   UNK N   1      33.940  17.958   7.745  0.00  0.00     0.212 C 
HETATM   13  O   UNK N   1      34.420  17.916   6.624  0.00  0.00    -0.644 OA
BRANCH  12  14
HETATM   14  O   UNK N   1      34.745  18.098   8.814  0.00  0.00    -0.771 OA
HETATM   15  H   UNK N   1      35.070  18.945   9.049  0.00  0.00     0.168 HD
ENDBRANCH  12  14
ENDBRANCH   7  12
TORSDOF 2
ENDMDL
MODEL 4
REMARK VINA RESULT:      -5.2      4.998      5.919
REMARK  2 active torsions:
REMARK  status: ('A' for Active; 'I' for Inactive)
REMARK    1  A    between atoms: C_8  and  C_7 
REMARK    2  A    between atoms: O_12  and  C_8 
ROOT
HETATM    1  C   UNK N   1      35.501  14.039  12.311  0.00  0.00     0.002 A 
HETATM    2  C   UNK N   1      34.929  13.214  11.314  0.00  0.00     0.002 A 
HETATM    3  C   UNK N   1      35.674  15.418  12.084  0.00  0.00     0.032 A 
HETATM    4  C   UNK N   1      34.524  13.760  10.079  0.00  0.00     0.032 A 
HETATM    5  C   UNK N   1      35.262  15.918  10.854  0.00  0.00     0.060 A 
HETATM    6  C   UNK N   1      34.712  15.125   9.894  0.00  0.00     0.060 A 
HETATM    7  C   UNK N   1      34.798  17.118   9.169  0.00  0.00     0.181 A 
HETATM    8  N   UNK N   1      35.326  17.181  10.418  0.00  0.00    -0.335 N 
HETATM    9  N   UNK N   1      34.410  15.865   8.817  0.00  0.00    -0.335 N 
ATOM     10  HN  UNK N   1      33.988  15.558   7.941  1.00  0.00     0.168 HD
HETATM   11  H   UNK N   1      35.674  17.971  10.891  0.00  0.00     0.168 HD
ENDROOT
BRANCH   7  12
HETATM   12  C   UNK N   1      34.664  18.289   8.299  0.00  0.00     0.212 C 
HETATM   13  O   UNK N   1      33.918  18.257   7.334  0.00  0.00    -0.644 OA
BRANCH  12  14
HETATM   14  O   UNK N   1      35.369  19.405   8.563  0.00  0.00    -0.771 OA
HETATM   15  H   UNK N   1      34.959  20.245   8.497  0.00  0.00     0.168 HD
ENDBRANCH  12  14
ENDBRANCH   7  12
TORSDOF 2
ENDMDL
MODEL 5
REMARK VINA RESULT:      -5.2      8.009      9.053
REMARK  2 active torsions:
REMARK  status: ('A' for Active; 'I' for Inactive)
REMARK    1  A    between atoms: C_8  and  C_7 
REMARK    2  A    between atoms: O_12  and  C_8 
ROOT
HETATM    1  C   UNK N   1      35.962  12.252  16.074  0.00  0.00     0.002 A 
HETATM    2  C   UNK N   1      35.019  11.522  15.312  0.00  0.00     0.002 A 
HETATM    3  C   UNK N   1      36.553  13.418  15.551  0.00  0.00     0.032 A 
HETATM    4  C   UNK N   1      34.658  11.952  14.019  0.00  0.00     0.032 A 
HETATM    5  C   UNK N   1      36.171  13.808  14.273  0.00  0.00     0.060 A 
HETATM    6  C   UNK N   1      35.264  13.108  13.539  0.00  0.00     0.060 A 
HETATM    7  C   UNK N   1      35.912  14.782  12.406  0.00  0.00     0.181 A 
HETATM    8  N   UNK N   1      36.594  14.870  13.577  0.00  0.00    -0.335 N 
HETATM    9  N   UNK N   1      35.084  13.706  12.353  0.00  0.00    -0.335 N 
ATOM     10  HN  UNK N   1      34.470  13.420  11.590  1.00  0.00     0.168 HD
HETATM   11  H   UNK N   1      37.246  15.555  13.849  0.00  0.00     0.168 HD
ENDROOT
BRANCH   7  12
HETATM   12  C   UNK N   1      36.061  15.753  11.320  0.00  0.00     0.212 C 
HETATM   13  O   UNK N   1      35.110  16.427  10.962  0.00  0.00    -0.644 OA
BRANCH  12  14
HETATM   14  O   UNK N   1      37.254  15.902  10.714  0.00  0.00    -0.771 OA
HETATM   15  H   UNK N   1      37.710  15.152  10.385  0.00  0.00     0.168 HD
ENDBRANCH  12  14
ENDBRANCH   7  12
TORSDOF 2
ENDMDL
MODEL 6
REMARK VINA RESULT:      -5.2     11.894     12.794
REMARK  2 active torsions:
REMARK  status: ('A' for Active; 'I' for Inactive)
REMARK    1  A    between atoms: C_8  and  C_7 
REMARK    2  A    between atoms: O_12  and  C_8 
ROOT
HETATM    1  C   UNK N   1      19.660  14.651   1.730  0.00  0.00     0.002 A 
HETATM    2  C   UNK N   1      19.907  14.915   3.098  0.00  0.00     0.002 A 
HETATM    3  C   UNK N   1      19.757  15.682   0.775  0.00  0.00     0.032 A 
HETATM    4  C   UNK N   1      20.253  16.214   3.524  0.00  0.00     0.032 A 
HETATM    5  C   UNK N   1      20.100  16.947   1.235  0.00  0.00     0.060 A 
HETATM    6  C   UNK N   1      20.337  17.203   2.551  0.00  0.00     0.060 A 
HETATM    7  C   UNK N   1      20.583  19.001   1.450  0.00  0.00     0.181 A 
HETATM    8  N   UNK N   1      20.249  18.069   0.521  0.00  0.00    -0.335 N 
HETATM    9  N   UNK N   1      20.645  18.498   2.710  0.00  0.00    -0.335 N 
ATOM     10  HN  UNK N   1      20.873  18.989   3.575  1.00  0.00     0.168 HD
HETATM   11  H   UNK N   1      20.142  18.190  -0.450  0.00  0.00     0.168 HD
ENDROOT
BRANCH   7  12
HETATM   12  C   UNK N   1      20.847  20.403   1.115  0.00  0.00     0.212 C 
HETATM   13  O   UNK N   1      21.269  21.169   1.965  0.00  0.00    -0.644 OA
BRANCH  12  14
HETATM   14  O   UNK N   1      20.623  20.847  -0.135  0.00  0.00    -0.771 OA
HETATM   15  H   UNK N   1      20.199  21.672  -0.271  0.00  0.00     0.168 HD
ENDBRANCH  12  14
ENDBRANCH   7  12
TORSDOF 2
ENDMDL
MODEL 7
REMARK VINA RESULT:      -5.0      3.411      4.471
REMARK  2 active torsions:
REMARK  status: ('A' for Active; 'I' for Inactive)
REMARK    1  A    between atoms: C_8  and  C_7 
REMARK    2  A    between atoms: O_12  and  C_8 
ROOT
HETATM    1  C   UNK N   1      30.302  16.635   4.519  0.00  0.00     0.002 A 
HETATM    2  C   UNK N   1      31.364  16.811   3.601  0.00  0.00     0.002 A 
HETATM    3  C   UNK N   1      30.510  16.832   5.897  0.00  0.00     0.032 A 
HETATM    4  C   UNK N   1      32.645  17.187   4.053  0.00  0.00     0.032 A 
HETATM    5  C   UNK N   1      31.786  17.202   6.303  0.00  0.00     0.060 A 
HETATM    6  C   UNK N   1      32.809  17.372   5.421  0.00  0.00     0.060 A 
HETATM    7  C   UNK N   1      33.526  17.761   7.381  0.00  0.00     0.181 A 
HETATM    8  N   UNK N   1      32.216  17.443   7.547  0.00  0.00    -0.335 N 
HETATM    9  N   UNK N   1      33.920  17.726   6.082  0.00  0.00    -0.335 N 
ATOM     10  HN  UNK N   1      34.845  17.923   5.699  1.00  0.00     0.168 HD
HETATM   11  H   UNK N   1      31.704  17.399   8.386  0.00  0.00     0.168 HD
ENDROOT
BRANCH   7  12
HETATM   12  C   UNK N   1      34.411  18.104   8.496  0.00  0.00     0.212 C 
HETATM   13  O   UNK N   1      35.184  19.044   8.401  0.00  0.00    -0.644 OA
BRANCH  12  14
HETATM   14  O   UNK N   1      34.373  17.381   9.630  0.00  0.00    -0.771 OA
HETATM   15  H   UNK N   1      33.793  16.648   9.700  0.00  0.00     0.168 HD
ENDBRANCH  12  14
ENDBRANCH   7  12
TORSDOF 2
ENDMDL
MODEL 8
REMARK VINA RESULT:      -4.9     13.213     14.197
REMARK  2 active torsions:
REMARK  status: ('A' for Active; 'I' for Inactive)
REMARK    1  A    between atoms: C_8  and  C_7 
REMARK    2  A    between atoms: O_12  and  C_8 
ROOT
HETATM    1  C   UNK N   1      40.123  21.723   0.355  0.00  0.00     0.002 A 
HETATM    2  C   UNK N   1      40.299  23.116   0.179  0.00  0.00     0.002 A 
HETATM    3  C   UNK N   1      40.866  21.026   1.327  0.00  0.00     0.032 A 
HETATM    4  C   UNK N   1      41.221  23.825   0.975  0.00  0.00     0.032 A 
HETATM    5  C   UNK N   1      41.764  21.761   2.091  0.00  0.00     0.060 A 
HETATM    6  C   UNK N   1      41.935  23.101   1.923  0.00  0.00     0.060 A 
HETATM    7  C   UNK N   1      43.226  22.436   3.471  0.00  0.00     0.181 A 
HETATM    8  N   UNK N   1      42.570  21.320   3.064  0.00  0.00    -0.335 N 
HETATM    9  N   UNK N   1      42.857  23.550   2.787  0.00  0.00    -0.335 N 
ATOM     10  HN  UNK N   1      43.199  24.504   2.903  1.00  0.00     0.168 HD
HETATM   11  H   UNK N   1      42.665  20.402   3.404  0.00  0.00     0.168 HD
ENDROOT
BRANCH   7  12
HETATM   12  C   UNK N   1      44.228  22.428   4.540  0.00  0.00     0.212 C 
HETATM   13  O   UNK N   1      43.904  22.679   5.689  0.00  0.00    -0.644 OA
BRANCH  12  14
HETATM   14  O   UNK N   1      45.512  22.143   4.253  0.00  0.00    -0.771 OA
HETATM   15  H   UNK N   1      45.957  22.614   3.576  0.00  0.00     0.168 HD
ENDBRANCH  12  14
ENDBRANCH   7  12
TORSDOF 2
ENDMDL
MODEL 9
REMARK VINA RESULT:      -4.9      4.738      5.581
REMARK  2 active torsions:
REMARK  status: ('A' for Active; 'I' for Inactive)
REMARK    1  A    between atoms: C_8  and  C_7 
REMARK    2  A    between atoms: O_12  and  C_8 
ROOT
HETATM    1  C   UNK N   1      34.016  16.608   6.372  0.00  0.00     0.002 A 
HETATM    2  C   UNK N   1      33.942  17.896   6.955  0.00  0.00     0.002 A 
HETATM    3  C   UNK N   1      34.341  15.486   7.158  0.00  0.00     0.032 A 
HETATM    4  C   UNK N   1      34.194  18.073   8.330  0.00  0.00     0.032 A 
HETATM    5  C   UNK N   1      34.581  15.703   8.509  0.00  0.00     0.060 A 
HETATM    6  C   UNK N   1      34.511  16.941   9.071  0.00  0.00     0.060 A 
HETATM    7  C   UNK N   1      35.024  15.534  10.577  0.00  0.00     0.181 A 
HETATM    8  N   UNK N   1      34.904  14.799   9.442  0.00  0.00    -0.335 N 
HETATM    9  N   UNK N   1      34.788  16.858  10.381  0.00  0.00    -0.335 N 
ATOM     10  HN  UNK N   1      34.814  17.612  11.067  1.00  0.00     0.168 HD
HETATM   11  H   UNK N   1      35.026  13.829   9.332  0.00  0.00     0.168 HD
ENDROOT
BRANCH   7  12
HETATM   12  C   UNK N   1      35.372  14.950  11.874  0.00  0.00     0.212 C 
HETATM   13  O   UNK N   1      34.672  14.080  12.365  0.00  0.00    -0.644 OA
BRANCH  12  14
HETATM   14  O   UNK N   1      36.470  15.373  12.527  0.00  0.00    -0.771 OA
HETATM   15  H   UNK N   1      37.210  15.689  12.046  0.00  0.00     0.168 HD
ENDBRANCH  12  14
ENDBRANCH   7  12
TORSDOF 2
ENDMDL
