REMARK  18 active torsions:
REMARK  status: ('A' for Active; 'I' for Inactive)
REMARK    1  A    between atoms: C_17  and  C_16 
REMARK    2  A    between atoms: C_27  and  C_16 
REMARK    3  A    between atoms: C_38  and  C_17 
REMARK    4  A    between atoms: C_28  and  C_18 
REMARK    5  A    between atoms: N_53  and  C_19 
REMARK    6  A    between atoms: C_40  and  C_22 
REMARK    7  A    between atoms: C_41  and  C_22 
REMARK    8  A    between atoms: N_53  and  C_26 
REMARK    9  A    between atoms: O_54  and  C_26 
REMARK   10  A    between atoms: C_40  and  C_27 
REMARK   11  A    between atoms: C_44  and  C_28 
REMARK   12  A    between atoms: C_38  and  C_30 
REMARK   13  A    between atoms: C_44  and  C_30 
REMARK   14  A    between atoms: O_65  and  C_32 
REMARK   15  A    between atoms: C_34  and  O_57 
REMARK   16  A    between atoms: C_39  and  O_60 
REMARK   17  A    between atoms: C_40  and  O_61 
REMARK   18  A    between atoms: O_65  and  C_44 
ROOT
HETATM    1  C   UNK N   1      21.871  -3.835  -1.820  0.00  0.00     0.017 C 
HETATM    2  C   UNK N   1      17.058  -5.268  -1.928  0.00  0.00     0.015 C 
HETATM    3  C   UNK N   1      21.639  -6.943  -1.375  0.00  0.00     0.010 C 
HETATM    4  C   UNK N   1      18.237  -1.168  -1.382  0.00  0.00    -0.020 C 
HETATM    5  C   UNK N   1      22.372  -6.291  -0.198  0.00  0.00     0.078 C 
HETATM    6  C   UNK N   1      20.295  -7.520  -0.974  0.00  0.00     0.032 C 
HETATM    7  C   UNK N   1      18.160  -2.683  -1.496  0.00  0.00     0.059 C 
HETATM    8  C   UNK N   1      18.328  -0.533  -0.208  0.00  0.00     0.052 C 
HETATM    9  C   UNK N   1      21.873  -3.928   0.754  0.00  0.00     0.088 C 
HETATM   10  C   UNK N   1      19.132  -8.624   0.934  0.00  0.00     0.142 C 
HETATM   11  C   UNK N   1      23.715  -1.666  -1.231  0.00  0.00     0.169 A 
HETATM   12  C   UNK N   1      19.176   2.511   1.218  0.00  0.00     0.211 A 
HETATM   13  C   UNK N   1      23.194   2.283  -0.836  0.00  0.00     0.178 A 
HETATM   14  C   UNK N   1      21.685  -3.085  -0.506  0.00  0.00     0.040 C 
HETATM   15  C   UNK N   1      17.900  -5.074  -0.678  0.00  0.00     0.040 C 
HETATM   16  C   UNK N   1      21.526  -5.375   0.648  0.00  0.00     0.127 C 
HETATM   17  C   UNK N   1      20.375  -8.654   0.045  0.00  0.00     0.127 C 
HETATM   18  C   UNK N   1      22.639  -1.946  -0.409  0.00  0.00     0.038 A 
HETATM   19  C   UNK N   1      19.901   2.573   0.042  0.00  0.00     0.183 A 
HETATM   20  C   UNK N   1      23.051   1.412   0.217  0.00  0.00     0.108 A 
HETATM   21  C   UNK N   1      17.947  -3.563  -0.233  0.00  0.00     0.130 C 
HETATM   22  C   UNK N   1      17.507  -6.122   0.416  0.00  0.00     0.140 C 
HETATM   23  C   UNK N   1      18.563   0.906  -0.030  0.00  0.00     0.138 A 
HETATM   24  C   UNK N   1      17.868  -8.561   0.132  0.00  0.00     0.261 C 
HETATM   25  C   UNK N   1      21.354   2.694   0.160  0.00  0.00     0.148 A 
HETATM   26  C   UNK N   1      23.352  -0.002   0.045  0.00  0.00     0.176 A 
HETATM   27  N   UNK N   1      19.489   1.557  -0.752  0.00  0.00    -0.357 N 
ATOM     28  HN  UNK N   1      19.812   1.334  -1.694  1.00  0.00     0.162 HD
HETATM   29  N   UNK N   1      22.429  -0.905   0.401  0.00  0.00    -0.336 N 
ATOM     30  HN  UNK N   1      21.722  -0.817   1.131  1.00  0.00     0.168 HD
HETATM   31  N   UNK N   1      21.914   1.701   0.861  0.00  0.00    -0.333 N 
ATOM     32  HN  UNK N   1      21.552   1.259   1.705  1.00  0.00     0.168 HD
HETATM   33  O   UNK N   1      20.667  -5.837   1.378  0.00  0.00    -0.298 OA
HETATM   34  O   UNK N   1      17.412  -9.592  -0.337  0.00  0.00    -0.265 OA
HETATM   35  O   UNK N   1      18.378   1.477   1.132  0.00  0.00    -0.334 OA
HETATM   36  O   UNK N   1      24.117  -0.452  -0.933  0.00  0.00    -0.302 OA
HETATM   37  O   UNK N   1      22.111   3.035  -0.858  0.00  0.00    -0.305 OA
HETATM   38  O   UNK N   1      17.246  -7.378  -0.133  0.00  0.00    -0.315 OA
ENDROOT
BRANCH  22  39
HETATM   39  C   UNK N   1      16.311  -5.726   1.275  0.00  0.00     0.065 C 
BRANCH  39  40
HETATM   40  C   UNK N   1      14.876  -5.778   0.747  0.00  0.00     0.127 C 
BRANCH  40  41
HETATM   41  C   UNK N   1      14.232  -4.435   0.225  0.00  0.00     0.011 C 
HETATM   42  C   UNK N   1      14.567  -4.001  -1.196  0.00  0.00     0.012 C 
BRANCH  41  43
HETATM   43  C   UNK N   1      12.734  -4.431   0.387  0.00  0.00     0.014 C 
BRANCH  43  44
HETATM   44  C   UNK N   1      12.162  -5.787   0.072  0.00  0.00     0.079 C 
BRANCH  44  45
HETATM   45  C   UNK N   1      11.259  -5.702  -1.077  0.00  0.00     0.133 C 
HETATM   46  O   UNK N   1      11.472  -6.393  -2.062  0.00  0.00    -0.297 OA
BRANCH  45  47
HETATM   47  C   UNK N   1      10.051  -4.821  -0.958  0.00  0.00     0.081 C 
HETATM   48  C   UNK N   1       9.267  -4.848  -2.259  0.00  0.00     0.020 C 
BRANCH  47  49
HETATM   49  C   UNK N   1       9.270  -5.270   0.322  0.00  0.00     0.150 C 
BRANCH  49  50
HETATM   50  C   UNK N   1       8.045  -4.397   0.735  0.00  0.00     0.036 C 
HETATM   51  C   UNK N   1       8.107  -2.970   0.205  0.00  0.00     0.017 C 
BRANCH  50  52
HETATM   52  C   UNK N   1       6.710  -5.044   0.458  0.00  0.00    -0.003 C 
HETATM   53  C   UNK N   1       6.400  -5.577  -0.736  0.00  0.00     0.083 C 
BRANCH  53  54
HETATM   54  N   UNK N   1       5.188  -6.280  -0.970  0.00  0.00    -0.374 N 
HETATM   55  C   UNK N   1       5.071  -7.084  -2.157  0.00  0.00     0.151 C 
BRANCH  54  56
HETATM   56  C   UNK N   1       4.079  -6.224  -0.054  0.00  0.00     0.288 C 
BRANCH  56  57
HETATM   57  O   UNK N   1       3.569  -4.925  -0.027  0.00  0.00    -0.382 OA
HETATM   58  H   UNK N   1       4.174  -4.167  -0.009  0.00  0.00     0.211 HD
ENDBRANCH  56  57
ENDBRANCH  54  56
ENDBRANCH  53  54
ENDBRANCH  50  52
ENDBRANCH  49  50
BRANCH  49  59
HETATM   59  O   UNK N   1       8.912  -6.607   0.168  0.00  0.00    -0.315 OA
BRANCH  59  60
HETATM   60  C   UNK N   1       9.461  -7.677   0.797  0.00  0.00     0.255 C 
HETATM   61  C   UNK N   1       9.060  -9.047   0.371  0.00  0.00     0.126 C 
HETATM   62  O   UNK N   1      10.313  -7.539   1.660  0.00  0.00    -0.266 OA
ENDBRANCH  59  60
ENDBRANCH  49  59
ENDBRANCH  47  49
ENDBRANCH  45  47
ENDBRANCH  44  45
ENDBRANCH  43  44
ENDBRANCH  41  43
ENDBRANCH  40  41
BRANCH  40  63
HETATM   63  O   UNK N   1      14.571  -6.994   0.071  0.00  0.00    -0.390 OA
HETATM   64  C   UNK N   1      14.674  -6.866  -1.323  0.00  0.00     0.202 C 
ENDBRANCH  40  63
ENDBRANCH  39  40
ENDBRANCH  22  39
BRANCH  21  65
HETATM   65  O   UNK N   1      16.725  -3.155   0.340  0.00  0.00    -0.390 OA
HETATM   66  C   UNK N   1      16.894  -2.731   1.673  0.00  0.00     0.202 C 
ENDBRANCH  21  65
BRANCH  17  67
HETATM   67  O   UNK N   1      20.485  -9.876  -0.619  0.00  0.00    -0.395 OA
HETATM   68  H   UNK N   1      19.788 -10.367  -1.081  0.00  0.00     0.210 HD
ENDBRANCH  17  67
TORSDOF 18
