MODEL 1
REMARK VINA RESULT:      -2.4      0.000      0.000
REMARK  0 active torsions:
REMARK  status: ('A' for Active; 'I' for Inactive)
ROOT
HETATM    1 Br   UNK N   1      24.460  12.624   9.756  0.00  0.00    -0.067 Br
HETATM    2  C   UNK N   1      22.926  12.480  10.926  0.00  0.00     0.201 C 
HETATM    3 Br   UNK N   1      23.147  11.867  12.748  0.00  0.00    -0.067 Br
HETATM    4 Br   UNK N   1      21.170  12.950  10.274  0.00  0.00    -0.067 Br
ENDROOT
TORSDOF 0
ENDMDL
MODEL 2
REMARK VINA RESULT:      -2.4      0.080      2.371
REMARK  0 active torsions:
REMARK  status: ('A' for Active; 'I' for Inactive)
ROOT
HETATM    1 Br   UNK N   1      23.103  11.846  12.715  0.00  0.00    -0.067 Br
HETATM    2  C   UNK N   1      22.929  12.511  10.907  0.00  0.00     0.201 C 
HETATM    3 Br   UNK N   1      24.498  12.736   9.798  0.00  0.00    -0.067 Br
HETATM    4 Br   UNK N   1      21.184  12.951  10.206  0.00  0.00    -0.067 Br
ENDROOT
TORSDOF 0
ENDMDL
MODEL 3
REMARK VINA RESULT:      -2.4      0.223      2.934
REMARK  0 active torsions:
REMARK  status: ('A' for Active; 'I' for Inactive)
ROOT
HETATM    1 Br   UNK N   1      23.065  11.873  12.558  0.00  0.00    -0.067 Br
HETATM    2  C   UNK N   1      22.919  12.601  10.772  0.00  0.00     0.201 C 
HETATM    3 Br   UNK N   1      21.188  13.090  10.060  0.00  0.00    -0.067 Br
HETATM    4 Br   UNK N   1      24.505  12.841   9.697  0.00  0.00    -0.067 Br
ENDROOT
TORSDOF 0
ENDMDL
MODEL 4
REMARK VINA RESULT:      -2.3      0.646      2.962
REMARK  0 active torsions:
REMARK  status: ('A' for Active; 'I' for Inactive)
ROOT
HETATM    1 Br   UNK N   1      21.228  13.486   9.847  0.00  0.00    -0.067 Br
HETATM    2  C   UNK N   1      22.950  12.806  10.408  0.00  0.00     0.201 C 
HETATM    3 Br   UNK N   1      24.502  13.034   9.275  0.00  0.00    -0.067 Br
HETATM    4 Br   UNK N   1      23.121  11.897  12.103  0.00  0.00    -0.067 Br
ENDROOT
TORSDOF 0
ENDMDL
MODEL 5
REMARK VINA RESULT:      -2.3      0.717      2.470
REMARK  0 active torsions:
REMARK  status: ('A' for Active; 'I' for Inactive)
ROOT
HETATM    1 Br   UNK N   1      21.248  13.565   9.774  0.00  0.00    -0.067 Br
HETATM    2  C   UNK N   1      22.946  12.835  10.346  0.00  0.00     0.201 C 
HETATM    3 Br   UNK N   1      23.084  11.906  12.038  0.00  0.00    -0.067 Br
HETATM    4 Br   UNK N   1      24.507  13.033   9.226  0.00  0.00    -0.067 Br
ENDROOT
TORSDOF 0
ENDMDL
MODEL 6
REMARK VINA RESULT:      -2.3     22.419     23.000
REMARK  0 active torsions:
REMARK  status: ('A' for Active; 'I' for Inactive)
ROOT
HETATM    1 Br   UNK N   1      27.817  28.494  -6.641  0.00  0.00    -0.067 Br
HETATM    2  C   UNK N   1      26.409  28.230  -5.341  0.00  0.00     0.201 C 
HETATM    3 Br   UNK N   1      24.966  26.994  -5.708  0.00  0.00    -0.067 Br
HETATM    4 Br   UNK N   1      26.444  29.202  -3.672  0.00  0.00    -0.067 Br
ENDROOT
TORSDOF 0
ENDMDL
MODEL 7
REMARK VINA RESULT:      -2.2      0.597      2.422
REMARK  0 active torsions:
REMARK  status: ('A' for Active; 'I' for Inactive)
ROOT
HETATM    1 Br   UNK N   1      24.371  12.677   9.227  0.00  0.00    -0.067 Br
HETATM    2  C   UNK N   1      22.861  12.715  10.436  0.00  0.00     0.201 C 
HETATM    3 Br   UNK N   1      21.201  13.547   9.892  0.00  0.00    -0.067 Br
HETATM    4 Br   UNK N   1      23.012  11.922  12.190  0.00  0.00    -0.067 Br
ENDROOT
TORSDOF 0
ENDMDL
MODEL 8
REMARK VINA RESULT:      -2.2     12.002     12.791
REMARK  0 active torsions:
REMARK  status: ('A' for Active; 'I' for Inactive)
ROOT
HETATM    1 Br   UNK N   1      33.813  10.834  14.688  0.00  0.00    -0.067 Br
HETATM    2  C   UNK N   1      34.813  12.437  15.105  0.00  0.00     0.201 C 
HETATM    3 Br   UNK N   1      34.938  13.056  16.934  0.00  0.00    -0.067 Br
HETATM    4 Br   UNK N   1      35.688  13.420  13.693  0.00  0.00    -0.067 Br
ENDROOT
TORSDOF 0
ENDMDL
MODEL 9
REMARK VINA RESULT:      -2.2     12.024     12.831
REMARK  0 active torsions:
REMARK  status: ('A' for Active; 'I' for Inactive)
ROOT
HETATM    1 Br   UNK N   1      35.690  13.462  13.724  0.00  0.00    -0.067 Br
HETATM    2  C   UNK N   1      34.850  12.438  15.135  0.00  0.00     0.201 C 
HETATM    3 Br   UNK N   1      33.820  10.856  14.707  0.00  0.00    -0.067 Br
HETATM    4 Br   UNK N   1      35.040  12.995  16.974  0.00  0.00    -0.067 Br
ENDROOT
TORSDOF 0
ENDMDL
