MODEL 1
REMARK VINA RESULT:      -5.5      0.000      0.000
REMARK  1 active torsions:
REMARK  status: ('A' for Active; 'I' for Inactive)
REMARK       I    between atoms: N_1  and  C_2 
REMARK    1  A    between atoms: C_7  and  C_10 
ROOT
HETATM    1  N   UNK N   1      34.379  15.632  10.882  0.00  0.00    -0.234 N 
HETATM    2  C   UNK N   1      34.017  16.508   9.839  0.00  0.00     0.676 A 
HETATM    3  N   UNK N   1      34.923  17.389   9.343  0.00  0.00    -0.202 N 
ATOM      4  HN  UNK N   1      35.867  17.414   9.728  1.00  0.00     0.183 HD
HETATM    5  C   UNK N   1      34.583  18.238   8.337  0.00  0.00     0.108 A 
HETATM    6  C   UNK N   1      33.293  18.211   7.805  0.00  0.00     0.048 A 
HETATM    7  C   UNK N   1      32.373  17.298   8.327  0.00  0.00     0.063 A 
HETATM    8  N   UNK N   1      32.760  16.468   9.334  0.00  0.00    -0.191 N 
ATOM      9  HN  UNK N   1      32.090  15.801   9.717  1.00  0.00     0.184 HD
HETATM   10  H   UNK N   1      35.291  15.658  11.252  0.00  0.00     0.174 HD
HETATM   11  H   UNK N   1      33.721  14.994  11.240  0.00  0.00     0.174 HD
ENDROOT
BRANCH   7  12
HETATM   12  C   UNK N   1      30.986  17.198   7.826  0.00  0.00     0.022 A 
HETATM   13  C   UNK N   1      29.829  17.745   8.421  0.00  0.00     0.088 A 
HETATM   14 Cl   UNK N   1      29.683  18.685   9.897  0.00  0.00    -0.075 Cl
HETATM   15  S   UNK N   1      28.551  17.334   7.449  0.00  0.00    -0.065 SA
HETATM   16  C   UNK N   1      29.362  16.485   6.283  0.00  0.00     0.077 A 
HETATM   17 Cl   UNK N   1      28.666  15.715   4.876  0.00  0.00    -0.076 Cl
HETATM   18  C   UNK N   1      30.712  16.489   6.620  0.00  0.00     0.047 A 
ENDBRANCH   7  12
TORSDOF 1
ENDMDL
MODEL 2
REMARK VINA RESULT:      -5.5     10.132     11.201
REMARK  1 active torsions:
REMARK  status: ('A' for Active; 'I' for Inactive)
REMARK       I    between atoms: N_1  and  C_2 
REMARK    1  A    between atoms: C_7  and  C_10 
ROOT
HETATM    1  N   UNK N   1      24.880  12.244  11.310  0.00  0.00    -0.234 N 
HETATM    2  C   UNK N   1      23.486  12.373  11.144  0.00  0.00     0.676 A 
HETATM    3  N   UNK N   1      22.637  11.732  11.987  0.00  0.00    -0.202 N 
ATOM      4  HN  UNK N   1      23.012  11.157  12.741  1.00  0.00     0.183 HD
HETATM    5  C   UNK N   1      21.291  11.850  11.835  0.00  0.00     0.108 A 
HETATM    6  C   UNK N   1      20.769  12.635  10.805  0.00  0.00     0.048 A 
HETATM    7  C   UNK N   1      21.657  13.288   9.946  0.00  0.00     0.063 A 
HETATM    8  N   UNK N   1      22.997  13.139  10.139  0.00  0.00    -0.191 N 
ATOM      9  HN  UNK N   1      23.647  13.615   9.513  1.00  0.00     0.184 HD
HETATM   10  H   UNK N   1      25.239  11.688  12.038  0.00  0.00     0.174 HD
HETATM   11  H   UNK N   1      25.494  12.709  10.698  0.00  0.00     0.174 HD
ENDROOT
BRANCH   7  12
HETATM   12  C   UNK N   1      21.197  14.140   8.829  0.00  0.00     0.022 A 
HETATM   13  C   UNK N   1      20.954  13.734   7.500  0.00  0.00     0.088 A 
HETATM   14 Cl   UNK N   1      21.118  12.139   6.782  0.00  0.00    -0.075 Cl
HETATM   15  S   UNK N   1      20.459  15.082   6.671  0.00  0.00    -0.065 SA
HETATM   16  C   UNK N   1      20.526  16.190   7.898  0.00  0.00     0.077 A 
HETATM   17 Cl   UNK N   1      20.134  17.891   7.791  0.00  0.00    -0.076 Cl
HETATM   18  C   UNK N   1      20.952  15.528   9.044  0.00  0.00     0.047 A 
ENDBRANCH   7  12
TORSDOF 1
ENDMDL
MODEL 3
REMARK VINA RESULT:      -5.4      7.076      8.421
REMARK  1 active torsions:
REMARK  status: ('A' for Active; 'I' for Inactive)
REMARK       I    between atoms: N_1  and  C_2 
REMARK    1  A    between atoms: C_7  and  C_10 
ROOT
HETATM    1  N   UNK N   1      35.163  17.054  10.848  0.00  0.00    -0.234 N 
HETATM    2  C   UNK N   1      35.794  15.818  11.092  0.00  0.00     0.676 A 
HETATM    3  N   UNK N   1      36.594  15.262  10.146  0.00  0.00    -0.202 N 
ATOM      4  HN  UNK N   1      36.736  15.743   9.259  1.00  0.00     0.183 HD
HETATM    5  C   UNK N   1      37.207  14.070  10.372  0.00  0.00     0.108 A 
HETATM    6  C   UNK N   1      37.017  13.404  11.585  0.00  0.00     0.048 A 
HETATM    7  C   UNK N   1      36.191  13.990  12.548  0.00  0.00     0.063 A 
HETATM    8  N   UNK N   1      35.599  15.186  12.275  0.00  0.00    -0.191 N 
ATOM      9  HN  UNK N   1      34.995  15.615  12.976  1.00  0.00     0.184 HD
HETATM   10  H   UNK N   1      35.301  17.516   9.990  0.00  0.00     0.174 HD
HETATM   11  H   UNK N   1      34.584  17.455  11.535  0.00  0.00     0.174 HD
ENDROOT
BRANCH   7  12
HETATM   12  C   UNK N   1      35.932  13.359  13.859  0.00  0.00     0.022 A 
HETATM   13  C   UNK N   1      36.358  13.825  15.121  0.00  0.00     0.088 A 
HETATM   14 Cl   UNK N   1      37.299  15.256  15.513  0.00  0.00    -0.075 Cl
HETATM   15  S   UNK N   1      35.796  12.744  16.245  0.00  0.00    -0.065 SA
HETATM   16  C   UNK N   1      35.023  11.685  15.235  0.00  0.00     0.077 A 
HETATM   17 Cl   UNK N   1      34.161  10.236  15.701  0.00  0.00    -0.076 Cl
HETATM   18  C   UNK N   1      35.180  12.151  13.934  0.00  0.00     0.047 A 
ENDBRANCH   7  12
TORSDOF 1
ENDMDL
MODEL 4
REMARK VINA RESULT:      -5.2      3.482      5.503
REMARK  1 active torsions:
REMARK  status: ('A' for Active; 'I' for Inactive)
REMARK       I    between atoms: N_1  and  C_2 
REMARK    1  A    between atoms: C_7  and  C_10 
ROOT
HETATM    1  N   UNK N   1      27.520  18.598   9.062  0.00  0.00    -0.234 N 
HETATM    2  C   UNK N   1      28.216  17.852   8.089  0.00  0.00     0.676 A 
HETATM    3  N   UNK N   1      27.531  17.154   7.146  0.00  0.00    -0.202 N 
ATOM      4  HN  UNK N   1      26.511  17.172   7.146  1.00  0.00     0.183 HD
HETATM    5  C   UNK N   1      28.192  16.431   6.204  0.00  0.00     0.108 A 
HETATM    6  C   UNK N   1      29.588  16.401   6.198  0.00  0.00     0.048 A 
HETATM    7  C   UNK N   1      30.278  17.125   7.174  0.00  0.00     0.063 A 
HETATM    8  N   UNK N   1      29.571  17.834   8.097  0.00  0.00    -0.191 N 
ATOM      9  HN  UNK N   1      30.071  18.363   8.811  1.00  0.00     0.184 HD
HETATM   10  H   UNK N   1      26.536  18.613   9.059  0.00  0.00     0.174 HD
HETATM   11  H   UNK N   1      28.018  19.103   9.743  0.00  0.00     0.174 HD
ENDROOT
BRANCH   7  12
HETATM   12  C   UNK N   1      31.754  17.152   7.246  0.00  0.00     0.022 A 
HETATM   13  C   UNK N   1      32.651  17.323   6.170  0.00  0.00     0.088 A 
HETATM   14 Cl   UNK N   1      32.300  17.549   4.463  0.00  0.00    -0.075 Cl
HETATM   15  S   UNK N   1      34.179  17.273   6.808  0.00  0.00    -0.065 SA
HETATM   16  C   UNK N   1      33.797  17.044   8.402  0.00  0.00     0.077 A 
HETATM   17 Cl   UNK N   1      34.920  16.889   9.734  0.00  0.00    -0.076 Cl
HETATM   18  C   UNK N   1      32.411  16.996   8.501  0.00  0.00     0.047 A 
ENDBRANCH   7  12
TORSDOF 1
ENDMDL
MODEL 5
REMARK VINA RESULT:      -5.2      6.272      8.188
REMARK  1 active torsions:
REMARK  status: ('A' for Active; 'I' for Inactive)
REMARK       I    between atoms: N_1  and  C_2 
REMARK    1  A    between atoms: C_7  and  C_10 
ROOT
HETATM    1  N   UNK N   1      32.448  14.599   9.759  0.00  0.00    -0.234 N 
HETATM    2  C   UNK N   1      33.637  14.986  10.411  0.00  0.00     0.676 A 
HETATM    3  N   UNK N   1      34.198  16.194  10.147  0.00  0.00    -0.202 N 
ATOM      4  HN  UNK N   1      33.755  16.820   9.475  1.00  0.00     0.183 HD
HETATM    5  C   UNK N   1      35.344  16.576  10.770  0.00  0.00     0.108 A 
HETATM    6  C   UNK N   1      35.956  15.724  11.692  0.00  0.00     0.048 A 
HETATM    7  C   UNK N   1      35.366  14.485  11.952  0.00  0.00     0.063 A 
HETATM    8  N   UNK N   1      34.218  14.147  11.303  0.00  0.00    -0.191 N 
ATOM      9  HN  UNK N   1      33.785  13.243  11.491  1.00  0.00     0.184 HD
HETATM   10  H   UNK N   1      32.024  15.205   9.110  0.00  0.00     0.174 HD
HETATM   11  H   UNK N   1      32.044  13.723   9.952  0.00  0.00     0.174 HD
ENDROOT
BRANCH   7  12
HETATM   12  C   UNK N   1      35.942  13.519  12.912  0.00  0.00     0.022 A 
HETATM   13  C   UNK N   1      37.017  12.634  12.680  0.00  0.00     0.088 A 
HETATM   14 Cl   UNK N   1      37.974  12.414  11.224  0.00  0.00    -0.075 Cl
HETATM   15  S   UNK N   1      37.248  11.785  14.085  0.00  0.00    -0.065 SA
HETATM   16  C   UNK N   1      36.055  12.463  15.009  0.00  0.00     0.077 A 
HETATM   17 Cl   UNK N   1      35.666  12.069  16.667  0.00  0.00    -0.076 Cl
HETATM   18  C   UNK N   1      35.406  13.415  14.229  0.00  0.00     0.047 A 
ENDBRANCH   7  12
TORSDOF 1
ENDMDL
MODEL 6
REMARK VINA RESULT:      -5.1      3.777      4.901
REMARK  1 active torsions:
REMARK  status: ('A' for Active; 'I' for Inactive)
REMARK       I    between atoms: N_1  and  C_2 
REMARK    1  A    between atoms: C_7  and  C_10 
ROOT
HETATM    1  N   UNK N   1      27.105  19.810   7.180  0.00  0.00    -0.234 N 
HETATM    2  C   UNK N   1      28.034  18.925   7.765  0.00  0.00     0.676 A 
HETATM    3  N   UNK N   1      27.901  18.558   9.065  0.00  0.00    -0.202 N 
ATOM      4  HN  UNK N   1      27.126  18.925   9.617  1.00  0.00     0.183 HD
HETATM    5  C   UNK N   1      28.791  17.705   9.638  0.00  0.00     0.108 A 
HETATM    6  C   UNK N   1      29.855  17.198   8.889  0.00  0.00     0.048 A 
HETATM    7  C   UNK N   1      29.977  17.586   7.552  0.00  0.00     0.063 A 
HETATM    8  N   UNK N   1      29.060  18.442   7.023  0.00  0.00    -0.191 N 
ATOM      9  HN  UNK N   1      29.147  18.727   6.048  1.00  0.00     0.184 HD
HETATM   10  H   UNK N   1      26.358  20.163   7.715  0.00  0.00     0.174 HD
HETATM   11  H   UNK N   1      27.203  20.074   6.238  0.00  0.00     0.174 HD
ENDROOT
BRANCH   7  12
HETATM   12  C   UNK N   1      31.070  17.100   6.684  0.00  0.00     0.022 A 
HETATM   13  C   UNK N   1      32.450  17.356   6.835  0.00  0.00     0.088 A 
HETATM   14 Cl   UNK N   1      33.270  18.302   8.067  0.00  0.00    -0.075 Cl
HETATM   15  S   UNK N   1      33.220  16.575   5.593  0.00  0.00    -0.065 SA
HETATM   16  C   UNK N   1      31.907  15.908   4.839  0.00  0.00     0.077 A 
HETATM   17 Cl   UNK N   1      31.921  14.911   3.403  0.00  0.00    -0.076 Cl
HETATM   18  C   UNK N   1      30.774  16.282   5.554  0.00  0.00     0.047 A 
ENDBRANCH   7  12
TORSDOF 1
ENDMDL
MODEL 7
REMARK VINA RESULT:      -5.1      9.218     11.148
REMARK  1 active torsions:
REMARK  status: ('A' for Active; 'I' for Inactive)
REMARK       I    between atoms: N_1  and  C_2 
REMARK    1  A    between atoms: C_7  and  C_10 
ROOT
HETATM    1  N   UNK N   1      36.788  14.916  13.699  0.00  0.00    -0.234 N 
HETATM    2  C   UNK N   1      36.019  13.808  14.111  0.00  0.00     0.676 A 
HETATM    3  N   UNK N   1      35.316  13.089  13.199  0.00  0.00    -0.202 N 
ATOM      4  HN  UNK N   1      35.347  13.354  12.215  1.00  0.00     0.183 HD
HETATM    5  C   UNK N   1      34.572  12.019  13.586  0.00  0.00     0.108 A 
HETATM    6  C   UNK N   1      34.525  11.650  14.932  0.00  0.00     0.048 A 
HETATM    7  C   UNK N   1      35.255  12.401  15.858  0.00  0.00     0.063 A 
HETATM    8  N   UNK N   1      35.985  13.464  15.421  0.00  0.00    -0.191 N 
ATOM      9  HN  UNK N   1      36.518  14.014  16.095  1.00  0.00     0.184 HD
HETATM   10  H   UNK N   1      36.815  15.170  12.748  0.00  0.00     0.174 HD
HETATM   11  H   UNK N   1      37.297  15.436  14.361  0.00  0.00     0.174 HD
ENDROOT
BRANCH   7  12
HETATM   12  C   UNK N   1      35.265  12.085  17.301  0.00  0.00     0.022 A 
HETATM   13  C   UNK N   1      35.269  13.007  18.370  0.00  0.00     0.088 A 
HETATM   14 Cl   UNK N   1      35.262  14.763  18.316  0.00  0.00    -0.075 Cl
HETATM   15  S   UNK N   1      35.281  12.118  19.769  0.00  0.00    -0.065 SA
HETATM   16  C   UNK N   1      35.282  10.596  19.120  0.00  0.00     0.077 A 
HETATM   17 Cl   UNK N   1      35.293   9.085  20.000  0.00  0.00    -0.076 Cl
HETATM   18  C   UNK N   1      35.273  10.727  17.735  0.00  0.00     0.047 A 
ENDBRANCH   7  12
TORSDOF 1
ENDMDL
MODEL 8
REMARK VINA RESULT:      -5.1      1.706      2.697
REMARK  1 active torsions:
REMARK  status: ('A' for Active; 'I' for Inactive)
REMARK       I    between atoms: N_1  and  C_2 
REMARK    1  A    between atoms: C_7  and  C_10 
ROOT
HETATM    1  N   UNK N   1      35.224  17.097  10.852  0.00  0.00    -0.234 N 
HETATM    2  C   UNK N   1      34.653  16.504   9.708  0.00  0.00     0.676 A 
HETATM    3  N   UNK N   1      35.337  15.555   9.018  0.00  0.00    -0.202 N 
ATOM      4  HN  UNK N   1      36.265  15.273   9.331  1.00  0.00     0.183 HD
HETATM    5  C   UNK N   1      34.794  14.977   7.913  0.00  0.00     0.108 A 
HETATM    6  C   UNK N   1      33.523  15.358   7.477  0.00  0.00     0.048 A 
HETATM    7  C   UNK N   1      32.833  16.336   8.199  0.00  0.00     0.063 A 
HETATM    8  N   UNK N   1      33.418  16.885   9.299  0.00  0.00    -0.191 N 
ATOM      9  HN  UNK N   1      32.917  17.599   9.827  1.00  0.00     0.184 HD
HETATM   10  H   UNK N   1      36.121  16.823  11.151  0.00  0.00     0.174 HD
HETATM   11  H   UNK N   1      34.727  17.784  11.350  0.00  0.00     0.174 HD
ENDROOT
BRANCH   7  12
HETATM   12  C   UNK N   1      31.485  16.801   7.813  0.00  0.00     0.022 A 
HETATM   13  C   UNK N   1      31.019  17.055   6.505  0.00  0.00     0.088 A 
HETATM   14 Cl   UNK N   1      31.872  16.902   4.977  0.00  0.00    -0.075 Cl
HETATM   15  S   UNK N   1      29.444  17.551   6.646  0.00  0.00    -0.065 SA
HETATM   16  C   UNK N   1      29.283  17.471   8.291  0.00  0.00     0.077 A 
HETATM   17 Cl   UNK N   1      27.854  17.857   9.222  0.00  0.00    -0.076 Cl
HETATM   18  C   UNK N   1      30.498  17.039   8.814  0.00  0.00     0.047 A 
ENDBRANCH   7  12
TORSDOF 1
ENDMDL
MODEL 9
REMARK VINA RESULT:      -5.0      9.316     10.448
REMARK  1 active torsions:
REMARK  status: ('A' for Active; 'I' for Inactive)
REMARK       I    between atoms: N_1  and  C_2 
REMARK    1  A    between atoms: C_7  and  C_10 
ROOT
HETATM    1  N   UNK N   1      24.861  12.219  11.100  0.00  0.00    -0.234 N 
HETATM    2  C   UNK N   1      23.535  12.523  10.728  0.00  0.00     0.676 A 
HETATM    3  N   UNK N   1      22.495  11.932  11.370  0.00  0.00    -0.202 N 
ATOM      4  HN  UNK N   1      22.676  11.268  12.121  1.00  0.00     0.183 HD
HETATM    5  C   UNK N   1      21.213  12.219  11.019  0.00  0.00     0.108 A 
HETATM    6  C   UNK N   1      20.955  13.128   9.991  0.00  0.00     0.048 A 
HETATM    7  C   UNK N   1      22.038  13.727   9.341  0.00  0.00     0.063 A 
HETATM    8  N   UNK N   1      23.304  13.408   9.728  0.00  0.00    -0.191 N 
ATOM      9  HN  UNK N   1      24.095  13.844   9.256  1.00  0.00     0.184 HD
HETATM   10  H   UNK N   1      25.033  11.577  11.825  0.00  0.00     0.174 HD
HETATM   11  H   UNK N   1      25.613  12.649  10.634  0.00  0.00     0.174 HD
ENDROOT
BRANCH   7  12
HETATM   12  C   UNK N   1      21.862  14.700   8.243  0.00  0.00     0.022 A 
HETATM   13  C   UNK N   1      20.804  15.621   8.088  0.00  0.00     0.088 A 
HETATM   14 Cl   UNK N   1      19.410  15.888   9.123  0.00  0.00    -0.075 Cl
HETATM   15  S   UNK N   1      21.101  16.463   6.692  0.00  0.00    -0.065 SA
HETATM   16  C   UNK N   1      22.517  15.737   6.237  0.00  0.00     0.077 A 
HETATM   17 Cl   UNK N   1      23.469  16.101   4.816  0.00  0.00    -0.076 Cl
HETATM   18  C   UNK N   1      22.824  14.774   7.193  0.00  0.00     0.047 A 
ENDBRANCH   7  12
TORSDOF 1
ENDMDL
