MODEL 1
REMARK VINA RESULT:      -4.8      0.000      0.000
REMARK  6 active torsions:
REMARK  status: ('A' for Active; 'I' for Inactive)
REMARK    1  A    between atoms: O_1  and  N_2 
REMARK       I    between atoms: N_2  and  C_3 
REMARK    2  A    between atoms: C_3  and  C_5 
REMARK    3  A    between atoms: C_5  and  O_6 
REMARK    4  A    between atoms: O_6  and  P_7 
REMARK    5  A    between atoms: P_7  and  O_8 
REMARK    6  A    between atoms: P_7  and  O_9 
ROOT
HETATM    1  C   UNK N   1      20.286  19.965   3.178  0.00  0.00     0.285 C 
ENDROOT
BRANCH   1   2
HETATM    2  C   UNK N   1      21.004  20.532   1.994  0.00  0.00     0.265 C 
HETATM    3  N   UNK N   1      20.321  20.735   0.847  0.00  0.00    -0.236 N 
HETATM    4  H   UNK N   1      19.360  20.525   0.811  0.00  0.00     0.197 HD
HETATM    5  O   UNK N   1      22.198  20.797   2.058  0.00  0.00    -0.269 OA
BRANCH   3   6
HETATM    6  O   UNK N   1      20.930  21.218  -0.244  0.00  0.00    -0.287 OA
HETATM    7  H   UNK N   1      21.876  21.430  -0.229  0.00  0.00     0.244 HD
ENDBRANCH   3   6
ENDBRANCH   1   2
BRANCH   1   8
HETATM    8  O   UNK N   1      19.350  18.987   2.808  0.00  0.00    -0.288 OA
BRANCH   8   9
HETATM    9  P   UNK N   1      20.267  17.516   2.613  0.00  0.00     0.391 P 
HETATM   10  O   UNK N   1      19.453  17.145   3.884  0.00  0.00    -0.632 OA
BRANCH   9  11
HETATM   11  O   UNK N   1      19.545  16.004   2.162  0.00  0.00    -0.307 OA
HETATM   12  H   UNK N   1      18.718  15.661   2.537  0.00  0.00     0.222 HD
ENDBRANCH   9  11
BRANCH   9  13
HETATM   13  O   UNK N   1      19.137  17.703   1.307  0.00  0.00    -0.307 OA
HETATM   14  H   UNK N   1      19.122  18.444   0.681  0.00  0.00     0.222 HD
ENDBRANCH   9  13
ENDBRANCH   8   9
ENDBRANCH   1   8
TORSDOF 6
ENDMDL
MODEL 2
REMARK VINA RESULT:      -4.6     10.218     11.705
REMARK  6 active torsions:
REMARK  status: ('A' for Active; 'I' for Inactive)
REMARK    1  A    between atoms: O_1  and  N_2 
REMARK       I    between atoms: N_2  and  C_3 
REMARK    2  A    between atoms: C_3  and  C_5 
REMARK    3  A    between atoms: C_5  and  O_6 
REMARK    4  A    between atoms: O_6  and  P_7 
REMARK    5  A    between atoms: P_7  and  O_8 
REMARK    6  A    between atoms: P_7  and  O_9 
ROOT
HETATM    1  C   UNK N   1      22.683  11.609  10.586  0.00  0.00     0.285 C 
ENDROOT
BRANCH   1   2
HETATM    2  C   UNK N   1      23.614  11.936  11.710  0.00  0.00     0.265 C 
HETATM    3  N   UNK N   1      23.109  12.135  12.947  0.00  0.00    -0.236 N 
HETATM    4  H   UNK N   1      22.139  12.044  13.093  0.00  0.00     0.197 HD
HETATM    5  O   UNK N   1      24.820  12.035  11.513  0.00  0.00    -0.269 OA
BRANCH   3   6
HETATM    6  O   UNK N   1      23.903  12.453  13.977  0.00  0.00    -0.287 OA
HETATM    7  H   UNK N   1      24.867  12.375  13.900  0.00  0.00     0.244 HD
ENDBRANCH   3   6
ENDBRANCH   1   2
BRANCH   1   8
HETATM    8  O   UNK N   1      21.428  12.214  10.749  0.00  0.00    -0.288 OA
BRANCH   8   9
HETATM    9  P   UNK N   1      21.428  13.583   9.668  0.00  0.00     0.391 P 
HETATM   10  O   UNK N   1      21.710  12.448   8.644  0.00  0.00    -0.632 OA
BRANCH   9  11
HETATM   11  O   UNK N   1      20.196  13.846   8.474  0.00  0.00    -0.307 OA
HETATM   12  H   UNK N   1      19.977  13.216   7.769  0.00  0.00     0.222 HD
ENDBRANCH   9  11
BRANCH   9  13
HETATM   13  O   UNK N   1      19.837  13.320  10.312  0.00  0.00    -0.307 OA
HETATM   14  H   UNK N   1      19.639  13.037  11.218  0.00  0.00     0.222 HD
ENDBRANCH   9  13
ENDBRANCH   8   9
ENDBRANCH   1   8
TORSDOF 6
ENDMDL
MODEL 3
REMARK VINA RESULT:      -4.6      2.466      3.000
REMARK  6 active torsions:
REMARK  status: ('A' for Active; 'I' for Inactive)
REMARK    1  A    between atoms: O_1  and  N_2 
REMARK       I    between atoms: N_2  and  C_3 
REMARK    2  A    between atoms: C_3  and  C_5 
REMARK    3  A    between atoms: C_5  and  O_6 
REMARK    4  A    between atoms: O_6  and  P_7 
REMARK    5  A    between atoms: P_7  and  O_8 
REMARK    6  A    between atoms: P_7  and  O_9 
ROOT
HETATM    1  C   UNK N   1      20.292  19.512   3.289  0.00  0.00     0.285 C 
ENDROOT
BRANCH   1   2
HETATM    2  C   UNK N   1      20.825  20.403   2.212  0.00  0.00     0.265 C 
HETATM    3  N   UNK N   1      20.396  20.230   0.942  0.00  0.00    -0.236 N 
HETATM    4  H   UNK N   1      19.728  19.533   0.748  0.00  0.00     0.197 HD
HETATM    5  O   UNK N   1      21.648  21.273   2.472  0.00  0.00    -0.269 OA
BRANCH   3   6
HETATM    6  O   UNK N   1      20.864  20.990  -0.056  0.00  0.00    -0.287 OA
HETATM    7  H   UNK N   1      20.360  21.092  -0.878  0.00  0.00     0.244 HD
ENDBRANCH   3   6
ENDBRANCH   1   2
BRANCH   1   8
HETATM    8  O   UNK N   1      20.970  19.693   4.504  0.00  0.00    -0.288 OA
BRANCH   8   9
HETATM    9  P   UNK N   1      21.547  18.110   4.955  0.00  0.00     0.391 P 
HETATM   10  O   UNK N   1      22.890  18.757   4.516  0.00  0.00    -0.632 OA
BRANCH   9  11
HETATM   11  O   UNK N   1      22.562  17.830   6.334  0.00  0.00    -0.307 OA
HETATM   12  H   UNK N   1      23.278  18.424   6.614  0.00  0.00     0.222 HD
ENDBRANCH   9  11
BRANCH   9  13
HETATM   13  O   UNK N   1      20.986  18.971   6.355  0.00  0.00    -0.307 OA
HETATM   14  H   UNK N   1      20.152  19.462   6.414  0.00  0.00     0.222 HD
ENDBRANCH   9  13
ENDBRANCH   8   9
ENDBRANCH   1   8
TORSDOF 6
ENDMDL
MODEL 4
REMARK VINA RESULT:      -4.6      2.420      4.204
REMARK  6 active torsions:
REMARK  status: ('A' for Active; 'I' for Inactive)
REMARK    1  A    between atoms: O_1  and  N_2 
REMARK       I    between atoms: N_2  and  C_3 
REMARK    2  A    between atoms: C_3  and  C_5 
REMARK    3  A    between atoms: C_5  and  O_6 
REMARK    4  A    between atoms: O_6  and  P_7 
REMARK    5  A    between atoms: P_7  and  O_8 
REMARK    6  A    between atoms: P_7  and  O_9 
ROOT
HETATM    1  C   UNK N   1      20.755  17.832   2.270  0.00  0.00     0.285 C 
ENDROOT
BRANCH   1   2
HETATM    2  C   UNK N   1      20.141  17.026   1.168  0.00  0.00     0.265 C 
HETATM    3  N   UNK N   1      18.867  17.280   0.799  0.00  0.00    -0.236 N 
HETATM    4  H   UNK N   1      18.368  18.002   1.247  0.00  0.00     0.197 HD
HETATM    5  O   UNK N   1      20.779  16.139   0.615  0.00  0.00    -0.269 OA
BRANCH   3   6
HETATM    6  O   UNK N   1      18.270  16.568  -0.165  0.00  0.00    -0.287 OA
HETATM    7  H   UNK N   1      17.351  16.746  -0.415  0.00  0.00     0.244 HD
ENDBRANCH   3   6
ENDBRANCH   1   2
BRANCH   1   8
HETATM    8  O   UNK N   1      20.349  19.174   2.229  0.00  0.00    -0.288 OA
BRANCH   8   9
HETATM    9  P   UNK N   1      21.787  20.105   2.561  0.00  0.00     0.391 P 
HETATM   10  O   UNK N   1      21.536  20.536   1.089  0.00  0.00    -0.632 OA
BRANCH   9  11
HETATM   11  O   UNK N   1      21.787  21.836   2.677  0.00  0.00    -0.307 OA
HETATM   12  H   UNK N   1      22.335  22.420   2.129  0.00  0.00     0.222 HD
ENDBRANCH   9  11
BRANCH   9  13
HETATM   13  O   UNK N   1      20.454  20.689   3.510  0.00  0.00    -0.307 OA
HETATM   14  H   UNK N   1      20.530  21.249   4.299  0.00  0.00     0.222 HD
ENDBRANCH   9  13
ENDBRANCH   8   9
ENDBRANCH   1   8
TORSDOF 6
ENDMDL
MODEL 5
REMARK VINA RESULT:      -4.5     14.350     15.423
REMARK  6 active torsions:
REMARK  status: ('A' for Active; 'I' for Inactive)
REMARK    1  A    between atoms: O_1  and  N_2 
REMARK       I    between atoms: N_2  and  C_3 
REMARK    2  A    between atoms: C_3  and  C_5 
REMARK    3  A    between atoms: C_5  and  O_6 
REMARK    4  A    between atoms: O_6  and  P_7 
REMARK    5  A    between atoms: P_7  and  O_8 
REMARK    6  A    between atoms: P_7  and  O_9 
ROOT
HETATM    1  C   UNK N   1      33.623  18.080   7.506  0.00  0.00     0.285 C 
ENDROOT
BRANCH   1   2
HETATM    2  C   UNK N   1      34.687  18.288   8.537  0.00  0.00     0.265 C 
HETATM    3  N   UNK N   1      34.872  17.349   9.490  0.00  0.00    -0.236 N 
HETATM    4  H   UNK N   1      34.318  16.535   9.482  0.00  0.00     0.197 HD
HETATM    5  O   UNK N   1      35.375  19.302   8.527  0.00  0.00    -0.269 OA
BRANCH   3   6
HETATM    6  O   UNK N   1      35.797  17.506  10.446  0.00  0.00    -0.287 OA
HETATM    7  H   UNK N   1      36.526  16.873  10.536  0.00  0.00     0.244 HD
ENDBRANCH   3   6
ENDBRANCH   1   2
BRANCH   1   8
HETATM    8  O   UNK N   1      34.161  17.896   6.223  0.00  0.00    -0.288 OA
BRANCH   8   9
HETATM    9  P   UNK N   1      33.263  16.573   5.527  0.00  0.00     0.391 P 
HETATM   10  O   UNK N   1      33.167  17.594   4.358  0.00  0.00    -0.632 OA
BRANCH   9  11
HETATM   11  O   UNK N   1      33.838  15.647   4.177  0.00  0.00    -0.307 OA
HETATM   12  H   UNK N   1      34.661  15.833   3.698  0.00  0.00     0.222 HD
ENDBRANCH   9  11
BRANCH   9  13
HETATM   13  O   UNK N   1      34.936  16.142   5.705  0.00  0.00    -0.307 OA
HETATM   14  H   UNK N   1      35.285  15.237   5.694  0.00  0.00     0.222 HD
ENDBRANCH   9  13
ENDBRANCH   8   9
ENDBRANCH   1   8
TORSDOF 6
ENDMDL
MODEL 6
REMARK VINA RESULT:      -4.5      9.084     10.673
REMARK  6 active torsions:
REMARK  status: ('A' for Active; 'I' for Inactive)
REMARK    1  A    between atoms: O_1  and  N_2 
REMARK       I    between atoms: N_2  and  C_3 
REMARK    2  A    between atoms: C_3  and  C_5 
REMARK    3  A    between atoms: C_5  and  O_6 
REMARK    4  A    between atoms: O_6  and  P_7 
REMARK    5  A    between atoms: P_7  and  O_8 
REMARK    6  A    between atoms: P_7  and  O_9 
ROOT
HETATM    1  C   UNK N   1      22.680  12.774   9.010  0.00  0.00     0.285 C 
ENDROOT
BRANCH   1   2
HETATM    2  C   UNK N   1      23.308  12.416  10.320  0.00  0.00     0.265 C 
HETATM    3  N   UNK N   1      24.571  12.822  10.577  0.00  0.00    -0.236 N 
HETATM    4  H   UNK N   1      25.051  13.360   9.907  0.00  0.00     0.197 HD
HETATM    5  O   UNK N   1      22.692  11.754  11.147  0.00  0.00    -0.269 OA
BRANCH   3   6
HETATM    6  O   UNK N   1      25.179  12.503  11.726  0.00  0.00    -0.287 OA
HETATM    7  H   UNK N   1      25.002  13.007  12.536  0.00  0.00     0.244 HD
ENDBRANCH   3   6
ENDBRANCH   1   2
BRANCH   1   8
HETATM    8  O   UNK N   1      21.282  12.659   9.048  0.00  0.00    -0.288 OA
BRANCH   8   9
HETATM    9  P   UNK N   1      20.692  14.260   9.409  0.00  0.00     0.391 P 
HETATM   10  O   UNK N   1      20.101  14.085   7.982  0.00  0.00    -0.632 OA
BRANCH   9  11
HETATM   11  O   UNK N   1      19.012  14.616   9.658  0.00  0.00    -0.307 OA
HETATM   12  H   UNK N   1      18.464  15.121   9.037  0.00  0.00     0.222 HD
ENDBRANCH   9  11
BRANCH   9  13
HETATM   13  O   UNK N   1      19.929  13.087  10.438  0.00  0.00    -0.307 OA
HETATM   14  H   UNK N   1      18.975  12.913  10.479  0.00  0.00     0.222 HD
ENDBRANCH   9  13
ENDBRANCH   8   9
ENDBRANCH   1   8
TORSDOF 6
ENDMDL
MODEL 7
REMARK VINA RESULT:      -4.2     16.585     17.677
REMARK  6 active torsions:
REMARK  status: ('A' for Active; 'I' for Inactive)
REMARK    1  A    between atoms: O_1  and  N_2 
REMARK       I    between atoms: N_2  and  C_3 
REMARK    2  A    between atoms: C_3  and  C_5 
REMARK    3  A    between atoms: C_5  and  O_6 
REMARK    4  A    between atoms: O_6  and  P_7 
REMARK    5  A    between atoms: P_7  and  O_8 
REMARK    6  A    between atoms: P_7  and  O_9 
ROOT
HETATM    1  C   UNK N   1      34.863  16.372  10.215  0.00  0.00     0.285 C 
ENDROOT
BRANCH   1   2
HETATM    2  C   UNK N   1      35.977  15.600  10.848  0.00  0.00     0.265 C 
HETATM    3  N   UNK N   1      35.849  15.191  12.129  0.00  0.00    -0.236 N 
HETATM    4  H   UNK N   1      35.020  15.391  12.620  0.00  0.00     0.197 HD
HETATM    5  O   UNK N   1      36.999  15.350  10.220  0.00  0.00    -0.269 OA
BRANCH   3   6
HETATM    6  O   UNK N   1      36.832  14.518  12.742  0.00  0.00    -0.287 OA
HETATM    7  H   UNK N   1      37.430  13.946  12.236  0.00  0.00     0.244 HD
ENDBRANCH   3   6
ENDBRANCH   1   2
BRANCH   1   8
HETATM    8  O   UNK N   1      35.323  17.537   9.583  0.00  0.00    -0.288 OA
BRANCH   8   9
HETATM    9  P   UNK N   1      34.132  17.906   8.363  0.00  0.00     0.391 P 
HETATM   10  O   UNK N   1      34.977  19.209   8.299  0.00  0.00    -0.632 OA
BRANCH   9  11
HETATM   11  O   UNK N   1      34.512  18.018   6.674  0.00  0.00    -0.307 OA
HETATM   12  H   UNK N   1      34.999  18.755   6.272  0.00  0.00     0.222 HD
ENDBRANCH   9  11
BRANCH   9  13
HETATM   13  O   UNK N   1      35.148  16.598   7.841  0.00  0.00    -0.307 OA
HETATM   14  H   UNK N   1      35.550  15.934   8.423  0.00  0.00     0.222 HD
ENDBRANCH   9  13
ENDBRANCH   8   9
ENDBRANCH   1   8
TORSDOF 6
ENDMDL
MODEL 8
REMARK VINA RESULT:      -4.2     10.875     11.800
REMARK  6 active torsions:
REMARK  status: ('A' for Active; 'I' for Inactive)
REMARK    1  A    between atoms: O_1  and  N_2 
REMARK       I    between atoms: N_2  and  C_3 
REMARK    2  A    between atoms: C_3  and  C_5 
REMARK    3  A    between atoms: C_5  and  O_6 
REMARK    4  A    between atoms: O_6  and  P_7 
REMARK    5  A    between atoms: P_7  and  O_8 
REMARK    6  A    between atoms: P_7  and  O_9 
ROOT
HETATM    1  C   UNK N   1      29.976  23.688  -3.539  0.00  0.00     0.285 C 
ENDROOT
BRANCH   1   2
HETATM    2  C   UNK N   1      30.747  22.909  -2.521  0.00  0.00     0.265 C 
HETATM    3  N   UNK N   1      31.746  22.098  -2.932  0.00  0.00    -0.236 N 
HETATM    4  H   UNK N   1      31.964  22.046  -3.891  0.00  0.00     0.197 HD
HETATM    5  O   UNK N   1      30.470  22.993  -1.331  0.00  0.00    -0.269 OA
BRANCH   3   6
HETATM    6  O   UNK N   1      32.447  21.365  -2.057  0.00  0.00    -0.287 OA
HETATM    7  H   UNK N   1      32.634  20.430  -2.233  0.00  0.00     0.244 HD
ENDBRANCH   3   6
ENDBRANCH   1   2
BRANCH   1   8
HETATM    8  O   UNK N   1      28.646  23.253  -3.638  0.00  0.00    -0.288 OA
BRANCH   8   9
HETATM    9  P   UNK N   1      27.699  24.700  -3.868  0.00  0.00     0.391 P 
HETATM   10  O   UNK N   1      27.273  23.911  -5.137  0.00  0.00    -0.632 OA
BRANCH   9  11
HETATM   11  O   UNK N   1      25.967  24.724  -3.757  0.00  0.00    -0.307 OA
HETATM   12  H   UNK N   1      25.380  24.148  -4.271  0.00  0.00     0.222 HD
ENDBRANCH   9  11
BRANCH   9  13
HETATM   13  O   UNK N   1      27.127  23.814  -2.488  0.00  0.00    -0.307 OA
HETATM   14  H   UNK N   1      27.231  24.088  -1.563  0.00  0.00     0.222 HD
ENDBRANCH   9  13
ENDBRANCH   8   9
ENDBRANCH   1   8
TORSDOF 6
ENDMDL
MODEL 9
REMARK VINA RESULT:      -4.2     13.239     14.430
REMARK  6 active torsions:
REMARK  status: ('A' for Active; 'I' for Inactive)
REMARK    1  A    between atoms: O_1  and  N_2 
REMARK       I    between atoms: N_2  and  C_3 
REMARK    2  A    between atoms: C_3  and  C_5 
REMARK    3  A    between atoms: C_5  and  O_6 
REMARK    4  A    between atoms: O_6  and  P_7 
REMARK    5  A    between atoms: P_7  and  O_8 
REMARK    6  A    between atoms: P_7  and  O_9 
ROOT
HETATM    1  C   UNK N   1      32.039  17.441   7.834  0.00  0.00     0.285 C 
ENDROOT
BRANCH   1   2
HETATM    2  C   UNK N   1      30.669  17.696   8.378  0.00  0.00     0.265 C 
HETATM    3  N   UNK N   1      30.535  18.423   9.508  0.00  0.00    -0.236 N 
HETATM    4  H   UNK N   1      31.337  18.788   9.947  0.00  0.00     0.197 HD
HETATM    5  O   UNK N   1      29.680  17.244   7.814  0.00  0.00    -0.269 OA
BRANCH   3   6
HETATM    6  O   UNK N   1      29.329  18.656  10.042  0.00  0.00    -0.287 OA
HETATM    7  H   UNK N   1      28.575  18.888   9.478  0.00  0.00     0.244 HD
ENDBRANCH   3   6
ENDBRANCH   1   2
BRANCH   1   8
HETATM    8  O   UNK N   1      32.940  18.460   8.177  0.00  0.00    -0.288 OA
BRANCH   8   9
HETATM    9  P   UNK N   1      34.503  17.690   8.267  0.00  0.00     0.391 P 
HETATM   10  O   UNK N   1      34.943  19.176   8.380  0.00  0.00    -0.632 OA
BRANCH   9  11
HETATM   11  O   UNK N   1      35.472  17.681   9.706  0.00  0.00    -0.307 OA
HETATM   12  H   UNK N   1      35.388  17.026  10.416  0.00  0.00     0.222 HD
ENDBRANCH   9  11
BRANCH   9  13
HETATM   13  O   UNK N   1      33.562  17.316   9.677  0.00  0.00    -0.307 OA
HETATM   14  H   UNK N   1      33.599  17.796  10.520  0.00  0.00     0.222 HD
ENDBRANCH   9  13
ENDBRANCH   8   9
ENDBRANCH   1   8
TORSDOF 6
ENDMDL
