MODEL 1
REMARK VINA RESULT:      -7.4      0.000      0.000
REMARK  14 active torsions:
REMARK  status: ('A' for Active; 'I' for Inactive)
REMARK    1  A    between atoms: N_1  and  C_2 
REMARK    2  A    between atoms: C_8  and  C_9 
REMARK    3  A    between atoms: N_15  and  C_16 
REMARK    4  A    between atoms: C_16  and  C_17 
REMARK    5  A    between atoms: C_17  and  C_18 
REMARK    6  A    between atoms: C_18  and  C_19 
REMARK    7  A    between atoms: C_19  and  C_20 
REMARK    8  A    between atoms: C_20  and  C_21 
REMARK    9  A    between atoms: C_21  and  C_22 
REMARK   10  A    between atoms: N_27  and  C_28 
REMARK   11  A    between atoms: C_28  and  C_29 
REMARK   12  A    between atoms: C_29  and  N_30 
REMARK   13  A    between atoms: N_30  and  C_31 
REMARK   14  A    between atoms: C_50  and  N_51 
ROOT
HETATM    1  C   UNK N   1      26.300  23.227  -9.611  0.00  0.00     0.002 C 
ENDROOT
BRANCH   1   2
HETATM    2  C   UNK N   1      27.522  22.514  -9.046  0.00  0.00     0.020 C 
BRANCH   2   3
HETATM    3  C   UNK N   1      27.221  22.007  -7.668  0.00  0.00     0.129 C 
BRANCH   3   4
HETATM    4  N   UNK N   1      28.084  22.474  -6.561  0.00  0.00    -0.345 N 
HETATM    5  C   UNK N   1      29.271  21.822  -6.254  0.00  0.00     0.056 C 
HETATM    6  C   UNK N   1      29.886  22.052  -4.996  0.00  0.00     0.005 A 
HETATM    7  C   UNK N   1      29.352  23.019  -4.118  0.00  0.00    -0.011 A 
HETATM    8  C   UNK N   1      31.034  21.342  -4.603  0.00  0.00     0.043 A 
HETATM    9  C   UNK N   1      29.968  23.240  -2.872  0.00  0.00     0.015 A 
HETATM   10  C   UNK N   1      28.230  23.758  -4.507  0.00  0.00     0.002 A 
HETATM   11  C   UNK N   1      31.086  22.497  -2.488  0.00  0.00     0.030 A 
HETATM   12  C   UNK N   1      31.618  21.547  -3.356  0.00  0.00     0.026 A 
HETATM   13  C   UNK N   1      27.588  23.456  -5.730  0.00  0.00     0.048 A 
HETATM   14  C   UNK N   1      27.719  24.775  -3.681  0.00  0.00     0.017 A 
HETATM   15  C   UNK N   1      26.436  24.189  -6.088  0.00  0.00     0.059 A 
HETATM   16  C   UNK N   1      25.957  25.215  -5.269  0.00  0.00     0.027 A 
HETATM   17  C   UNK N   1      26.599  25.508  -4.067  0.00  0.00     0.030 A 
BRANCH   5  18
HETATM   18  C   UNK N   1      29.969  20.946  -7.254  0.00  0.00    -0.008 A 
HETATM   19  C   UNK N   1      29.538  19.616  -7.374  0.00  0.00     0.014 A 
HETATM   20  C   UNK N   1      29.992  18.794  -8.405  0.00  0.00     0.001 A 
HETATM   21  C   UNK N   1      30.878  19.299  -9.352  0.00  0.00     0.000 A 
HETATM   22  C   UNK N   1      31.294  20.630  -9.273  0.00  0.00     0.001 A 
HETATM   23  C   UNK N   1      30.823  21.457  -8.245  0.00  0.00     0.014 A 
ENDBRANCH   5  18
BRANCH  12  24
HETATM   24  N   UNK N   1      32.736  20.783  -2.969  0.00  0.00    -0.399 N 
HETATM   25  H   UNK N   1      32.705  20.192  -2.183  0.00  0.00     0.156 HD
HETATM   26  H   UNK N   1      33.565  20.840  -3.496  0.00  0.00     0.156 HD
ENDBRANCH  12  24
BRANCH  16  27
HETATM   27  N   UNK N   1      24.834  25.967  -5.664  0.00  0.00    -0.399 N 
HETATM   28  H   UNK N   1      24.843  26.952  -5.648  0.00  0.00     0.156 HD
HETATM   29  H   UNK N   1      24.020  25.499  -5.961  0.00  0.00     0.156 HD
ENDBRANCH  16  27
ENDBRANCH   3   4
ENDBRANCH   2   3
ENDBRANCH   1   2
BRANCH   1  30
HETATM   30  C   UNK N   1      26.332  23.300 -11.137  0.00  0.00     0.000 C 
BRANCH  30  31
HETATM   31  C   UNK N   1      25.589  24.521 -11.669  0.00  0.00     0.006 C 
BRANCH  31  32
HETATM   32  C   UNK N   1      25.708  25.748 -10.761  0.00  0.00     0.060 C 
BRANCH  32  33
HETATM   33  C   UNK N   1      26.518  26.834 -11.395  0.00  0.00     0.043 A 
HETATM   34  C   UNK N   1      26.149  27.655 -12.441  0.00  0.00     0.131 A 
HETATM   35  N   UNK N   1      27.216  28.445 -12.705  0.00  0.00    -0.293 N 
HETATM   36  N   UNK N   1      28.184  28.117 -11.858  0.00  0.00    -0.020 NA
ATOM     37  HN  UNK N   1      27.268  29.164 -13.426  1.00  0.00     0.183 HD
HETATM   38  N   UNK N   1      27.775  27.149 -11.060  0.00  0.00    -0.277 N 
BRANCH  38  39
HETATM   39  C   UNK N   1      28.579  26.541 -10.006  0.00  0.00     0.166 C 
BRANCH  39  40
HETATM   40  C   UNK N   1      28.672  27.493  -8.832  0.00  0.00     0.141 C 
BRANCH  40  41
HETATM   41  N   UNK N   1      28.395  26.737  -7.645  0.00  0.00    -0.387 N 
HETATM   42  H   UNK N   1      27.714  26.027  -7.683  0.00  0.00     0.159 HD
BRANCH  41  43
HETATM   43  C   UNK N   1      29.064  26.972  -6.423  0.00  0.00     0.049 A 
HETATM   44  C   UNK N   1      28.598  27.924  -5.492  0.00  0.00    -0.008 A 
HETATM   45  C   UNK N   1      27.375  28.757  -5.799  0.00  0.00     0.043 C 
HETATM   46  C   UNK N   1      29.312  28.100  -4.283  0.00  0.00     0.018 A 
HETATM   47  C   UNK N   1      27.264  30.002  -4.930  0.00  0.00     0.005 C 
HETATM   48  C   UNK N   1      27.456  29.626  -3.474  0.00  0.00     0.006 C 
HETATM   49  C   UNK N   1      28.870  29.097  -3.246  0.00  0.00     0.057 C 
HETATM   50  N   UNK N   1      30.428  27.360  -4.038  0.00  0.00    -0.358 N 
HETATM   51  C   UNK N   1      30.890  26.438  -4.921  0.00  0.00     0.044 A 
ATOM     52  HN  UNK N   1      30.932  27.503  -3.164  1.00  0.00     0.166 HD
HETATM   53  C   UNK N   1      30.216  26.229  -6.138  0.00  0.00     0.018 A 
HETATM   54  C   UNK N   1      32.029  25.686  -4.619  0.00  0.00     0.030 A 
HETATM   55  C   UNK N   1      30.693  25.264  -7.038  0.00  0.00     0.016 A 
HETATM   56  C   UNK N   1      31.830  24.514  -6.731  0.00  0.00     0.001 A 
HETATM   57  C   UNK N   1      32.498  24.725  -5.521  0.00  0.00     0.002 A 
ENDBRANCH  41  43
ENDBRANCH  40  41
ENDBRANCH  39  40
ENDBRANCH  38  39
ENDBRANCH  32  33
ENDBRANCH  31  32
ENDBRANCH  30  31
ENDBRANCH   1  30
TORSDOF 14
ENDMDL
MODEL 2
REMARK VINA RESULT:      -7.2     17.211     22.167
REMARK  14 active torsions:
REMARK  status: ('A' for Active; 'I' for Inactive)
REMARK    1  A    between atoms: N_1  and  C_2 
REMARK    2  A    between atoms: C_8  and  C_9 
REMARK    3  A    between atoms: N_15  and  C_16 
REMARK    4  A    between atoms: C_16  and  C_17 
REMARK    5  A    between atoms: C_17  and  C_18 
REMARK    6  A    between atoms: C_18  and  C_19 
REMARK    7  A    between atoms: C_19  and  C_20 
REMARK    8  A    between atoms: C_20  and  C_21 
REMARK    9  A    between atoms: C_21  and  C_22 
REMARK   10  A    between atoms: N_27  and  C_28 
REMARK   11  A    between atoms: C_28  and  C_29 
REMARK   12  A    between atoms: C_29  and  N_30 
REMARK   13  A    between atoms: N_30  and  C_31 
REMARK   14  A    between atoms: C_50  and  N_51 
ROOT
HETATM    1  C   UNK N   1      35.916  15.213  12.476  0.00  0.00     0.002 C 
ENDROOT
BRANCH   1   2
HETATM    2  C   UNK N   1      36.406  14.219  13.521  0.00  0.00     0.020 C 
BRANCH   2   3
HETATM    3  C   UNK N   1      35.270  13.346  13.963  0.00  0.00     0.129 C 
BRANCH   3   4
HETATM    4  N   UNK N   1      35.600  12.131  14.740  0.00  0.00    -0.345 N 
HETATM    5  C   UNK N   1      35.836  10.918  14.107  0.00  0.00     0.056 C 
HETATM    6  C   UNK N   1      35.792   9.718  14.864  0.00  0.00     0.005 A 
HETATM    7  C   UNK N   1      35.621   9.775  16.263  0.00  0.00    -0.011 A 
HETATM    8  C   UNK N   1      35.928   8.461  14.249  0.00  0.00     0.043 A 
HETATM    9  C   UNK N   1      35.577   8.580  17.006  0.00  0.00     0.015 A 
HETATM   10  C   UNK N   1      35.517  11.019  16.895  0.00  0.00     0.002 A 
HETATM   11  C   UNK N   1      35.678   7.342  16.370  0.00  0.00     0.030 A 
HETATM   12  C   UNK N   1      35.854   7.284  14.990  0.00  0.00     0.026 A 
HETATM   13  C   UNK N   1      35.485  12.196  16.112  0.00  0.00     0.048 A 
HETATM   14  C   UNK N   1      35.415  11.107  18.295  0.00  0.00     0.017 A 
HETATM   15  C   UNK N   1      35.343  13.439  16.766  0.00  0.00     0.059 A 
HETATM   16  C   UNK N   1      35.271  13.511  18.160  0.00  0.00     0.027 A 
HETATM   17  C   UNK N   1      35.308  12.345  18.923  0.00  0.00     0.030 A 
BRANCH   5  18
HETATM   18  C   UNK N   1      36.225  10.848  12.658  0.00  0.00    -0.008 A 
HETATM   19  C   UNK N   1      35.196  10.814  11.705  0.00  0.00     0.014 A 
HETATM   20  C   UNK N   1      35.462  10.947  10.343  0.00  0.00     0.001 A 
HETATM   21  C   UNK N   1      36.771  11.137   9.909  0.00  0.00     0.000 A 
HETATM   22  C   UNK N   1      37.808  11.209  10.843  0.00  0.00     0.001 A 
HETATM   23  C   UNK N   1      37.535  11.091  12.212  0.00  0.00     0.014 A 
ENDBRANCH   5  18
BRANCH  12  24
HETATM   24  N   UNK N   1      35.940   6.038  14.339  0.00  0.00    -0.399 N 
HETATM   25  H   UNK N   1      35.392   5.273  14.624  0.00  0.00     0.156 HD
HETATM   26  H   UNK N   1      36.562   5.931  13.583  0.00  0.00     0.156 HD
ENDBRANCH  12  24
BRANCH  16  27
HETATM   27  N   UNK N   1      35.177  14.763  18.798  0.00  0.00    -0.399 N 
HETATM   28  H   UNK N   1      34.629  15.491  18.424  0.00  0.00     0.156 HD
HETATM   29  H   UNK N   1      35.670  14.914  19.637  0.00  0.00     0.156 HD
ENDBRANCH  16  27
ENDBRANCH   3   4
ENDBRANCH   2   3
ENDBRANCH   1   2
BRANCH   1  30
HETATM   30  C   UNK N   1      35.056  14.543  11.406  0.00  0.00     0.000 C 
BRANCH  30  31
HETATM   31  C   UNK N   1      35.652  14.699  10.010  0.00  0.00     0.006 C 
BRANCH  31  32
HETATM   32  C   UNK N   1      34.599  14.920   8.921  0.00  0.00     0.060 C 
BRANCH  32  33
HETATM   33  C   UNK N   1      34.599  16.331   8.425  0.00  0.00     0.043 A 
HETATM   34  C   UNK N   1      34.750  17.483   9.169  0.00  0.00     0.131 A 
HETATM   35  N   UNK N   1      34.632  18.518   8.304  0.00  0.00    -0.293 N 
HETATM   36  N   UNK N   1      34.422  18.014   7.094  0.00  0.00    -0.020 NA
ATOM     37  HN  UNK N   1      34.695  19.508   8.539  1.00  0.00     0.183 HD
HETATM   38  N   UNK N   1      34.403  16.696   7.152  0.00  0.00    -0.277 N 
BRANCH  38  39
HETATM   39  C   UNK N   1      34.195  15.814   6.010  0.00  0.00     0.166 C 
BRANCH  39  40
HETATM   40  C   UNK N   1      32.727  15.463   5.905  0.00  0.00     0.141 C 
BRANCH  40  41
HETATM   41  N   UNK N   1      32.014  16.678   5.633  0.00  0.00    -0.387 N 
HETATM   42  H   UNK N   1      32.510  17.448   5.274  0.00  0.00     0.159 HD
BRANCH  41  43
HETATM   43  C   UNK N   1      30.626  16.810   5.861  0.00  0.00     0.049 A 
HETATM   44  C   UNK N   1      30.115  17.279   7.089  0.00  0.00    -0.008 A 
HETATM   45  C   UNK N   1      31.052  17.620   8.225  0.00  0.00     0.043 C 
HETATM   46  C   UNK N   1      28.714  17.396   7.243  0.00  0.00     0.018 A 
HETATM   47  C   UNK N   1      30.357  17.681   9.578  0.00  0.00     0.005 C 
HETATM   48  C   UNK N   1      29.111  18.538   9.472  0.00  0.00     0.006 C 
HETATM   49  C   UNK N   1      28.102  17.890   8.527  0.00  0.00     0.057 C 
HETATM   50  N   UNK N   1      27.885  17.056   6.218  0.00  0.00    -0.358 N 
HETATM   51  C   UNK N   1      28.359  16.605   5.028  0.00  0.00     0.044 A 
ATOM     52  HN  UNK N   1      26.878  17.143   6.349  1.00  0.00     0.166 HD
HETATM   53  C   UNK N   1      29.744  16.468   4.828  0.00  0.00     0.018 A 
HETATM   54  C   UNK N   1      27.472  16.287   3.996  0.00  0.00     0.030 A 
HETATM   55  C   UNK N   1      30.224  16.015   3.589  0.00  0.00     0.016 A 
HETATM   56  C   UNK N   1      29.335  15.700   2.560  0.00  0.00     0.001 A 
HETATM   57  C   UNK N   1      27.958  15.836   2.764  0.00  0.00     0.002 A 
ENDBRANCH  41  43
ENDBRANCH  40  41
ENDBRANCH  39  40
ENDBRANCH  38  39
ENDBRANCH  32  33
ENDBRANCH  31  32
ENDBRANCH  30  31
ENDBRANCH   1  30
TORSDOF 14
ENDMDL
MODEL 3
REMARK VINA RESULT:      -7.2     12.053     15.897
REMARK  14 active torsions:
REMARK  status: ('A' for Active; 'I' for Inactive)
REMARK    1  A    between atoms: N_1  and  C_2 
REMARK    2  A    between atoms: C_8  and  C_9 
REMARK    3  A    between atoms: N_15  and  C_16 
REMARK    4  A    between atoms: C_16  and  C_17 
REMARK    5  A    between atoms: C_17  and  C_18 
REMARK    6  A    between atoms: C_18  and  C_19 
REMARK    7  A    between atoms: C_19  and  C_20 
REMARK    8  A    between atoms: C_20  and  C_21 
REMARK    9  A    between atoms: C_21  and  C_22 
REMARK   10  A    between atoms: N_27  and  C_28 
REMARK   11  A    between atoms: C_28  and  C_29 
REMARK   12  A    between atoms: C_29  and  N_30 
REMARK   13  A    between atoms: N_30  and  C_31 
REMARK   14  A    between atoms: C_50  and  N_51 
ROOT
HETATM    1  C   UNK N   1      26.383  14.706   4.783  0.00  0.00     0.002 C 
ENDROOT
BRANCH   1   2
HETATM    2  C   UNK N   1      24.960  15.200   4.558  0.00  0.00     0.020 C 
BRANCH   2   3
HETATM    3  C   UNK N   1      24.692  16.390   5.430  0.00  0.00     0.129 C 
BRANCH   3   4
HETATM    4  N   UNK N   1      23.938  17.518   4.838  0.00  0.00    -0.345 N 
HETATM    5  C   UNK N   1      22.558  17.464   4.705  0.00  0.00     0.056 C 
HETATM    6  C   UNK N   1      21.908  18.372   3.828  0.00  0.00     0.005 A 
HETATM    7  C   UNK N   1      22.651  19.386   3.189  0.00  0.00    -0.011 A 
HETATM    8  C   UNK N   1      20.525  18.292   3.587  0.00  0.00     0.043 A 
HETATM    9  C   UNK N   1      21.999  20.281   2.319  0.00  0.00     0.015 A 
HETATM   10  C   UNK N   1      24.021  19.501   3.443  0.00  0.00     0.002 A 
HETATM   11  C   UNK N   1      20.631  20.160   2.068  0.00  0.00     0.030 A 
HETATM   12  C   UNK N   1      19.895  19.164   2.703  0.00  0.00     0.026 A 
HETATM   13  C   UNK N   1      24.661  18.538   4.258  0.00  0.00     0.048 A 
HETATM   14  C   UNK N   1      24.773  20.545   2.874  0.00  0.00     0.017 A 
HETATM   15  C   UNK N   1      26.051  18.651   4.473  0.00  0.00     0.059 A 
HETATM   16  C   UNK N   1      26.778  19.709   3.922  0.00  0.00     0.027 A 
HETATM   17  C   UNK N   1      26.138  20.656   3.124  0.00  0.00     0.030 A 
BRANCH   5  18
HETATM   18  C   UNK N   1      21.722  16.530   5.532  0.00  0.00    -0.008 A 
HETATM   19  C   UNK N   1      21.438  15.262   5.001  0.00  0.00     0.014 A 
HETATM   20  C   UNK N   1      20.842  14.267   5.775  0.00  0.00     0.001 A 
HETATM   21  C   UNK N   1      20.533  14.519   7.108  0.00  0.00     0.000 A 
HETATM   22  C   UNK N   1      20.839  15.763   7.667  0.00  0.00     0.001 A 
HETATM   23  C   UNK N   1      21.452  16.755   6.892  0.00  0.00     0.014 A 
ENDBRANCH   5  18
BRANCH  12  24
HETATM   24  N   UNK N   1      18.518  19.025   2.441  0.00  0.00    -0.399 N 
HETATM   25  H   UNK N   1      18.128  18.155   2.198  0.00  0.00     0.156 HD
HETATM   26  H   UNK N   1      17.934  19.815   2.503  0.00  0.00     0.156 HD
ENDBRANCH  12  24
BRANCH  16  27
HETATM   27  N   UNK N   1      28.156  19.833   4.185  0.00  0.00    -0.399 N 
HETATM   28  H   UNK N   1      28.772  19.073   4.066  0.00  0.00     0.156 HD
HETATM   29  H   UNK N   1      28.512  20.696   4.496  0.00  0.00     0.156 HD
ENDBRANCH  16  27
ENDBRANCH   3   4
ENDBRANCH   2   3
ENDBRANCH   1   2
BRANCH   1  30
HETATM   30  C   UNK N   1      26.656  13.392   4.055  0.00  0.00     0.000 C 
BRANCH  30  31
HETATM   31  C   UNK N   1      26.575  13.548   2.539  0.00  0.00     0.006 C 
BRANCH  31  32
HETATM   32  C   UNK N   1      27.513  14.625   1.988  0.00  0.00     0.060 C 
BRANCH  32  33
HETATM   33  C   UNK N   1      28.950  14.283   2.218  0.00  0.00     0.043 A 
HETATM   34  C   UNK N   1      29.593  13.102   1.910  0.00  0.00     0.131 A 
HETATM   35  N   UNK N   1      30.868  13.232   2.345  0.00  0.00    -0.293 N 
HETATM   36  N   UNK N   1      30.991  14.437   2.888  0.00  0.00    -0.020 NA
ATOM     37  HN  UNK N   1      31.604  12.531   2.268  1.00  0.00     0.183 HD
HETATM   38  N   UNK N   1      29.842  15.082   2.816  0.00  0.00    -0.277 N 
BRANCH  38  39
HETATM   39  C   UNK N   1      29.612  16.434   3.314  0.00  0.00     0.166 C 
BRANCH  39  40
HETATM   40  C   UNK N   1      30.790  16.865   4.161  0.00  0.00     0.141 C 
BRANCH  40  41
HETATM   41  N   UNK N   1      30.805  16.035   5.331  0.00  0.00    -0.387 N 
HETATM   42  H   UNK N   1      30.568  15.083   5.240  0.00  0.00     0.159 HD
BRANCH  41  43
HETATM   43  C   UNK N   1      31.146  16.530   6.609  0.00  0.00     0.049 A 
HETATM   44  C   UNK N   1      30.226  17.249   7.398  0.00  0.00    -0.008 A 
HETATM   45  C   UNK N   1      28.840  17.547   6.874  0.00  0.00     0.043 C 
HETATM   46  C   UNK N   1      30.632  17.707   8.673  0.00  0.00     0.018 A 
HETATM   47  C   UNK N   1      28.142  18.672   7.626  0.00  0.00     0.005 C 
HETATM   48  C   UNK N   1      28.242  18.425   9.118  0.00  0.00     0.006 C 
HETATM   49  C   UNK N   1      29.700  18.480   9.567  0.00  0.00     0.057 C 
HETATM   50  N   UNK N   1      31.895  17.454   9.116  0.00  0.00    -0.358 N 
HETATM   51  C   UNK N   1      32.794  16.761   8.371  0.00  0.00     0.044 A 
ATOM     52  HN  UNK N   1      32.172  17.795  10.036  1.00  0.00     0.166 HD
HETATM   53  C   UNK N   1      32.437  16.289   7.096  0.00  0.00     0.018 A 
HETATM   54  C   UNK N   1      34.073  16.507   8.875  0.00  0.00     0.030 A 
HETATM   55  C   UNK N   1      33.370  15.561   6.339  0.00  0.00     0.016 A 
HETATM   56  C   UNK N   1      34.645  15.307   6.847  0.00  0.00     0.001 A 
HETATM   57  C   UNK N   1      34.997  15.780   8.115  0.00  0.00     0.002 A 
ENDBRANCH  41  43
ENDBRANCH  40  41
ENDBRANCH  39  40
ENDBRANCH  38  39
ENDBRANCH  32  33
ENDBRANCH  31  32
ENDBRANCH  30  31
ENDBRANCH   1  30
TORSDOF 14
ENDMDL
MODEL 4
REMARK VINA RESULT:      -7.1     12.706     16.656
REMARK  14 active torsions:
REMARK  status: ('A' for Active; 'I' for Inactive)
REMARK    1  A    between atoms: N_1  and  C_2 
REMARK    2  A    between atoms: C_8  and  C_9 
REMARK    3  A    between atoms: N_15  and  C_16 
REMARK    4  A    between atoms: C_16  and  C_17 
REMARK    5  A    between atoms: C_17  and  C_18 
REMARK    6  A    between atoms: C_18  and  C_19 
REMARK    7  A    between atoms: C_19  and  C_20 
REMARK    8  A    between atoms: C_20  and  C_21 
REMARK    9  A    between atoms: C_21  and  C_22 
REMARK   10  A    between atoms: N_27  and  C_28 
REMARK   11  A    between atoms: C_28  and  C_29 
REMARK   12  A    between atoms: C_29  and  N_30 
REMARK   13  A    between atoms: N_30  and  C_31 
REMARK   14  A    between atoms: C_50  and  N_51 
ROOT
HETATM    1  C   UNK N   1      27.561  13.988   5.107  0.00  0.00     0.002 C 
ENDROOT
BRANCH   1   2
HETATM    2  C   UNK N   1      26.278  13.438   5.719  0.00  0.00     0.020 C 
BRANCH   2   3
HETATM    3  C   UNK N   1      25.563  14.527   6.461  0.00  0.00     0.129 C 
BRANCH   3   4
HETATM    4  N   UNK N   1      24.084  14.524   6.426  0.00  0.00    -0.345 N 
HETATM    5  C   UNK N   1      23.392  15.035   5.337  0.00  0.00     0.056 C 
HETATM    6  C   UNK N   1      22.015  15.350   5.472  0.00  0.00     0.005 A 
HETATM    7  C   UNK N   1      21.337  15.039   6.670  0.00  0.00    -0.011 A 
HETATM    8  C   UNK N   1      21.297  15.960   4.428  0.00  0.00     0.043 A 
HETATM    9  C   UNK N   1      19.971  15.356   6.797  0.00  0.00     0.015 A 
HETATM   10  C   UNK N   1      22.027  14.402   7.707  0.00  0.00     0.002 A 
HETATM   11  C   UNK N   1      19.289  15.993   5.760  0.00  0.00     0.030 A 
HETATM   12  C   UNK N   1      19.954  16.295   4.574  0.00  0.00     0.026 A 
HETATM   13  C   UNK N   1      23.416  14.170   7.578  0.00  0.00     0.048 A 
HETATM   14  C   UNK N   1      21.360  14.018   8.884  0.00  0.00     0.017 A 
HETATM   15  C   UNK N   1      24.101  13.559   8.651  0.00  0.00     0.059 A 
HETATM   16  C   UNK N   1      23.418  13.159   9.803  0.00  0.00     0.027 A 
HETATM   17  C   UNK N   1      22.048  13.388   9.918  0.00  0.00     0.030 A 
BRANCH   5  18
HETATM   18  C   UNK N   1      24.040  15.181   3.990  0.00  0.00    -0.008 A 
HETATM   19  C   UNK N   1      24.889  16.281   3.787  0.00  0.00     0.014 A 
HETATM   20  C   UNK N   1      25.680  16.388   2.645  0.00  0.00     0.001 A 
HETATM   21  C   UNK N   1      25.651  15.380   1.686  0.00  0.00     0.000 A 
HETATM   22  C   UNK N   1      24.840  14.259   1.883  0.00  0.00     0.001 A 
HETATM   23  C   UNK N   1      24.058  14.148   3.040  0.00  0.00     0.014 A 
ENDBRANCH   5  18
BRANCH  12  24
HETATM   24  N   UNK N   1      19.277  16.953   3.530  0.00  0.00    -0.399 N 
HETATM   25  H   UNK N   1      19.722  17.149   2.674  0.00  0.00     0.156 HD
HETATM   26  H   UNK N   1      18.339  17.222   3.658  0.00  0.00     0.156 HD
ENDBRANCH  12  24
BRANCH  16  27
HETATM   27  N   UNK N   1      24.109  12.509  10.843  0.00  0.00    -0.399 N 
HETATM   28  H   UNK N   1      24.911  11.965  10.667  0.00  0.00     0.156 HD
HETATM   29  H   UNK N   1      23.782  12.598  11.768  0.00  0.00     0.156 HD
ENDBRANCH  16  27
ENDBRANCH   3   4
ENDBRANCH   2   3
ENDBRANCH   1   2
BRANCH   1  30
HETATM   30  C   UNK N   1      27.918  13.288   3.798  0.00  0.00     0.000 C 
BRANCH  30  31
HETATM   31  C   UNK N   1      28.771  14.169   2.890  0.00  0.00     0.006 C 
BRANCH  31  32
HETATM   32  C   UNK N   1      30.214  13.677   2.746  0.00  0.00     0.060 C 
BRANCH  32  33
HETATM   33  C   UNK N   1      31.014  13.927   3.985  0.00  0.00     0.043 A 
HETATM   34  C   UNK N   1      31.280  13.039   5.006  0.00  0.00     0.131 A 
HETATM   35  N   UNK N   1      31.994  13.721   5.933  0.00  0.00    -0.293 N 
HETATM   36  N   UNK N   1      32.153  14.962   5.491  0.00  0.00    -0.020 NA
ATOM     37  HN  UNK N   1      32.347  13.348   6.813  1.00  0.00     0.183 HD
HETATM   38  N   UNK N   1      31.569  15.099   4.315  0.00  0.00    -0.277 N 
BRANCH  38  39
HETATM   39  C   UNK N   1      31.544  16.331   3.535  0.00  0.00     0.166 C 
BRANCH  39  40
HETATM   40  C   UNK N   1      31.036  17.465   4.399  0.00  0.00     0.141 C 
BRANCH  40  41
HETATM   41  N   UNK N   1      29.747  17.079   4.899  0.00  0.00    -0.387 N 
HETATM   42  H   UNK N   1      29.367  16.217   4.613  0.00  0.00     0.159 HD
BRANCH  41  43
HETATM   43  C   UNK N   1      29.004  17.887   5.787  0.00  0.00     0.049 A 
HETATM   44  C   UNK N   1      28.003  18.768   5.328  0.00  0.00    -0.008 A 
HETATM   45  C   UNK N   1      27.720  18.900   3.850  0.00  0.00     0.043 C 
HETATM   46  C   UNK N   1      27.290  19.541   6.275  0.00  0.00     0.018 A 
HETATM   47  C   UNK N   1      26.954  20.167   3.495  0.00  0.00     0.005 C 
HETATM   48  C   UNK N   1      25.754  20.308   4.410  0.00  0.00     0.006 C 
HETATM   49  C   UNK N   1      26.208  20.499   5.854  0.00  0.00     0.057 C 
HETATM   50  N   UNK N   1      27.579  19.429   7.601  0.00  0.00    -0.358 N 
HETATM   51  C   UNK N   1      28.538  18.585   8.060  0.00  0.00     0.044 A 
ATOM     52  HN  UNK N   1      27.058  19.997   8.268  1.00  0.00     0.166 HD
HETATM   53  C   UNK N   1      29.276  17.799   7.158  0.00  0.00     0.018 A 
HETATM   54  C   UNK N   1      28.787  18.488   9.433  0.00  0.00     0.030 A 
HETATM   55  C   UNK N   1      30.256  16.919   7.644  0.00  0.00     0.016 A 
HETATM   56  C   UNK N   1      30.499  16.824   9.015  0.00  0.00     0.001 A 
HETATM   57  C   UNK N   1      29.765  17.608   9.910  0.00  0.00     0.002 A 
ENDBRANCH  41  43
ENDBRANCH  40  41
ENDBRANCH  39  40
ENDBRANCH  38  39
ENDBRANCH  32  33
ENDBRANCH  31  32
ENDBRANCH  30  31
ENDBRANCH   1  30
TORSDOF 14
ENDMDL
MODEL 5
REMARK VINA RESULT:      -6.9      1.766      6.810
REMARK  14 active torsions:
REMARK  status: ('A' for Active; 'I' for Inactive)
REMARK    1  A    between atoms: N_1  and  C_2 
REMARK    2  A    between atoms: C_8  and  C_9 
REMARK    3  A    between atoms: N_15  and  C_16 
REMARK    4  A    between atoms: C_16  and  C_17 
REMARK    5  A    between atoms: C_17  and  C_18 
REMARK    6  A    between atoms: C_18  and  C_19 
REMARK    7  A    between atoms: C_19  and  C_20 
REMARK    8  A    between atoms: C_20  and  C_21 
REMARK    9  A    between atoms: C_21  and  C_22 
REMARK   10  A    between atoms: N_27  and  C_28 
REMARK   11  A    between atoms: C_28  and  C_29 
REMARK   12  A    between atoms: C_29  and  N_30 
REMARK   13  A    between atoms: N_30  and  C_31 
REMARK   14  A    between atoms: C_50  and  N_51 
ROOT
HETATM    1  C   UNK N   1      28.616  30.353  -5.722  0.00  0.00     0.002 C 
ENDROOT
BRANCH   1   2
HETATM    2  C   UNK N   1      28.113  29.238  -6.629  0.00  0.00     0.020 C 
BRANCH   2   3
HETATM    3  C   UNK N   1      29.199  28.829  -7.579  0.00  0.00     0.129 C 
BRANCH   3   4
HETATM    4  N   UNK N   1      29.607  27.406  -7.583  0.00  0.00    -0.345 N 
HETATM    5  C   UNK N   1      30.551  26.930  -6.684  0.00  0.00     0.056 C 
HETATM    6  C   UNK N   1      31.182  25.683  -6.933  0.00  0.00     0.005 A 
HETATM    7  C   UNK N   1      30.768  24.891  -8.024  0.00  0.00    -0.011 A 
HETATM    8  C   UNK N   1      32.213  25.207  -6.104  0.00  0.00     0.043 A 
HETATM    9  C   UNK N   1      31.399  23.656  -8.265  0.00  0.00     0.015 A 
HETATM   10  C   UNK N   1      29.721  25.333  -8.839  0.00  0.00     0.002 A 
HETATM   11  C   UNK N   1      32.445  23.220  -7.450  0.00  0.00     0.030 A 
HETATM   12  C   UNK N   1      32.852  23.998  -6.368  0.00  0.00     0.026 A 
HETATM   13  C   UNK N   1      29.162  26.614  -8.619  0.00  0.00     0.048 A 
HETATM   14  C   UNK N   1      29.241  24.533  -9.891  0.00  0.00     0.017 A 
HETATM   15  C   UNK N   1      28.131  27.057  -9.475  0.00  0.00     0.059 A 
HETATM   16  C   UNK N   1      27.647  26.238 -10.499  0.00  0.00     0.027 A 
HETATM   17  C   UNK N   1      28.202  24.976 -10.705  0.00  0.00     0.030 A 
BRANCH   5  18
HETATM   18  C   UNK N   1      30.860  27.657  -5.407  0.00  0.00    -0.008 A 
HETATM   19  C   UNK N   1      30.164  27.273  -4.250  0.00  0.00     0.014 A 
HETATM   20  C   UNK N   1      30.524  27.753  -2.992  0.00  0.00     0.001 A 
HETATM   21  C   UNK N   1      31.607  28.617  -2.865  0.00  0.00     0.000 A 
HETATM   22  C   UNK N   1      32.336  28.986  -3.999  0.00  0.00     0.001 A 
HETATM   23  C   UNK N   1      31.981  28.489  -5.259  0.00  0.00     0.014 A 
ENDBRANCH   5  18
BRANCH  12  24
HETATM   24  N   UNK N   1      33.916  23.573  -5.551  0.00  0.00    -0.399 N 
HETATM   25  H   UNK N   1      33.756  23.192  -4.658  0.00  0.00     0.156 HD
HETATM   26  H   UNK N   1      34.840  23.657  -5.881  0.00  0.00     0.156 HD
ENDBRANCH  12  24
BRANCH  16  27
HETATM   27  N   UNK N   1      26.586  26.678 -11.314  0.00  0.00    -0.399 N 
HETATM   28  H   UNK N   1      26.553  27.599 -11.663  0.00  0.00     0.156 HD
HETATM   29  H   UNK N   1      25.861  26.052 -11.540  0.00  0.00     0.156 HD
ENDBRANCH  16  27
ENDBRANCH   3   4
ENDBRANCH   2   3
ENDBRANCH   1   2
BRANCH   1  30
HETATM   30  C   UNK N   1      27.971  30.302  -4.338  0.00  0.00     0.000 C 
BRANCH  30  31
HETATM   31  C   UNK N   1      26.573  29.693  -4.379  0.00  0.00     0.006 C 
BRANCH  31  32
HETATM   32  C   UNK N   1      26.449  28.400  -3.569  0.00  0.00     0.060 C 
BRANCH  32  33
HETATM   33  C   UNK N   1      25.905  27.276  -4.393  0.00  0.00     0.043 A 
HETATM   34  C   UNK N   1      24.977  27.353  -5.411  0.00  0.00     0.131 A 
HETATM   35  N   UNK N   1      24.756  26.084  -5.826  0.00  0.00    -0.293 N 
HETATM   36  N   UNK N   1      25.515  25.279  -5.095  0.00  0.00    -0.020 NA
ATOM     37  HN  UNK N   1      24.119  25.798  -6.569  1.00  0.00     0.183 HD
HETATM   38  N   UNK N   1      26.216  25.985  -4.228  0.00  0.00    -0.277 N 
BRANCH  38  39
HETATM   39  C   UNK N   1      27.157  25.426  -3.264  0.00  0.00     0.166 C 
BRANCH  39  40
HETATM   40  C   UNK N   1      27.486  24.000  -3.650  0.00  0.00     0.141 C 
BRANCH  40  41
HETATM   41  N   UNK N   1      28.492  24.054  -4.672  0.00  0.00    -0.387 N 
HETATM   42  H   UNK N   1      28.824  24.933  -4.964  0.00  0.00     0.159 HD
BRANCH  41  43
HETATM   43  C   UNK N   1      29.024  22.892  -5.274  0.00  0.00     0.049 A 
HETATM   44  C   UNK N   1      28.487  22.359  -6.464  0.00  0.00    -0.008 A 
HETATM   45  C   UNK N   1      27.285  23.004  -7.115  0.00  0.00     0.043 C 
HETATM   46  C   UNK N   1      29.077  21.199  -7.018  0.00  0.00     0.018 A 
HETATM   47  C   UNK N   1      26.575  22.089  -8.104  0.00  0.00     0.005 C 
HETATM   48  C   UNK N   1      27.589  21.480  -9.051  0.00  0.00     0.006 C 
HETATM   49  C   UNK N   1      28.554  20.578  -8.285  0.00  0.00     0.057 C 
HETATM   50  N   UNK N   1      30.141  20.616  -6.401  0.00  0.00    -0.358 N 
HETATM   51  C   UNK N   1      30.673  21.116  -5.256  0.00  0.00     0.044 A 
ATOM     52  HN  UNK N   1      30.551  19.777  -6.811  1.00  0.00     0.166 HD
HETATM   53  C   UNK N   1      30.119  22.266  -4.666  0.00  0.00     0.018 A 
HETATM   54  C   UNK N   1      31.779  20.496  -4.668  0.00  0.00     0.030 A 
HETATM   55  C   UNK N   1      30.685  22.784  -3.490  0.00  0.00     0.016 A 
HETATM   56  C   UNK N   1      31.791  22.162  -2.907  0.00  0.00     0.001 A 
HETATM   57  C   UNK N   1      32.338  21.019  -3.496  0.00  0.00     0.002 A 
ENDBRANCH  41  43
ENDBRANCH  40  41
ENDBRANCH  39  40
ENDBRANCH  38  39
ENDBRANCH  32  33
ENDBRANCH  31  32
ENDBRANCH  30  31
ENDBRANCH   1  30
TORSDOF 14
ENDMDL
MODEL 6
REMARK VINA RESULT:      -6.9     14.211     19.767
REMARK  14 active torsions:
REMARK  status: ('A' for Active; 'I' for Inactive)
REMARK    1  A    between atoms: N_1  and  C_2 
REMARK    2  A    between atoms: C_8  and  C_9 
REMARK    3  A    between atoms: N_15  and  C_16 
REMARK    4  A    between atoms: C_16  and  C_17 
REMARK    5  A    between atoms: C_17  and  C_18 
REMARK    6  A    between atoms: C_18  and  C_19 
REMARK    7  A    between atoms: C_19  and  C_20 
REMARK    8  A    between atoms: C_20  and  C_21 
REMARK    9  A    between atoms: C_21  and  C_22 
REMARK   10  A    between atoms: N_27  and  C_28 
REMARK   11  A    between atoms: C_28  and  C_29 
REMARK   12  A    between atoms: C_29  and  N_30 
REMARK   13  A    between atoms: N_30  and  C_31 
REMARK   14  A    between atoms: C_50  and  N_51 
ROOT
HETATM    1  C   UNK N   1      32.603  13.703   4.403  0.00  0.00     0.002 C 
ENDROOT
BRANCH   1   2
HETATM    2  C   UNK N   1      31.348  13.892   3.561  0.00  0.00     0.020 C 
BRANCH   2   3
HETATM    3  C   UNK N   1      30.181  14.195   4.452  0.00  0.00     0.129 C 
BRANCH   3   4
HETATM    4  N   UNK N   1      29.241  15.252   4.015  0.00  0.00    -0.345 N 
HETATM    5  C   UNK N   1      29.402  16.568   4.429  0.00  0.00     0.056 C 
HETATM    6  C   UNK N   1      28.317  17.474   4.304  0.00  0.00     0.005 A 
HETATM    7  C   UNK N   1      27.129  17.065   3.662  0.00  0.00    -0.011 A 
HETATM    8  C   UNK N   1      28.401  18.788   4.797  0.00  0.00     0.043 A 
HETATM    9  C   UNK N   1      26.057  17.970   3.543  0.00  0.00     0.015 A 
HETATM   10  C   UNK N   1      27.041  15.772   3.135  0.00  0.00     0.002 A 
HETATM   11  C   UNK N   1      26.151  19.257   4.072  0.00  0.00     0.030 A 
HETATM   12  C   UNK N   1      27.325  19.666   4.700  0.00  0.00     0.026 A 
HETATM   13  C   UNK N   1      28.104  14.863   3.342  0.00  0.00     0.048 A 
HETATM   14  C   UNK N   1      25.895  15.360   2.431  0.00  0.00     0.017 A 
HETATM   15  C   UNK N   1      27.980  13.551   2.834  0.00  0.00     0.059 A 
HETATM   16  C   UNK N   1      26.847  13.166   2.112  0.00  0.00     0.027 A 
HETATM   17  C   UNK N   1      25.806  14.071   1.910  0.00  0.00     0.030 A 
BRANCH   5  18
HETATM   18  C   UNK N   1      30.724  17.082   4.924  0.00  0.00    -0.008 A 
HETATM   19  C   UNK N   1      30.962  17.051   6.307  0.00  0.00     0.014 A 
HETATM   20  C   UNK N   1      32.224  17.321   6.833  0.00  0.00     0.001 A 
HETATM   21  C   UNK N   1      33.283  17.612   5.978  0.00  0.00     0.000 A 
HETATM   22  C   UNK N   1      33.077  17.615   4.596  0.00  0.00     0.001 A 
HETATM   23  C   UNK N   1      31.811  17.327   4.070  0.00  0.00     0.014 A 
ENDBRANCH   5  18
BRANCH  12  24
HETATM   24  N   UNK N   1      27.420  20.958   5.251  0.00  0.00    -0.399 N 
HETATM   25  H   UNK N   1      28.290  21.404   5.362  0.00  0.00     0.156 HD
HETATM   26  H   UNK N   1      26.600  21.425   5.530  0.00  0.00     0.156 HD
ENDBRANCH  12  24
BRANCH  16  27
HETATM   27  N   UNK N   1      26.760  11.869   1.573  0.00  0.00    -0.399 N 
HETATM   28  H   UNK N   1      26.210  11.678   0.778  0.00  0.00     0.156 HD
HETATM   29  H   UNK N   1      27.260  11.135   1.999  0.00  0.00     0.156 HD
ENDBRANCH  16  27
ENDBRANCH   3   4
ENDBRANCH   2   3
ENDBRANCH   1   2
BRANCH   1  30
HETATM   30  C   UNK N   1      32.297  13.715   5.900  0.00  0.00     0.000 C 
BRANCH  30  31
HETATM   31  C   UNK N   1      33.469  13.201   6.730  0.00  0.00     0.006 C 
BRANCH  31  32
HETATM   32  C   UNK N   1      34.263  14.315   7.417  0.00  0.00     0.060 C 
BRANCH  32  33
HETATM   33  C   UNK N   1      33.735  14.612   8.785  0.00  0.00     0.043 A 
HETATM   34  C   UNK N   1      32.417  14.635   9.190  0.00  0.00     0.131 A 
HETATM   35  N   UNK N   1      32.422  14.999  10.494  0.00  0.00    -0.293 N 
HETATM   36  N   UNK N   1      33.683  15.185  10.860  0.00  0.00    -0.020 NA
ATOM     37  HN  UNK N   1      31.602  15.110  11.090  1.00  0.00     0.183 HD
HETATM   38  N   UNK N   1      34.487  14.952   9.839  0.00  0.00    -0.277 N 
BRANCH  38  39
HETATM   39  C   UNK N   1      35.941  15.060   9.880  0.00  0.00     0.166 C 
BRANCH  39  40
HETATM   40  C   UNK N   1      36.393  15.229  11.315  0.00  0.00     0.141 C 
BRANCH  40  41
HETATM   41  N   UNK N   1      36.824  13.943  11.783  0.00  0.00    -0.387 N 
HETATM   42  H   UNK N   1      37.703  13.605  11.495  0.00  0.00     0.159 HD
BRANCH  41  43
HETATM   43  C   UNK N   1      36.038  13.144  12.642  0.00  0.00     0.049 A 
HETATM   44  C   UNK N   1      35.270  12.065  12.158  0.00  0.00    -0.008 A 
HETATM   45  C   UNK N   1      35.239  11.753  10.680  0.00  0.00     0.043 C 
HETATM   46  C   UNK N   1      34.514  11.301  13.077  0.00  0.00     0.018 A 
HETATM   47  C   UNK N   1      34.062  10.876  10.276  0.00  0.00     0.005 C 
HETATM   48  C   UNK N   1      33.977   9.680  11.203  0.00  0.00     0.006 C 
HETATM   49  C   UNK N   1      33.674  10.135  12.628  0.00  0.00     0.057 C 
HETATM   50  N   UNK N   1      34.532  11.616  14.402  0.00  0.00    -0.358 N 
HETATM   51  C   UNK N   1      35.266  12.650  14.886  0.00  0.00     0.044 A 
ATOM     52  HN  UNK N   1      33.977  11.057  15.049  1.00  0.00     0.166 HD
HETATM   53  C   UNK N   1      36.032  13.441  14.011  0.00  0.00     0.018 A 
HETATM   54  C   UNK N   1      35.271  12.925  16.257  0.00  0.00     0.030 A 
HETATM   55  C   UNK N   1      36.799  14.499  14.523  0.00  0.00     0.016 A 
HETATM   56  C   UNK N   1      36.803  14.768  15.893  0.00  0.00     0.001 A 
HETATM   57  C   UNK N   1      36.039  13.981  16.760  0.00  0.00     0.002 A 
ENDBRANCH  41  43
ENDBRANCH  40  41
ENDBRANCH  39  40
ENDBRANCH  38  39
ENDBRANCH  32  33
ENDBRANCH  31  32
ENDBRANCH  30  31
ENDBRANCH   1  30
TORSDOF 14
ENDMDL
MODEL 7
REMARK VINA RESULT:      -6.9     13.685     17.205
REMARK  14 active torsions:
REMARK  status: ('A' for Active; 'I' for Inactive)
REMARK    1  A    between atoms: N_1  and  C_2 
REMARK    2  A    between atoms: C_8  and  C_9 
REMARK    3  A    between atoms: N_15  and  C_16 
REMARK    4  A    between atoms: C_16  and  C_17 
REMARK    5  A    between atoms: C_17  and  C_18 
REMARK    6  A    between atoms: C_18  and  C_19 
REMARK    7  A    between atoms: C_19  and  C_20 
REMARK    8  A    between atoms: C_20  and  C_21 
REMARK    9  A    between atoms: C_21  and  C_22 
REMARK   10  A    between atoms: N_27  and  C_28 
REMARK   11  A    between atoms: C_28  and  C_29 
REMARK   12  A    between atoms: C_29  and  N_30 
REMARK   13  A    between atoms: N_30  and  C_31 
REMARK   14  A    between atoms: C_50  and  N_51 
ROOT
HETATM    1  C   UNK N   1      27.202  16.824   6.217  0.00  0.00     0.002 C 
ENDROOT
BRANCH   1   2
HETATM    2  C   UNK N   1      27.019  15.346   6.538  0.00  0.00     0.020 C 
BRANCH   2   3
HETATM    3  C   UNK N   1      25.557  15.019   6.601  0.00  0.00     0.129 C 
BRANCH   3   4
HETATM    4  N   UNK N   1      25.149  13.637   6.262  0.00  0.00    -0.345 N 
HETATM    5  C   UNK N   1      25.087  13.212   4.942  0.00  0.00     0.056 C 
HETATM    6  C   UNK N   1      24.364  12.034   4.624  0.00  0.00     0.005 A 
HETATM    7  C   UNK N   1      23.811  11.247   5.656  0.00  0.00    -0.011 A 
HETATM    8  C   UNK N   1      24.192  11.618   3.291  0.00  0.00     0.043 A 
HETATM    9  C   UNK N   1      23.094  10.080   5.332  0.00  0.00     0.015 A 
HETATM   10  C   UNK N   1      24.001  11.627   6.989  0.00  0.00     0.002 A 
HETATM   11  C   UNK N   1      22.906   9.707   4.000  0.00  0.00     0.030 A 
HETATM   12  C   UNK N   1      23.456  10.478   2.979  0.00  0.00     0.026 A 
HETATM   13  C   UNK N   1      24.657  12.847   7.277  0.00  0.00     0.048 A 
HETATM   14  C   UNK N   1      23.520  10.826   8.040  0.00  0.00     0.017 A 
HETATM   15  C   UNK N   1      24.806  13.230   8.628  0.00  0.00     0.059 A 
HETATM   16  C   UNK N   1      24.347  12.409   9.661  0.00  0.00     0.027 A 
HETATM   17  C   UNK N   1      23.706  11.207   9.366  0.00  0.00     0.030 A 
BRANCH   5  18
HETATM   18  C   UNK N   1      25.841  13.918   3.851  0.00  0.00    -0.008 A 
HETATM   19  C   UNK N   1      27.161  13.512   3.599  0.00  0.00     0.014 A 
HETATM   20  C   UNK N   1      27.863  13.971   2.486  0.00  0.00     0.001 A 
HETATM   21  C   UNK N   1      27.245  14.836   1.587  0.00  0.00     0.000 A 
HETATM   22  C   UNK N   1      25.920  15.226   1.799  0.00  0.00     0.001 A 
HETATM   23  C   UNK N   1      25.213  14.750   2.910  0.00  0.00     0.014 A 
ENDBRANCH   5  18
BRANCH  12  24
HETATM   24  N   UNK N   1      23.257  10.117   1.633  0.00  0.00    -0.399 N 
HETATM   25  H   UNK N   1      22.747   9.311   1.390  0.00  0.00     0.156 HD
HETATM   26  H   UNK N   1      23.633  10.683   0.921  0.00  0.00     0.156 HD
ENDBRANCH  12  24
BRANCH  16  27
HETATM   27  N   UNK N   1      24.546  12.785  11.004  0.00  0.00    -0.399 N 
HETATM   28  H   UNK N   1      25.281  12.407  11.540  0.00  0.00     0.156 HD
HETATM   29  H   UNK N   1      23.937  13.439  11.416  0.00  0.00     0.156 HD
ENDBRANCH  16  27
ENDBRANCH   3   4
ENDBRANCH   2   3
ENDBRANCH   1   2
BRANCH   1  30
HETATM   30  C   UNK N   1      27.591  17.050   4.757  0.00  0.00     0.000 C 
BRANCH  30  31
HETATM   31  C   UNK N   1      27.880  18.519   4.461  0.00  0.00     0.006 C 
BRANCH  31  32
HETATM   32  C   UNK N   1      26.841  19.474   5.055  0.00  0.00     0.060 C 
BRANCH  32  33
HETATM   33  C   UNK N   1      25.767  19.811   4.070  0.00  0.00     0.043 A 
HETATM   34  C   UNK N   1      25.871  20.617   2.956  0.00  0.00     0.131 A 
HETATM   35  N   UNK N   1      24.638  20.669   2.402  0.00  0.00    -0.293 N 
HETATM   36  N   UNK N   1      23.826  19.928   3.145  0.00  0.00    -0.020 NA
ATOM     37  HN  UNK N   1      24.378  21.186   1.562  1.00  0.00     0.183 HD
HETATM   38  N   UNK N   1      24.495  19.401   4.153  0.00  0.00    -0.277 N 
BRANCH  38  39
HETATM   39  C   UNK N   1      23.920  18.530   5.172  0.00  0.00     0.166 C 
BRANCH  39  40
HETATM   40  C   UNK N   1      23.730  17.142   4.598  0.00  0.00     0.141 C 
BRANCH  40  41
HETATM   41  N   UNK N   1      22.322  16.870   4.591  0.00  0.00    -0.387 N 
HETATM   42  H   UNK N   1      21.693  17.627   4.585  0.00  0.00     0.159 HD
BRANCH  41  43
HETATM   43  C   UNK N   1      21.803  15.556   4.591  0.00  0.00     0.049 A 
HETATM   44  C   UNK N   1      21.545  14.859   3.393  0.00  0.00    -0.008 A 
HETATM   45  C   UNK N   1      21.783  15.523   2.057  0.00  0.00     0.043 C 
HETATM   46  C   UNK N   1      21.035  13.542   3.468  0.00  0.00     0.018 A 
HETATM   47  C   UNK N   1      21.062  14.833   0.906  0.00  0.00     0.005 C 
HETATM   48  C   UNK N   1      21.332  13.343   0.958  0.00  0.00     0.006 C 
HETATM   49  C   UNK N   1      20.737  12.741   2.229  0.00  0.00     0.057 C 
HETATM   50  N   UNK N   1      20.799  12.971   4.681  0.00  0.00    -0.358 N 
HETATM   51  C   UNK N   1      21.044  13.626   5.845  0.00  0.00     0.044 A 
ATOM     52  HN  UNK N   1      20.428  12.022   4.716  1.00  0.00     0.166 HD
HETATM   53  C   UNK N   1      21.548  14.938   5.822  0.00  0.00     0.018 A 
HETATM   54  C   UNK N   1      20.807  12.993   7.069  0.00  0.00     0.030 A 
HETATM   55  C   UNK N   1      21.811  15.602   7.031  0.00  0.00     0.016 A 
HETATM   56  C   UNK N   1      21.575  14.965   8.250  0.00  0.00     0.001 A 
HETATM   57  C   UNK N   1      21.073  13.660   8.269  0.00  0.00     0.002 A 
ENDBRANCH  41  43
ENDBRANCH  40  41
ENDBRANCH  39  40
ENDBRANCH  38  39
ENDBRANCH  32  33
ENDBRANCH  31  32
ENDBRANCH  30  31
ENDBRANCH   1  30
TORSDOF 14
ENDMDL
MODEL 8
REMARK VINA RESULT:      -6.9     13.113     17.344
REMARK  14 active torsions:
REMARK  status: ('A' for Active; 'I' for Inactive)
REMARK    1  A    between atoms: N_1  and  C_2 
REMARK    2  A    between atoms: C_8  and  C_9 
REMARK    3  A    between atoms: N_15  and  C_16 
REMARK    4  A    between atoms: C_16  and  C_17 
REMARK    5  A    between atoms: C_17  and  C_18 
REMARK    6  A    between atoms: C_18  and  C_19 
REMARK    7  A    between atoms: C_19  and  C_20 
REMARK    8  A    between atoms: C_20  and  C_21 
REMARK    9  A    between atoms: C_21  and  C_22 
REMARK   10  A    between atoms: N_27  and  C_28 
REMARK   11  A    between atoms: C_28  and  C_29 
REMARK   12  A    between atoms: C_29  and  N_30 
REMARK   13  A    between atoms: N_30  and  C_31 
REMARK   14  A    between atoms: C_50  and  N_51 
ROOT
HETATM    1  C   UNK N   1      20.906  16.192   6.712  0.00  0.00     0.002 C 
ENDROOT
BRANCH   1   2
HETATM    2  C   UNK N   1      22.283  16.803   6.485  0.00  0.00     0.020 C 
BRANCH   2   3
HETATM    3  C   UNK N   1      22.321  17.484   5.150  0.00  0.00     0.129 C 
BRANCH   3   4
HETATM    4  N   UNK N   1      23.348  17.039   4.182  0.00  0.00    -0.345 N 
HETATM    5  C   UNK N   1      23.188  15.867   3.456  0.00  0.00     0.056 C 
HETATM    6  C   UNK N   1      24.314  15.282   2.821  0.00  0.00     0.005 A 
HETATM    7  C   UNK N   1      25.557  15.949   2.838  0.00  0.00    -0.011 A 
HETATM    8  C   UNK N   1      24.220  14.045   2.158  0.00  0.00     0.043 A 
HETATM    9  C   UNK N   1      26.670  15.362   2.208  0.00  0.00     0.015 A 
HETATM   10  C   UNK N   1      25.661  17.196   3.465  0.00  0.00     0.002 A 
HETATM   11  C   UNK N   1      26.561  14.117   1.586  0.00  0.00     0.030 A 
HETATM   12  C   UNK N   1      25.333  13.459   1.562  0.00  0.00     0.026 A 
HETATM   13  C   UNK N   1      24.546  17.721   4.158  0.00  0.00     0.048 A 
HETATM   14  C   UNK N   1      26.870  17.915   3.438  0.00  0.00     0.017 A 
HETATM   15  C   UNK N   1      24.682  18.964   4.814  0.00  0.00     0.059 A 
HETATM   16  C   UNK N   1      25.881  19.678   4.754  0.00  0.00     0.027 A 
HETATM   17  C   UNK N   1      26.973  19.154   4.065  0.00  0.00     0.030 A 
BRANCH   5  18
HETATM   18  C   UNK N   1      21.836  15.247   3.249  0.00  0.00    -0.008 A 
HETATM   19  C   UNK N   1      21.076  15.684   2.153  0.00  0.00     0.014 A 
HETATM   20  C   UNK N   1      19.905  15.031   1.773  0.00  0.00     0.001 A 
HETATM   21  C   UNK N   1      19.480  13.908   2.477  0.00  0.00     0.000 A 
HETATM   22  C   UNK N   1      20.239  13.434   3.550  0.00  0.00     0.001 A 
HETATM   23  C   UNK N   1      21.423  14.084   3.919  0.00  0.00     0.014 A 
ENDBRANCH   5  18
BRANCH  12  24
HETATM   24  N   UNK N   1      25.219  12.195   0.952  0.00  0.00    -0.399 N 
HETATM   25  H   UNK N   1      25.967  11.801   0.449  0.00  0.00     0.156 HD
HETATM   26  H   UNK N   1      24.375  11.696   1.030  0.00  0.00     0.156 HD
ENDBRANCH  12  24
BRANCH  16  27
HETATM   27  N   UNK N   1      25.985  20.937   5.376  0.00  0.00    -0.399 N 
HETATM   28  H   UNK N   1      25.348  21.222   6.072  0.00  0.00     0.156 HD
HETATM   29  H   UNK N   1      26.709  21.549   5.108  0.00  0.00     0.156 HD
ENDBRANCH  16  27
ENDBRANCH   3   4
ENDBRANCH   2   3
ENDBRANCH   1   2
BRANCH   1  30
HETATM   30  C   UNK N   1      20.313  16.602   8.059  0.00  0.00     0.000 C 
BRANCH  30  31
HETATM   31  C   UNK N   1      20.175  15.416   9.009  0.00  0.00     0.006 C 
BRANCH  31  32
HETATM   32  C   UNK N   1      20.690  14.101   8.419  0.00  0.00     0.060 C 
BRANCH  32  33
HETATM   33  C   UNK N   1      21.772  13.500   9.257  0.00  0.00     0.043 A 
HETATM   34  C   UNK N   1      21.680  13.063  10.563  0.00  0.00     0.131 A 
HETATM   35  N   UNK N   1      22.918  12.647  10.918  0.00  0.00    -0.293 N 
HETATM   36  N   UNK N   1      23.721  12.824   9.876  0.00  0.00    -0.020 NA
ATOM     37  HN  UNK N   1      23.186  12.266  11.824  1.00  0.00     0.183 HD
HETATM   38  N   UNK N   1      23.042  13.335   8.867  0.00  0.00    -0.277 N 
BRANCH  38  39
HETATM   39  C   UNK N   1      23.606  13.660   7.561  0.00  0.00     0.166 C 
BRANCH  39  40
HETATM   40  C   UNK N   1      25.033  14.134   7.734  0.00  0.00     0.141 C 
BRANCH  40  41
HETATM   41  N   UNK N   1      25.429  14.758   6.504  0.00  0.00    -0.387 N 
HETATM   42  H   UNK N   1      24.766  15.291   6.008  0.00  0.00     0.159 HD
BRANCH  41  43
HETATM   43  C   UNK N   1      26.734  14.638   5.978  0.00  0.00     0.049 A 
HETATM   44  C   UNK N   1      27.132  13.513   5.226  0.00  0.00    -0.008 A 
HETATM   45  C   UNK N   1      26.170  12.372   4.992  0.00  0.00     0.043 C 
HETATM   46  C   UNK N   1      28.453  13.464   4.721  0.00  0.00     0.018 A 
HETATM   47  C   UNK N   1      26.859  11.084   4.562  0.00  0.00     0.005 C 
HETATM   48  C   UNK N   1      27.822  11.376   3.429  0.00  0.00     0.006 C 
HETATM   49  C   UNK N   1      28.943  12.294   3.910  0.00  0.00     0.057 C 
HETATM   50  N   UNK N   1      29.314  14.489   4.967  0.00  0.00    -0.358 N 
HETATM   51  C   UNK N   1      28.948  15.581   5.687  0.00  0.00     0.044 A 
ATOM     52  HN  UNK N   1      30.263  14.435   4.599  1.00  0.00     0.166 HD
HETATM   53  C   UNK N   1      27.647  15.674   6.213  0.00  0.00     0.018 A 
HETATM   54  C   UNK N   1      29.860  16.619   5.898  0.00  0.00     0.030 A 
HETATM   55  C   UNK N   1      27.274  16.812   6.944  0.00  0.00     0.016 A 
HETATM   56  C   UNK N   1      28.187  17.848   7.150  0.00  0.00     0.001 A 
HETATM   57  C   UNK N   1      29.480  17.751   6.627  0.00  0.00     0.002 A 
ENDBRANCH  41  43
ENDBRANCH  40  41
ENDBRANCH  39  40
ENDBRANCH  38  39
ENDBRANCH  32  33
ENDBRANCH  31  32
ENDBRANCH  30  31
ENDBRANCH   1  30
TORSDOF 14
ENDMDL
MODEL 9
REMARK VINA RESULT:      -6.9     13.126     17.281
REMARK  14 active torsions:
REMARK  status: ('A' for Active; 'I' for Inactive)
REMARK    1  A    between atoms: N_1  and  C_2 
REMARK    2  A    between atoms: C_8  and  C_9 
REMARK    3  A    between atoms: N_15  and  C_16 
REMARK    4  A    between atoms: C_16  and  C_17 
REMARK    5  A    between atoms: C_17  and  C_18 
REMARK    6  A    between atoms: C_18  and  C_19 
REMARK    7  A    between atoms: C_19  and  C_20 
REMARK    8  A    between atoms: C_20  and  C_21 
REMARK    9  A    between atoms: C_21  and  C_22 
REMARK   10  A    between atoms: N_27  and  C_28 
REMARK   11  A    between atoms: C_28  and  C_29 
REMARK   12  A    between atoms: C_29  and  N_30 
REMARK   13  A    between atoms: N_30  and  C_31 
REMARK   14  A    between atoms: C_50  and  N_51 
ROOT
HETATM    1  C   UNK N   1      25.510  14.069   6.792  0.00  0.00     0.002 C 
ENDROOT
BRANCH   1   2
HETATM    2  C   UNK N   1      25.457  15.576   6.580  0.00  0.00     0.020 C 
BRANCH   2   3
HETATM    3  C   UNK N   1      25.335  15.878   5.116  0.00  0.00     0.129 C 
BRANCH   3   4
HETATM    4  N   UNK N   1      24.474  17.015   4.720  0.00  0.00    -0.345 N 
HETATM    5  C   UNK N   1      23.100  16.861   4.593  0.00  0.00     0.056 C 
HETATM    6  C   UNK N   1      22.355  17.835   3.878  0.00  0.00     0.005 A 
HETATM    7  C   UNK N   1      22.993  19.000   3.402  0.00  0.00    -0.011 A 
HETATM    8  C   UNK N   1      20.978  17.673   3.641  0.00  0.00     0.043 A 
HETATM    9  C   UNK N   1      22.246  19.960   2.693  0.00  0.00     0.015 A 
HETATM   10  C   UNK N   1      24.354  19.193   3.659  0.00  0.00     0.002 A 
HETATM   11  C   UNK N   1      20.889  19.761   2.439  0.00  0.00     0.030 A 
HETATM   12  C   UNK N   1      20.255  18.615   2.913  0.00  0.00     0.026 A 
HETATM   13  C   UNK N   1      25.092  18.173   4.303  0.00  0.00     0.048 A 
HETATM   14  C   UNK N   1      25.000  20.376   3.256  0.00  0.00     0.017 A 
HETATM   15  C   UNK N   1      26.473  18.373   4.520  0.00  0.00     0.059 A 
HETATM   16  C   UNK N   1      27.094  19.565   4.139  0.00  0.00     0.027 A 
HETATM   17  C   UNK N   1      26.357  20.566   3.508  0.00  0.00     0.030 A 
BRANCH   5  18
HETATM   18  C   UNK N   1      22.367  15.738   5.268  0.00  0.00    -0.008 A 
HETATM   19  C   UNK N   1      21.842  15.975   6.548  0.00  0.00     0.014 A 
HETATM   20  C   UNK N   1      20.984  15.063   7.162  0.00  0.00     0.001 A 
HETATM   21  C   UNK N   1      20.619  13.898   6.494  0.00  0.00     0.000 A 
HETATM   22  C   UNK N   1      21.102  13.658   5.204  0.00  0.00     0.001 A 
HETATM   23  C   UNK N   1      21.951  14.584   4.584  0.00  0.00     0.014 A 
ENDBRANCH   5  18
BRANCH  12  24
HETATM   24  N   UNK N   1      18.890  18.399   2.646  0.00  0.00    -0.399 N 
HETATM   25  H   UNK N   1      18.598  17.876   1.865  0.00  0.00     0.156 HD
HETATM   26  H   UNK N   1      18.214  18.778   3.253  0.00  0.00     0.156 HD
ENDBRANCH  12  24
BRANCH  16  27
HETATM   27  N   UNK N   1      28.462  19.766   4.405  0.00  0.00    -0.399 N 
HETATM   28  H   UNK N   1      29.009  19.071   4.839  0.00  0.00     0.156 HD
HETATM   29  H   UNK N   1      28.882  20.619   4.152  0.00  0.00     0.156 HD
ENDBRANCH  16  27
ENDBRANCH   3   4
ENDBRANCH   2   3
ENDBRANCH   1   2
BRANCH   1  30
HETATM   30  C   UNK N   1      25.783  13.316   5.492  0.00  0.00     0.000 C 
BRANCH  30  31
HETATM   31  C   UNK N   1      25.299  11.870   5.553  0.00  0.00     0.006 C 
BRANCH  31  32
HETATM   32  C   UNK N   1      23.891  11.725   6.137  0.00  0.00     0.060 C 
BRANCH  32  33
HETATM   33  C   UNK N   1      23.405  10.312   6.076  0.00  0.00     0.043 A 
HETATM   34  C   UNK N   1      23.538   9.336   7.041  0.00  0.00     0.131 A 
HETATM   35  N   UNK N   1      22.994   8.209   6.526  0.00  0.00    -0.293 N 
HETATM   36  N   UNK N   1      22.551   8.491   5.308  0.00  0.00    -0.020 NA
ATOM     37  HN  UNK N   1      22.934   7.304   6.991  1.00  0.00     0.183 HD
HETATM   38  N   UNK N   1      22.790   9.758   5.024  0.00  0.00    -0.277 N 
BRANCH  38  39
HETATM   39  C   UNK N   1      22.437  10.413   3.770  0.00  0.00     0.166 C 
BRANCH  39  40
HETATM   40  C   UNK N   1      23.496  10.113   2.730  0.00  0.00     0.141 C 
BRANCH  40  41
HETATM   41  N   UNK N   1      23.127  10.806   1.530  0.00  0.00    -0.387 N 
HETATM   42  H   UNK N   1      22.893  10.279   0.732  0.00  0.00     0.159 HD
BRANCH  41  43
HETATM   43  C   UNK N   1      23.084  12.215   1.449  0.00  0.00     0.049 A 
HETATM   44  C   UNK N   1      21.877  12.911   1.231  0.00  0.00    -0.008 A 
HETATM   45  C   UNK N   1      20.584  12.154   1.037  0.00  0.00     0.043 C 
HETATM   46  C   UNK N   1      21.906  14.324   1.172  0.00  0.00     0.018 A 
HETATM   47  C   UNK N   1      19.489  12.991   0.391  0.00  0.00     0.005 C 
HETATM   48  C   UNK N   1      19.372  14.319   1.113  0.00  0.00     0.006 C 
HETATM   49  C   UNK N   1      20.655  15.128   0.943  0.00  0.00     0.057 C 
HETATM   50  N   UNK N   1      23.086  14.987   1.321  0.00  0.00    -0.358 N 
HETATM   51  C   UNK N   1      24.257  14.334   1.533  0.00  0.00     0.044 A 
ATOM     52  HN  UNK N   1      23.089  16.005   1.271  1.00  0.00     0.166 HD
HETATM   53  C   UNK N   1      24.280  12.930   1.597  0.00  0.00     0.018 A 
HETATM   54  C   UNK N   1      25.442  15.058   1.701  0.00  0.00     0.030 A 
HETATM   55  C   UNK N   1      25.493  12.265   1.831  0.00  0.00     0.016 A 
HETATM   56  C   UNK N   1      26.674  12.991   2.000  0.00  0.00     0.001 A 
HETATM   57  C   UNK N   1      26.648  14.388   1.935  0.00  0.00     0.002 A 
ENDBRANCH  41  43
ENDBRANCH  40  41
ENDBRANCH  39  40
ENDBRANCH  38  39
ENDBRANCH  32  33
ENDBRANCH  31  32
ENDBRANCH  30  31
ENDBRANCH   1  30
TORSDOF 14
ENDMDL
