MODEL 1
REMARK VINA RESULT:      -3.1      0.000      0.000
REMARK  2 active torsions:
REMARK  status: ('A' for Active; 'I' for Inactive)
REMARK    1  A    between atoms: C_2  and  C_3 
REMARK    2  A    between atoms: C_3  and  C_4 
ROOT
HETATM    1  C   UNK N   1      33.341  18.218   7.951  0.00  0.00     0.138 C 
ENDROOT
BRANCH   1   2
HETATM    2  C   UNK N   1      34.749  18.240   8.431  0.00  0.00     0.237 C 
HETATM    3  O   UNK N   1      35.339  19.301   8.541  0.00  0.00    -0.306 OA
ENDBRANCH   1   2
BRANCH   1   4
HETATM    4  C   UNK N   1      33.272  17.540   6.627  0.00  0.00     0.237 C 
HETATM    5  O   UNK N   1      34.071  17.826   5.754  0.00  0.00    -0.306 OA
ENDBRANCH   1   4
TORSDOF 2
ENDMDL
MODEL 2
REMARK VINA RESULT:      -3.0     13.266     14.046
REMARK  2 active torsions:
REMARK  status: ('A' for Active; 'I' for Inactive)
REMARK    1  A    between atoms: C_2  and  C_3 
REMARK    2  A    between atoms: C_3  and  C_4 
ROOT
HETATM    1  C   UNK N   1      20.980  19.935   2.207  0.00  0.00     0.138 C 
ENDROOT
BRANCH   1   2
HETATM    2  C   UNK N   1      22.299  20.268   2.811  0.00  0.00     0.237 C 
HETATM    3  O   UNK N   1      22.662  21.430   2.875  0.00  0.00    -0.306 OA
ENDBRANCH   1   2
BRANCH   1   4
HETATM    4  C   UNK N   1      20.669  20.899   1.117  0.00  0.00     0.237 C 
HETATM    5  O   UNK N   1      21.121  20.723  -0.000  0.00  0.00    -0.306 OA
ENDBRANCH   1   4
TORSDOF 2
ENDMDL
MODEL 3
REMARK VINA RESULT:      -3.0     13.292     14.301
REMARK  2 active torsions:
REMARK  status: ('A' for Active; 'I' for Inactive)
REMARK    1  A    between atoms: C_2  and  C_3 
REMARK    2  A    between atoms: C_3  and  C_4 
ROOT
HETATM    1  C   UNK N   1      20.942  19.778   2.107  0.00  0.00     0.138 C 
ENDROOT
BRANCH   1   2
HETATM    2  C   UNK N   1      20.693  20.867   1.124  0.00  0.00     0.237 C 
HETATM    3  O   UNK N   1      21.079  20.748  -0.027  0.00  0.00    -0.306 OA
ENDBRANCH   1   2
BRANCH   1   4
HETATM    4  C   UNK N   1      22.120  20.123   2.950  0.00  0.00     0.237 C 
HETATM    5  O   UNK N   1      22.624  21.228   2.870  0.00  0.00    -0.306 OA
ENDBRANCH   1   4
TORSDOF 2
ENDMDL
MODEL 4
REMARK VINA RESULT:      -2.9     11.816     12.691
REMARK  2 active torsions:
REMARK  status: ('A' for Active; 'I' for Inactive)
REMARK    1  A    between atoms: C_2  and  C_3 
REMARK    2  A    between atoms: C_3  and  C_4 
ROOT
HETATM    1  C   UNK N   1      29.174  23.779  -3.289  0.00  0.00     0.138 C 
ENDROOT
BRANCH   1   2
HETATM    2  C   UNK N   1      29.368  22.989  -2.043  0.00  0.00     0.237 C 
HETATM    3  O   UNK N   1      30.434  23.034  -1.453  0.00  0.00    -0.306 OA
ENDBRANCH   1   2
BRANCH   1   4
HETATM    4  C   UNK N   1      27.742  24.166  -3.419  0.00  0.00     0.237 C 
HETATM    5  O   UNK N   1      26.955  23.900  -2.530  0.00  0.00    -0.306 OA
ENDBRANCH   1   4
TORSDOF 2
ENDMDL
MODEL 5
REMARK VINA RESULT:      -2.9     11.826     12.858
REMARK  2 active torsions:
REMARK  status: ('A' for Active; 'I' for Inactive)
REMARK    1  A    between atoms: C_2  and  C_3 
REMARK    2  A    between atoms: C_3  and  C_4 
ROOT
HETATM    1  C   UNK N   1      29.176  23.840  -3.296  0.00  0.00     0.138 C 
ENDROOT
BRANCH   1   2
HETATM    2  C   UNK N   1      27.733  24.189  -3.397  0.00  0.00     0.237 C 
HETATM    3  O   UNK N   1      26.965  23.870  -2.505  0.00  0.00    -0.306 OA
ENDBRANCH   1   2
BRANCH   1   4
HETATM    4  C   UNK N   1      29.392  22.929  -2.138  0.00  0.00     0.237 C 
HETATM    5  O   UNK N   1      30.384  23.053  -1.443  0.00  0.00    -0.306 OA
ENDBRANCH   1   4
TORSDOF 2
ENDMDL
MODEL 6
REMARK VINA RESULT:      -2.9      1.762      2.885
REMARK  2 active torsions:
REMARK  status: ('A' for Active; 'I' for Inactive)
REMARK    1  A    between atoms: C_2  and  C_3 
REMARK    2  A    between atoms: C_3  and  C_4 
ROOT
HETATM    1  C   UNK N   1      33.871  17.340   8.978  0.00  0.00     0.138 C 
ENDROOT
BRANCH   1   2
HETATM    2  C   UNK N   1      34.500  18.259   7.991  0.00  0.00     0.237 C 
HETATM    3  O   UNK N   1      35.082  19.259   8.375  0.00  0.00    -0.306 OA
ENDBRANCH   1   2
BRANCH   1   4
HETATM    4  C   UNK N   1      34.929  16.611   9.730  0.00  0.00     0.237 C 
HETATM    5  O   UNK N   1      35.589  17.193  10.572  0.00  0.00    -0.306 OA
ENDBRANCH   1   4
TORSDOF 2
ENDMDL
MODEL 7
REMARK VINA RESULT:      -2.9     13.725     14.204
REMARK  2 active torsions:
REMARK  status: ('A' for Active; 'I' for Inactive)
REMARK    1  A    between atoms: C_2  and  C_3 
REMARK    2  A    between atoms: C_3  and  C_4 
ROOT
HETATM    1  C   UNK N   1      23.278  11.987  11.614  0.00  0.00     0.138 C 
ENDROOT
BRANCH   1   2
HETATM    2  C   UNK N   1      21.993  12.204  10.894  0.00  0.00     0.237 C 
HETATM    3  O   UNK N   1      20.937  12.130  11.498  0.00  0.00    -0.306 OA
ENDBRANCH   1   2
BRANCH   1   4
HETATM    4  C   UNK N   1      23.014  11.804  13.067  0.00  0.00     0.237 C 
HETATM    5  O   UNK N   1      23.798  12.242  13.889  0.00  0.00    -0.306 OA
ENDBRANCH   1   4
TORSDOF 2
ENDMDL
MODEL 8
REMARK VINA RESULT:      -2.8      1.327      2.823
REMARK  2 active torsions:
REMARK  status: ('A' for Active; 'I' for Inactive)
REMARK    1  A    between atoms: C_2  and  C_3 
REMARK    2  A    between atoms: C_3  and  C_4 
ROOT
HETATM    1  C   UNK N   1      33.993  17.714   7.002  0.00  0.00     0.138 C 
ENDROOT
BRANCH   1   2
HETATM    2  C   UNK N   1      34.498  16.317   6.932  0.00  0.00     0.237 C 
HETATM    3  O   UNK N   1      35.199  15.969   5.997  0.00  0.00    -0.306 OA
ENDBRANCH   1   2
BRANCH   1   4
HETATM    4  C   UNK N   1      34.347  18.311   8.319  0.00  0.00     0.237 C 
HETATM    5  O   UNK N   1      35.241  19.134   8.395  0.00  0.00    -0.306 OA
ENDBRANCH   1   4
TORSDOF 2
ENDMDL
MODEL 9
REMARK VINA RESULT:      -2.7      1.871      2.810
REMARK  2 active torsions:
REMARK  status: ('A' for Active; 'I' for Inactive)
REMARK    1  A    between atoms: C_2  and  C_3 
REMARK    2  A    between atoms: C_3  and  C_4 
ROOT
HETATM    1  C   UNK N   1      33.486  18.117   7.547  0.00  0.00     0.138 C 
ENDROOT
BRANCH   1   2
HETATM    2  C   UNK N   1      32.364  17.528   8.326  0.00  0.00     0.237 C 
HETATM    3  O   UNK N   1      31.439  18.234   8.691  0.00  0.00    -0.306 OA
ENDBRANCH   1   2
BRANCH   1   4
HETATM    4  C   UNK N   1      34.699  18.209   8.405  0.00  0.00     0.237 C 
HETATM    5  O   UNK N   1      35.310  19.259   8.487  0.00  0.00    -0.306 OA
ENDBRANCH   1   4
TORSDOF 2
ENDMDL
