MODEL 1
REMARK VINA RESULT:      -6.2      0.000      0.000
REMARK  14 active torsions:
REMARK  status: ('A' for Active; 'I' for Inactive)
REMARK    1  A    between atoms: C_2  and  O_4 
REMARK    2  A    between atoms: O_4  and  C_5 
REMARK    3  A    between atoms: C_5  and  C_6 
REMARK    4  A    between atoms: C_6  and  N_7 
REMARK       I    between atoms: N_7  and  C_8 
REMARK    5  A    between atoms: C_8  and  C_10 
REMARK    6  A    between atoms: C_10  and  C_11 
REMARK    7  A    between atoms: C_11  and  N_12 
REMARK       I    between atoms: N_12  and  C_13 
REMARK    8  A    between atoms: C_13  and  C_15 
REMARK    9  A    between atoms: C_15  and  O_16 
REMARK   10  A    between atoms: C_15  and  C_17 
REMARK   11  A    between atoms: C_17  and  C_20 
REMARK   12  A    between atoms: C_20  and  O_21 
REMARK   13  A    between atoms: O_21  and  C_22 
REMARK   14  A    between atoms: C_22  and  C_24 
ROOT
HETATM    1  N   UNK N   1      34.510  15.699   8.302  0.00  0.00    -0.358 N 
HETATM    2  C   UNK N   1      34.489  14.688   9.210  0.00  0.00     0.247 C 
HETATM    3  O   UNK N   1      34.523  13.536   8.816  0.00  0.00    -0.271 OA
HETATM    4  H   UNK N   1      34.519  15.465   7.346  0.00  0.00     0.162 HD
ENDROOT
BRANCH   2   5
HETATM    5  C   UNK N   1      34.485  14.987  10.697  0.00  0.00     0.219 C 
BRANCH   5   6
HETATM    6  O   UNK N   1      33.210  14.791  11.235  0.00  0.00    -0.385 OA
HETATM    7  H   UNK N   1      33.029  14.080  11.869  0.00  0.00     0.210 HD
ENDBRANCH   5   6
BRANCH   5   8
HETATM    8  C   UNK N   1      35.587  14.318  11.537  0.00  0.00     0.009 C 
HETATM    9  C   UNK N   1      36.811  14.103  10.652  0.00  0.00     0.020 C 
HETATM   10  C   UNK N   1      35.999  15.283  12.633  0.00  0.00     0.020 C 
BRANCH   8  11
HETATM   11  C   UNK N   1      35.126  12.993  12.176  0.00  0.00     0.190 C 
BRANCH  11  12
HETATM   12  O   UNK N   1      34.683  13.236  13.461  0.00  0.00    -0.320 OA
BRANCH  12  13
HETATM   13  C   UNK N   1      34.678  12.359  14.499  0.00  0.00     0.266 C 
HETATM   14  O   UNK N   1      33.899  11.419  14.444  0.00  0.00    -0.264 OA
BRANCH  13  15
HETATM   15  C   UNK N   1      35.577  12.508  15.720  0.00  0.00     0.037 C 
HETATM   16  C   UNK N   1      34.821  13.215  16.827  0.00  0.00     0.025 C 
HETATM   17  C   UNK N   1      36.015  11.149  16.246  0.00  0.00     0.025 C 
HETATM   18  C   UNK N   1      36.837  13.288  15.406  0.00  0.00     0.025 C 
ENDBRANCH  13  15
ENDBRANCH  12  13
ENDBRANCH  11  12
ENDBRANCH   8  11
ENDBRANCH   5   8
ENDBRANCH   2   5
BRANCH   1  19
HETATM   19  C   UNK N   1      34.521  17.100   8.664  0.00  0.00     0.132 C 
BRANCH  19  20
HETATM   20  C   UNK N   1      33.376  17.876   8.007  0.00  0.00     0.122 C 
BRANCH  20  21
HETATM   21  C   UNK N   1      33.207  17.561   6.545  0.00  0.00     0.219 C 
HETATM   22  N   UNK N   1      32.104  16.933   6.073  0.00  0.00    -0.359 N 
HETATM   23  H   UNK N   1      32.028  16.768   5.106  0.00  0.00     0.162 HD
HETATM   24  O   UNK N   1      34.076  17.910   5.764  0.00  0.00    -0.274 OA
BRANCH  22  25
HETATM   25  C   UNK N   1      31.038  16.497   6.940  0.00  0.00     0.149 C 
BRANCH  25  26
HETATM   26  C   UNK N   1      29.779  17.295   6.649  0.00  0.00     0.198 C 
BRANCH  26  27
HETATM   27  O   UNK N   1      28.959  17.317   7.759  0.00  0.00    -0.320 OA
BRANCH  27  28
HETATM   28  C   UNK N   1      28.805  18.419   8.535  0.00  0.00     0.254 C 
HETATM   29  C   UNK N   1      29.746  18.660   9.663  0.00  0.00     0.126 C 
HETATM   30  O   UNK N   1      27.905  19.217   8.322  0.00  0.00    -0.266 OA
ENDBRANCH  27  28
ENDBRANCH  26  27
ENDBRANCH  25  26
ENDBRANCH  22  25
ENDBRANCH  20  21
ENDBRANCH  19  20
ENDBRANCH   1  19
TORSDOF 14
ENDMDL
MODEL 2
REMARK VINA RESULT:      -6.2      2.722      9.106
REMARK  14 active torsions:
REMARK  status: ('A' for Active; 'I' for Inactive)
REMARK    1  A    between atoms: C_2  and  O_4 
REMARK    2  A    between atoms: O_4  and  C_5 
REMARK    3  A    between atoms: C_5  and  C_6 
REMARK    4  A    between atoms: C_6  and  N_7 
REMARK       I    between atoms: N_7  and  C_8 
REMARK    5  A    between atoms: C_8  and  C_10 
REMARK    6  A    between atoms: C_10  and  C_11 
REMARK    7  A    between atoms: C_11  and  N_12 
REMARK       I    between atoms: N_12  and  C_13 
REMARK    8  A    between atoms: C_13  and  C_15 
REMARK    9  A    between atoms: C_15  and  O_16 
REMARK   10  A    between atoms: C_15  and  C_17 
REMARK   11  A    between atoms: C_17  and  C_20 
REMARK   12  A    between atoms: C_20  and  O_21 
REMARK   13  A    between atoms: O_21  and  C_22 
REMARK   14  A    between atoms: C_22  and  C_24 
ROOT
HETATM    1  N   UNK N   1      36.785  15.268  11.038  0.00  0.00    -0.358 N 
HETATM    2  C   UNK N   1      35.624  15.883  10.694  0.00  0.00     0.247 C 
HETATM    3  O   UNK N   1      35.570  17.100  10.708  0.00  0.00    -0.271 OA
HETATM    4  H   UNK N   1      37.543  15.829  11.322  0.00  0.00     0.162 HD
ENDROOT
BRANCH   2   5
HETATM    5  C   UNK N   1      34.426  15.072  10.239  0.00  0.00     0.219 C 
BRANCH   5   6
HETATM    6  O   UNK N   1      33.368  15.208  11.142  0.00  0.00    -0.385 OA
HETATM    7  H   UNK N   1      33.262  14.609  11.898  0.00  0.00     0.210 HD
ENDBRANCH   5   6
BRANCH   5   8
HETATM    8  C   UNK N   1      33.981  15.260   8.779  0.00  0.00     0.009 C 
HETATM    9  C   UNK N   1      35.069  14.705   7.863  0.00  0.00     0.020 C 
HETATM   10  C   UNK N   1      32.740  14.417   8.550  0.00  0.00     0.020 C 
BRANCH   8  11
HETATM   11  C   UNK N   1      33.666  16.729   8.437  0.00  0.00     0.190 C 
BRANCH  11  12
HETATM   12  O   UNK N   1      32.789  16.773   7.372  0.00  0.00    -0.320 OA
BRANCH  12  13
HETATM   13  C   UNK N   1      33.065  17.188   6.107  0.00  0.00     0.266 C 
HETATM   14  O   UNK N   1      34.039  17.908   5.946  0.00  0.00    -0.264 OA
BRANCH  13  15
HETATM   15  C   UNK N   1      32.212  16.811   4.902  0.00  0.00     0.037 C 
HETATM   16  C   UNK N   1      32.129  15.303   4.786  0.00  0.00     0.025 C 
HETATM   17  C   UNK N   1      30.795  17.349   5.046  0.00  0.00     0.025 C 
HETATM   18  C   UNK N   1      32.770  17.376   3.612  0.00  0.00     0.025 C 
ENDBRANCH  13  15
ENDBRANCH  12  13
ENDBRANCH  11  12
ENDBRANCH   8  11
ENDBRANCH   5   8
ENDBRANCH   2   5
BRANCH   1  19
HETATM   19  C   UNK N   1      36.970  13.833  11.010  0.00  0.00     0.132 C 
BRANCH  19  20
HETATM   20  C   UNK N   1      36.846  13.207  12.402  0.00  0.00     0.122 C 
BRANCH  20  21
HETATM   21  C   UNK N   1      35.540  12.493  12.618  0.00  0.00     0.219 C 
HETATM   22  N   UNK N   1      34.894  12.532  13.807  0.00  0.00    -0.359 N 
HETATM   23  H   UNK N   1      34.030  12.068  13.895  0.00  0.00     0.162 HD
HETATM   24  O   UNK N   1      35.038  11.889  11.684  0.00  0.00    -0.274 OA
BRANCH  22  25
HETATM   25  C   UNK N   1      35.429  13.230  14.949  0.00  0.00     0.149 C 
BRANCH  25  26
HETATM   26  C   UNK N   1      34.569  12.955  16.171  0.00  0.00     0.198 C 
BRANCH  26  27
HETATM   27  O   UNK N   1      35.364  12.680  17.264  0.00  0.00    -0.320 OA
BRANCH  27  28
HETATM   28  C   UNK N   1      35.278  13.373  18.427  0.00  0.00     0.254 C 
HETATM   29  C   UNK N   1      35.172  12.635  19.715  0.00  0.00     0.126 C 
HETATM   30  O   UNK N   1      35.287  14.595  18.433  0.00  0.00    -0.266 OA
ENDBRANCH  27  28
ENDBRANCH  26  27
ENDBRANCH  25  26
ENDBRANCH  22  25
ENDBRANCH  20  21
ENDBRANCH  19  20
ENDBRANCH   1  19
TORSDOF 14
ENDMDL
MODEL 3
REMARK VINA RESULT:      -6.1      2.216      8.519
REMARK  14 active torsions:
REMARK  status: ('A' for Active; 'I' for Inactive)
REMARK    1  A    between atoms: C_2  and  O_4 
REMARK    2  A    between atoms: O_4  and  C_5 
REMARK    3  A    between atoms: C_5  and  C_6 
REMARK    4  A    between atoms: C_6  and  N_7 
REMARK       I    between atoms: N_7  and  C_8 
REMARK    5  A    between atoms: C_8  and  C_10 
REMARK    6  A    between atoms: C_10  and  C_11 
REMARK    7  A    between atoms: C_11  and  N_12 
REMARK       I    between atoms: N_12  and  C_13 
REMARK    8  A    between atoms: C_13  and  C_15 
REMARK    9  A    between atoms: C_15  and  O_16 
REMARK   10  A    between atoms: C_15  and  C_17 
REMARK   11  A    between atoms: C_17  and  C_20 
REMARK   12  A    between atoms: C_20  and  O_21 
REMARK   13  A    between atoms: O_21  and  C_22 
REMARK   14  A    between atoms: C_22  and  C_24 
ROOT
HETATM    1  N   UNK N   1      36.158  15.167   9.799  0.00  0.00    -0.358 N 
HETATM    2  C   UNK N   1      35.009  15.881   9.926  0.00  0.00     0.247 C 
HETATM    3  O   UNK N   1      35.052  16.989  10.431  0.00  0.00    -0.271 OA
HETATM    4  H   UNK N   1      36.991  15.558  10.151  0.00  0.00     0.162 HD
ENDROOT
BRANCH   2   5
HETATM    5  C   UNK N   1      33.699  15.336   9.394  0.00  0.00     0.219 C 
BRANCH   5   6
HETATM    6  O   UNK N   1      32.749  15.251  10.417  0.00  0.00    -0.385 OA
HETATM    7  H   UNK N   1      32.150  15.987  10.618  0.00  0.00     0.210 HD
ENDBRANCH   5   6
BRANCH   5   8
HETATM    8  C   UNK N   1      33.139  16.002   8.126  0.00  0.00     0.009 C 
HETATM    9  C   UNK N   1      34.275  16.167   7.121  0.00  0.00     0.020 C 
HETATM   10  C   UNK N   1      32.130  15.057   7.500  0.00  0.00     0.020 C 
BRANCH   8  11
HETATM   11  C   UNK N   1      32.455  17.353   8.416  0.00  0.00     0.190 C 
BRANCH  11  12
HETATM   12  O   UNK N   1      31.153  17.130   8.814  0.00  0.00    -0.320 OA
BRANCH  12  13
HETATM   13  C   UNK N   1      30.141  18.037   8.836  0.00  0.00     0.266 C 
HETATM   14  O   UNK N   1      30.322  19.074   9.457  0.00  0.00    -0.264 OA
BRANCH  13  15
HETATM   15  C   UNK N   1      28.803  17.810   8.142  0.00  0.00     0.037 C 
HETATM   16  C   UNK N   1      28.223  19.140   7.706  0.00  0.00     0.025 C 
HETATM   17  C   UNK N   1      28.970  16.942   6.903  0.00  0.00     0.025 C 
HETATM   18  C   UNK N   1      27.808  17.109   9.044  0.00  0.00     0.025 C 
ENDBRANCH  13  15
ENDBRANCH  12  13
ENDBRANCH  11  12
ENDBRANCH   8  11
ENDBRANCH   5   8
ENDBRANCH   2   5
BRANCH   1  19
HETATM   19  C   UNK N   1      36.226  13.865   9.172  0.00  0.00     0.132 C 
BRANCH  19  20
HETATM   20  C   UNK N   1      36.542  12.755  10.179  0.00  0.00     0.122 C 
BRANCH  20  21
HETATM   21  C   UNK N   1      37.745  13.052  11.032  0.00  0.00     0.219 C 
HETATM   22  N   UNK N   1      37.681  13.041  12.385  0.00  0.00    -0.359 N 
HETATM   23  H   UNK N   1      38.499  13.219  12.902  0.00  0.00     0.162 HD
HETATM   24  O   UNK N   1      38.812  13.278  10.486  0.00  0.00    -0.274 OA
BRANCH  22  25
HETATM   25  C   UNK N   1      36.454  12.777  13.093  0.00  0.00     0.149 C 
BRANCH  25  26
HETATM   26  C   UNK N   1      36.305  13.753  14.248  0.00  0.00     0.198 C 
BRANCH  26  27
HETATM   27  O   UNK N   1      36.248  13.072  15.446  0.00  0.00    -0.320 OA
BRANCH  27  28
HETATM   28  C   UNK N   1      35.116  12.988  16.190  0.00  0.00     0.254 C 
HETATM   29  C   UNK N   1      35.214  12.689  17.645  0.00  0.00     0.126 C 
HETATM   30  O   UNK N   1      34.017  13.155  15.683  0.00  0.00    -0.266 OA
ENDBRANCH  27  28
ENDBRANCH  26  27
ENDBRANCH  25  26
ENDBRANCH  22  25
ENDBRANCH  20  21
ENDBRANCH  19  20
ENDBRANCH   1  19
TORSDOF 14
ENDMDL
MODEL 4
REMARK VINA RESULT:      -6.0      2.888      8.430
REMARK  14 active torsions:
REMARK  status: ('A' for Active; 'I' for Inactive)
REMARK    1  A    between atoms: C_2  and  O_4 
REMARK    2  A    between atoms: O_4  and  C_5 
REMARK    3  A    between atoms: C_5  and  C_6 
REMARK    4  A    between atoms: C_6  and  N_7 
REMARK       I    between atoms: N_7  and  C_8 
REMARK    5  A    between atoms: C_8  and  C_10 
REMARK    6  A    between atoms: C_10  and  C_11 
REMARK    7  A    between atoms: C_11  and  N_12 
REMARK       I    between atoms: N_12  and  C_13 
REMARK    8  A    between atoms: C_13  and  C_15 
REMARK    9  A    between atoms: C_15  and  O_16 
REMARK   10  A    between atoms: C_15  and  C_17 
REMARK   11  A    between atoms: C_17  and  C_20 
REMARK   12  A    between atoms: C_20  and  O_21 
REMARK   13  A    between atoms: O_21  and  C_22 
REMARK   14  A    between atoms: C_22  and  C_24 
ROOT
HETATM    1  N   UNK N   1      36.593  15.226  11.371  0.00  0.00    -0.358 N 
HETATM    2  C   UNK N   1      35.443  15.841  10.990  0.00  0.00     0.247 C 
HETATM    3  O   UNK N   1      35.341  17.047  11.129  0.00  0.00    -0.271 OA
HETATM    4  H   UNK N   1      37.301  15.774  11.781  0.00  0.00     0.162 HD
ENDROOT
BRANCH   2   5
HETATM    5  C   UNK N   1      34.322  15.051  10.343  0.00  0.00     0.219 C 
BRANCH   5   6
HETATM    6  O   UNK N   1      33.189  15.042  11.162  0.00  0.00    -0.385 OA
HETATM    7  H   UNK N   1      32.497  14.371  11.066  0.00  0.00     0.210 HD
ENDBRANCH   5   6
BRANCH   5   8
HETATM    8  C   UNK N   1      33.990  15.397   8.882  0.00  0.00     0.009 C 
HETATM    9  C   UNK N   1      35.204  15.074   8.016  0.00  0.00     0.020 C 
HETATM   10  C   UNK N   1      32.866  14.485   8.423  0.00  0.00     0.020 C 
BRANCH   8  11
HETATM   11  C   UNK N   1      33.555  16.864   8.702  0.00  0.00     0.190 C 
BRANCH  11  12
HETATM   12  O   UNK N   1      32.791  16.979   7.558  0.00  0.00    -0.320 OA
BRANCH  12  13
HETATM   13  C   UNK N   1      33.239  17.253   6.305  0.00  0.00     0.266 C 
HETATM   14  O   UNK N   1      34.168  18.039   6.194  0.00  0.00    -0.264 OA
BRANCH  13  15
HETATM   15  C   UNK N   1      32.626  16.645   5.049  0.00  0.00     0.037 C 
HETATM   16  C   UNK N   1      31.171  16.308   5.302  0.00  0.00     0.025 C 
HETATM   17  C   UNK N   1      32.685  17.622   3.883  0.00  0.00     0.025 C 
HETATM   18  C   UNK N   1      33.355  15.391   4.612  0.00  0.00     0.025 C 
ENDBRANCH  13  15
ENDBRANCH  12  13
ENDBRANCH  11  12
ENDBRANCH   8  11
ENDBRANCH   5   8
ENDBRANCH   2   5
BRANCH   1  19
HETATM   19  C   UNK N   1      36.835  13.809  11.206  0.00  0.00     0.132 C 
BRANCH  19  20
HETATM   20  C   UNK N   1      36.859  13.066  12.545  0.00  0.00     0.122 C 
BRANCH  20  21
HETATM   21  C   UNK N   1      35.495  12.639  13.012  0.00  0.00     0.219 C 
HETATM   22  N   UNK N   1      35.137  11.335  13.073  0.00  0.00    -0.359 N 
HETATM   23  H   UNK N   1      34.241  11.102  13.406  0.00  0.00     0.162 HD
HETATM   24  O   UNK N   1      34.702  13.494  13.374  0.00  0.00    -0.274 OA
BRANCH  22  25
HETATM   25  C   UNK N   1      36.025  10.275  12.665  0.00  0.00     0.149 C 
BRANCH  25  26
HETATM   26  C   UNK N   1      35.508   9.631  11.391  0.00  0.00     0.198 C 
BRANCH  26  27
HETATM   27  O   UNK N   1      35.906  10.360  10.289  0.00  0.00    -0.320 OA
BRANCH  27  28
HETATM   28  C   UNK N   1      35.044  11.098   9.547  0.00  0.00     0.254 C 
HETATM   29  C   UNK N   1      35.373  11.406   8.128  0.00  0.00     0.126 C 
HETATM   30  O   UNK N   1      34.000  11.515  10.025  0.00  0.00    -0.266 OA
ENDBRANCH  27  28
ENDBRANCH  26  27
ENDBRANCH  25  26
ENDBRANCH  22  25
ENDBRANCH  20  21
ENDBRANCH  19  20
ENDBRANCH   1  19
TORSDOF 14
ENDMDL
MODEL 5
REMARK VINA RESULT:      -6.0      1.842      8.365
REMARK  14 active torsions:
REMARK  status: ('A' for Active; 'I' for Inactive)
REMARK    1  A    between atoms: C_2  and  O_4 
REMARK    2  A    between atoms: O_4  and  C_5 
REMARK    3  A    between atoms: C_5  and  C_6 
REMARK    4  A    between atoms: C_6  and  N_7 
REMARK       I    between atoms: N_7  and  C_8 
REMARK    5  A    between atoms: C_8  and  C_10 
REMARK    6  A    between atoms: C_10  and  C_11 
REMARK    7  A    between atoms: C_11  and  N_12 
REMARK       I    between atoms: N_12  and  C_13 
REMARK    8  A    between atoms: C_13  and  C_15 
REMARK    9  A    between atoms: C_15  and  O_16 
REMARK   10  A    between atoms: C_15  and  C_17 
REMARK   11  A    between atoms: C_17  and  C_20 
REMARK   12  A    between atoms: C_20  and  O_21 
REMARK   13  A    between atoms: O_21  and  C_22 
REMARK   14  A    between atoms: C_22  and  C_24 
ROOT
HETATM    1  N   UNK N   1      34.043  14.934   9.437  0.00  0.00    -0.358 N 
HETATM    2  C   UNK N   1      32.905  15.169   8.732  0.00  0.00     0.247 C 
HETATM    3  O   UNK N   1      31.916  15.570   9.319  0.00  0.00    -0.271 OA
HETATM    4  H   UNK N   1      34.021  15.066  10.412  0.00  0.00     0.162 HD
ENDROOT
BRANCH   2   5
HETATM    5  C   UNK N   1      32.880  14.993   7.226  0.00  0.00     0.219 C 
BRANCH   5   6
HETATM    6  O   UNK N   1      31.837  14.142   6.847  0.00  0.00    -0.385 OA
HETATM    7  H   UNK N   1      31.191  13.810   7.490  0.00  0.00     0.210 HD
ENDBRANCH   5   6
BRANCH   5   8
HETATM    8  C   UNK N   1      32.927  16.278   6.382  0.00  0.00     0.009 C 
HETATM    9  C   UNK N   1      33.536  17.393   7.226  0.00  0.00     0.020 C 
HETATM   10  C   UNK N   1      33.869  16.043   5.215  0.00  0.00     0.020 C 
BRANCH   8  11
HETATM   11  C   UNK N   1      31.543  16.685   5.841  0.00  0.00     0.190 C 
BRANCH  11  12
HETATM   12  O   UNK N   1      30.890  17.452   6.785  0.00  0.00    -0.320 OA
BRANCH  12  13
HETATM   13  C   UNK N   1      29.613  17.295   7.220  0.00  0.00     0.266 C 
HETATM   14  O   UNK N   1      28.932  16.434   6.682  0.00  0.00    -0.264 OA
BRANCH  13  15
HETATM   15  C   UNK N   1      28.996  18.148   8.322  0.00  0.00     0.037 C 
HETATM   16  C   UNK N   1      28.173  19.261   7.706  0.00  0.00     0.025 C 
HETATM   17  C   UNK N   1      28.076  17.318   9.206  0.00  0.00     0.025 C 
HETATM   18  C   UNK N   1      30.049  18.755   9.227  0.00  0.00     0.025 C 
ENDBRANCH  13  15
ENDBRANCH  12  13
ENDBRANCH  11  12
ENDBRANCH   8  11
ENDBRANCH   5   8
ENDBRANCH   2   5
BRANCH   1  19
HETATM   19  C   UNK N   1      35.284  14.503   8.832  0.00  0.00     0.132 C 
BRANCH  19  20
HETATM   20  C   UNK N   1      36.466  14.607   9.800  0.00  0.00     0.122 C 
BRANCH  20  21
HETATM   21  C   UNK N   1      36.249  15.614  10.896  0.00  0.00     0.219 C 
HETATM   22  N   UNK N   1      36.226  15.255  12.202  0.00  0.00    -0.359 N 
HETATM   23  H   UNK N   1      36.103  15.952  12.885  0.00  0.00     0.162 HD
HETATM   24  O   UNK N   1      36.121  16.790  10.598  0.00  0.00    -0.274 OA
BRANCH  22  25
HETATM   25  C   UNK N   1      36.375  13.885  12.624  0.00  0.00     0.149 C 
BRANCH  25  26
HETATM   26  C   UNK N   1      36.423  13.815  14.140  0.00  0.00     0.198 C 
BRANCH  26  27
HETATM   27  O   UNK N   1      35.145  13.749  14.657  0.00  0.00    -0.320 OA
BRANCH  27  28
HETATM   28  C   UNK N   1      34.681  12.668  15.331  0.00  0.00     0.254 C 
HETATM   29  C   UNK N   1      35.114  12.437  16.736  0.00  0.00     0.126 C 
HETATM   30  O   UNK N   1      33.911  11.879  14.802  0.00  0.00    -0.266 OA
ENDBRANCH  27  28
ENDBRANCH  26  27
ENDBRANCH  25  26
ENDBRANCH  22  25
ENDBRANCH  20  21
ENDBRANCH  19  20
ENDBRANCH   1  19
TORSDOF 14
ENDMDL
MODEL 6
REMARK VINA RESULT:      -6.0      1.710      2.317
REMARK  14 active torsions:
REMARK  status: ('A' for Active; 'I' for Inactive)
REMARK    1  A    between atoms: C_2  and  O_4 
REMARK    2  A    between atoms: O_4  and  C_5 
REMARK    3  A    between atoms: C_5  and  C_6 
REMARK    4  A    between atoms: C_6  and  N_7 
REMARK       I    between atoms: N_7  and  C_8 
REMARK    5  A    between atoms: C_8  and  C_10 
REMARK    6  A    between atoms: C_10  and  C_11 
REMARK    7  A    between atoms: C_11  and  N_12 
REMARK       I    between atoms: N_12  and  C_13 
REMARK    8  A    between atoms: C_13  and  C_15 
REMARK    9  A    between atoms: C_15  and  O_16 
REMARK   10  A    between atoms: C_15  and  C_17 
REMARK   11  A    between atoms: C_17  and  C_20 
REMARK   12  A    between atoms: C_20  and  O_21 
REMARK   13  A    between atoms: O_21  and  C_22 
REMARK   14  A    between atoms: C_22  and  C_24 
ROOT
HETATM    1  N   UNK N   1      34.385  17.061   9.719  0.00  0.00    -0.358 N 
HETATM    2  C   UNK N   1      35.437  16.285  10.090  0.00  0.00     0.247 C 
HETATM    3  O   UNK N   1      36.363  16.793  10.697  0.00  0.00    -0.271 OA
HETATM    4  H   UNK N   1      34.420  18.023   9.926  0.00  0.00     0.162 HD
ENDROOT
BRANCH   2   5
HETATM    5  C   UNK N   1      35.435  14.796   9.808  0.00  0.00     0.219 C 
BRANCH   5   6
HETATM    6  O   UNK N   1      36.266  14.499   8.724  0.00  0.00    -0.385 OA
HETATM    7  H   UNK N   1      36.521  13.587   8.513  0.00  0.00     0.210 HD
ENDBRANCH   5   6
BRANCH   5   8
HETATM    8  C   UNK N   1      35.680  13.867  11.009  0.00  0.00     0.009 C 
HETATM    9  C   UNK N   1      34.902  12.572  10.790  0.00  0.00     0.020 C 
HETATM   10  C   UNK N   1      37.152  13.499  11.031  0.00  0.00     0.020 C 
BRANCH   8  11
HETATM   11  C   UNK N   1      35.302  14.520  12.353  0.00  0.00     0.190 C 
BRANCH  11  12
HETATM   12  O   UNK N   1      34.977  13.535  13.265  0.00  0.00    -0.320 OA
BRANCH  12  13
HETATM   13  C   UNK N   1      35.651  13.226  14.404  0.00  0.00     0.266 C 
HETATM   14  O   UNK N   1      36.749  13.737  14.570  0.00  0.00    -0.264 OA
BRANCH  13  15
HETATM   15  C   UNK N   1      35.110  12.269  15.459  0.00  0.00     0.037 C 
HETATM   16  C   UNK N   1      34.518  13.058  16.609  0.00  0.00     0.025 C 
HETATM   17  C   UNK N   1      34.013  11.384  14.883  0.00  0.00     0.025 C 
HETATM   18  C   UNK N   1      36.186  11.347  15.994  0.00  0.00     0.025 C 
ENDBRANCH  13  15
ENDBRANCH  12  13
ENDBRANCH  11  12
ENDBRANCH   8  11
ENDBRANCH   5   8
ENDBRANCH   2   5
BRANCH   1  19
HETATM   19  C   UNK N   1      33.215  16.550   9.037  0.00  0.00     0.132 C 
BRANCH  19  20
HETATM   20  C   UNK N   1      32.570  17.602   8.129  0.00  0.00     0.122 C 
BRANCH  20  21
HETATM   21  C   UNK N   1      33.147  17.621   6.740  0.00  0.00     0.219 C 
HETATM   22  N   UNK N   1      32.410  17.279   5.657  0.00  0.00    -0.359 N 
HETATM   23  H   UNK N   1      32.823  17.328   4.765  0.00  0.00     0.162 HD
HETATM   24  O   UNK N   1      34.301  17.983   6.587  0.00  0.00    -0.274 OA
BRANCH  22  25
HETATM   25  C   UNK N   1      31.040  16.845   5.766  0.00  0.00     0.149 C 
BRANCH  25  26
HETATM   26  C   UNK N   1      30.166  17.655   4.823  0.00  0.00     0.198 C 
BRANCH  26  27
HETATM   27  O   UNK N   1      28.862  17.671   5.274  0.00  0.00    -0.320 OA
BRANCH  27  28
HETATM   28  C   UNK N   1      28.199  18.820   5.561  0.00  0.00     0.254 C 
HETATM   29  C   UNK N   1      27.807  19.737   4.457  0.00  0.00     0.126 C 
HETATM   30  O   UNK N   1      27.920  19.113   6.714  0.00  0.00    -0.266 OA
ENDBRANCH  27  28
ENDBRANCH  26  27
ENDBRANCH  25  26
ENDBRANCH  22  25
ENDBRANCH  20  21
ENDBRANCH  19  20
ENDBRANCH   1  19
TORSDOF 14
ENDMDL
MODEL 7
REMARK VINA RESULT:      -6.0      1.722      2.271
REMARK  14 active torsions:
REMARK  status: ('A' for Active; 'I' for Inactive)
REMARK    1  A    between atoms: C_2  and  O_4 
REMARK    2  A    between atoms: O_4  and  C_5 
REMARK    3  A    between atoms: C_5  and  C_6 
REMARK    4  A    between atoms: C_6  and  N_7 
REMARK       I    between atoms: N_7  and  C_8 
REMARK    5  A    between atoms: C_8  and  C_10 
REMARK    6  A    between atoms: C_10  and  C_11 
REMARK    7  A    between atoms: C_11  and  N_12 
REMARK       I    between atoms: N_12  and  C_13 
REMARK    8  A    between atoms: C_13  and  C_15 
REMARK    9  A    between atoms: C_15  and  O_16 
REMARK   10  A    between atoms: C_15  and  C_17 
REMARK   11  A    between atoms: C_17  and  C_20 
REMARK   12  A    between atoms: C_20  and  O_21 
REMARK   13  A    between atoms: O_21  and  C_22 
REMARK   14  A    between atoms: C_22  and  C_24 
ROOT
HETATM    1  N   UNK N   1      33.836  16.440   9.455  0.00  0.00    -0.358 N 
HETATM    2  C   UNK N   1      34.550  15.648  10.297  0.00  0.00     0.247 C 
HETATM    3  O   UNK N   1      33.971  15.061  11.193  0.00  0.00    -0.271 OA
HETATM    4  H   UNK N   1      32.870  16.541   9.618  0.00  0.00     0.162 HD
ENDROOT
BRANCH   2   5
HETATM    5  C   UNK N   1      36.038  15.446  10.089  0.00  0.00     0.219 C 
BRANCH   5   6
HETATM    6  O   UNK N   1      36.770  16.150  11.050  0.00  0.00    -0.385 OA
HETATM    7  H   UNK N   1      37.444  15.716  11.596  0.00  0.00     0.210 HD
ENDBRANCH   5   6
BRANCH   5   8
HETATM    8  C   UNK N   1      36.521  13.994   9.930  0.00  0.00     0.009 C 
HETATM    9  C   UNK N   1      35.986  13.444   8.611  0.00  0.00     0.020 C 
HETATM   10  C   UNK N   1      38.034  14.007   9.821  0.00  0.00     0.020 C 
BRANCH   8  11
HETATM   11  C   UNK N   1      36.106  13.097  11.113  0.00  0.00     0.190 C 
BRANCH  11  12
HETATM   12  O   UNK N   1      36.892  13.393  12.209  0.00  0.00    -0.320 OA
BRANCH  12  13
HETATM   13  C   UNK N   1      36.462  13.790  13.435  0.00  0.00     0.266 C 
HETATM   14  O   UNK N   1      36.315  14.989  13.624  0.00  0.00    -0.264 OA
BRANCH  13  15
HETATM   15  C   UNK N   1      36.177  12.818  14.574  0.00  0.00     0.037 C 
HETATM   16  C   UNK N   1      34.837  12.147  14.349  0.00  0.00     0.025 C 
HETATM   17  C   UNK N   1      37.240  11.731  14.644  0.00  0.00     0.025 C 
HETATM   18  C   UNK N   1      36.163  13.511  15.921  0.00  0.00     0.025 C 
ENDBRANCH  13  15
ENDBRANCH  12  13
ENDBRANCH  11  12
ENDBRANCH   8  11
ENDBRANCH   5   8
ENDBRANCH   2   5
BRANCH   1  19
HETATM   19  C   UNK N   1      34.416  17.142   8.331  0.00  0.00     0.132 C 
BRANCH  19  20
HETATM   20  C   UNK N   1      33.419  17.319   7.182  0.00  0.00     0.122 C 
BRANCH  20  21
HETATM   21  C   UNK N   1      32.817  16.023   6.713  0.00  0.00     0.219 C 
HETATM   22  N   UNK N   1      31.689  15.989   5.964  0.00  0.00    -0.359 N 
HETATM   23  H   UNK N   1      31.345  15.118   5.662  0.00  0.00     0.162 HD
HETATM   24  O   UNK N   1      33.380  14.977   6.992  0.00  0.00    -0.274 OA
BRANCH  22  25
HETATM   25  C   UNK N   1      30.976  17.186   5.596  0.00  0.00     0.149 C 
BRANCH  25  26
HETATM   26  C   UNK N   1      29.633  17.225   6.303  0.00  0.00     0.198 C 
BRANCH  26  27
HETATM   27  O   UNK N   1      29.729  17.950   7.473  0.00  0.00    -0.320 OA
BRANCH  27  28
HETATM   28  C   UNK N   1      29.697  17.371   8.700  0.00  0.00     0.254 C 
HETATM   29  C   UNK N   1      28.487  17.525   9.553  0.00  0.00     0.126 C 
HETATM   30  O   UNK N   1      30.647  16.725   9.115  0.00  0.00    -0.266 OA
ENDBRANCH  27  28
ENDBRANCH  26  27
ENDBRANCH  25  26
ENDBRANCH  22  25
ENDBRANCH  20  21
ENDBRANCH  19  20
ENDBRANCH   1  19
TORSDOF 14
ENDMDL
MODEL 8
REMARK VINA RESULT:      -5.9      2.044      3.032
REMARK  14 active torsions:
REMARK  status: ('A' for Active; 'I' for Inactive)
REMARK    1  A    between atoms: C_2  and  O_4 
REMARK    2  A    between atoms: O_4  and  C_5 
REMARK    3  A    between atoms: C_5  and  C_6 
REMARK    4  A    between atoms: C_6  and  N_7 
REMARK       I    between atoms: N_7  and  C_8 
REMARK    5  A    between atoms: C_8  and  C_10 
REMARK    6  A    between atoms: C_10  and  C_11 
REMARK    7  A    between atoms: C_11  and  N_12 
REMARK       I    between atoms: N_12  and  C_13 
REMARK    8  A    between atoms: C_13  and  C_15 
REMARK    9  A    between atoms: C_15  and  O_16 
REMARK   10  A    between atoms: C_15  and  C_17 
REMARK   11  A    between atoms: C_17  and  C_20 
REMARK   12  A    between atoms: C_20  and  O_21 
REMARK   13  A    between atoms: O_21  and  C_22 
REMARK   14  A    between atoms: C_22  and  C_24 
ROOT
HETATM    1  N   UNK N   1      34.531  16.116   9.246  0.00  0.00    -0.358 N 
HETATM    2  C   UNK N   1      35.348  16.098  10.332  0.00  0.00     0.247 C 
HETATM    3  O   UNK N   1      35.189  16.929  11.208  0.00  0.00    -0.271 OA
HETATM    4  H   UNK N   1      33.852  16.826   9.187  0.00  0.00     0.162 HD
ENDROOT
BRANCH   2   5
HETATM    5  C   UNK N   1      36.406  15.022  10.483  0.00  0.00     0.219 C 
BRANCH   5   6
HETATM    6  O   UNK N   1      37.682  15.591  10.541  0.00  0.00    -0.385 OA
HETATM    7  H   UNK N   1      38.092  15.836  11.385  0.00  0.00     0.210 HD
ENDBRANCH   5   6
BRANCH   5   8
HETATM    8  C   UNK N   1      36.175  13.980  11.591  0.00  0.00     0.009 C 
HETATM    9  C   UNK N   1      34.912  13.191  11.263  0.00  0.00     0.020 C 
HETATM   10  C   UNK N   1      37.330  12.996  11.564  0.00  0.00     0.020 C 
BRANCH   8  11
HETATM   11  C   UNK N   1      36.084  14.614  12.993  0.00  0.00     0.190 C 
BRANCH  11  12
HETATM   12  O   UNK N   1      35.245  13.855  13.785  0.00  0.00    -0.320 OA
BRANCH  12  13
HETATM   13  C   UNK N   1      35.577  13.196  14.926  0.00  0.00     0.266 C 
HETATM   14  O   UNK N   1      36.137  13.834  15.806  0.00  0.00    -0.264 OA
BRANCH  13  15
HETATM   15  C   UNK N   1      35.301  11.714  15.144  0.00  0.00     0.037 C 
HETATM   16  C   UNK N   1      36.414  10.891  14.525  0.00  0.00     0.025 C 
HETATM   17  C   UNK N   1      35.242  11.381  16.628  0.00  0.00     0.025 C 
HETATM   18  C   UNK N   1      33.978  11.288  14.541  0.00  0.00     0.025 C 
ENDBRANCH  13  15
ENDBRANCH  12  13
ENDBRANCH  11  12
ENDBRANCH   8  11
ENDBRANCH   5   8
ENDBRANCH   2   5
BRANCH   1  19
HETATM   19  C   UNK N   1      34.603  15.147   8.174  0.00  0.00     0.132 C 
BRANCH  19  20
HETATM   20  C   UNK N   1      33.848  15.611   6.925  0.00  0.00     0.122 C 
BRANCH  20  21
HETATM   21  C   UNK N   1      33.573  17.090   6.912  0.00  0.00     0.219 C 
HETATM   22  N   UNK N   1      32.344  17.589   7.181  0.00  0.00    -0.359 N 
HETATM   23  H   UNK N   1      32.216  18.565   7.183  0.00  0.00     0.162 HD
HETATM   24  O   UNK N   1      34.493  17.857   6.681  0.00  0.00    -0.274 OA
BRANCH  22  25
HETATM   25  C   UNK N   1      31.215  16.740   7.465  0.00  0.00     0.149 C 
BRANCH  25  26
HETATM   26  C   UNK N   1      30.521  16.353   6.170  0.00  0.00     0.198 C 
BRANCH  26  27
HETATM   27  O   UNK N   1      30.707  17.333   5.217  0.00  0.00    -0.320 OA
BRANCH  27  28
HETATM   28  C   UNK N   1      31.038  17.053   3.932  0.00  0.00     0.254 C 
HETATM   29  C   UNK N   1      32.432  17.289   3.464  0.00  0.00     0.126 C 
HETATM   30  O   UNK N   1      30.210  16.608   3.151  0.00  0.00    -0.266 OA
ENDBRANCH  27  28
ENDBRANCH  26  27
ENDBRANCH  25  26
ENDBRANCH  22  25
ENDBRANCH  20  21
ENDBRANCH  19  20
ENDBRANCH   1  19
TORSDOF 14
ENDMDL
MODEL 9
REMARK VINA RESULT:      -5.9      1.750      2.302
REMARK  14 active torsions:
REMARK  status: ('A' for Active; 'I' for Inactive)
REMARK    1  A    between atoms: C_2  and  O_4 
REMARK    2  A    between atoms: O_4  and  C_5 
REMARK    3  A    between atoms: C_5  and  C_6 
REMARK    4  A    between atoms: C_6  and  N_7 
REMARK       I    between atoms: N_7  and  C_8 
REMARK    5  A    between atoms: C_8  and  C_10 
REMARK    6  A    between atoms: C_10  and  C_11 
REMARK    7  A    between atoms: C_11  and  N_12 
REMARK       I    between atoms: N_12  and  C_13 
REMARK    8  A    between atoms: C_13  and  C_15 
REMARK    9  A    between atoms: C_15  and  O_16 
REMARK   10  A    between atoms: C_15  and  C_17 
REMARK   11  A    between atoms: C_17  and  C_20 
REMARK   12  A    between atoms: C_20  and  O_21 
REMARK   13  A    between atoms: O_21  and  C_22 
REMARK   14  A    between atoms: C_22  and  C_24 
ROOT
HETATM    1  N   UNK N   1      33.720  16.511   9.778  0.00  0.00    -0.358 N 
HETATM    2  C   UNK N   1      35.012  16.228  10.091  0.00  0.00     0.247 C 
HETATM    3  O   UNK N   1      35.748  17.131  10.445  0.00  0.00    -0.271 OA
HETATM    4  H   UNK N   1      33.427  17.450   9.817  0.00  0.00     0.162 HD
ENDROOT
BRANCH   2   5
HETATM    5  C   UNK N   1      35.518  14.799  10.060  0.00  0.00     0.219 C 
BRANCH   5   6
HETATM    6  O   UNK N   1      36.495  14.644   9.072  0.00  0.00    -0.385 OA
HETATM    7  H   UNK N   1      36.943  15.407   8.675  0.00  0.00     0.210 HD
ENDBRANCH   5   6
BRANCH   5   8
HETATM    8  C   UNK N   1      35.942  14.188  11.407  0.00  0.00     0.009 C 
HETATM    9  C   UNK N   1      37.296  13.509  11.229  0.00  0.00     0.020 C 
HETATM   10  C   UNK N   1      36.143  15.320  12.398  0.00  0.00     0.020 C 
BRANCH   8  11
HETATM   11  C   UNK N   1      34.897  13.204  11.968  0.00  0.00     0.190 C 
BRANCH  11  12
HETATM   12  O   UNK N   1      34.712  13.452  13.314  0.00  0.00    -0.320 OA
BRANCH  12  13
HETATM   13  C   UNK N   1      34.858  12.565  14.333  0.00  0.00     0.266 C 
HETATM   14  O   UNK N   1      33.928  11.805  14.562  0.00  0.00    -0.264 OA
BRANCH  13  15
HETATM   15  C   UNK N   1      36.108  12.492  15.201  0.00  0.00     0.037 C 
HETATM   16  C   UNK N   1      35.797  11.748  16.484  0.00  0.00     0.025 C 
HETATM   17  C   UNK N   1      37.227  11.746  14.487  0.00  0.00     0.025 C 
HETATM   18  C   UNK N   1      36.643  13.867  15.545  0.00  0.00     0.025 C 
ENDBRANCH  13  15
ENDBRANCH  12  13
ENDBRANCH  11  12
ENDBRANCH   8  11
ENDBRANCH   5   8
ENDBRANCH   2   5
BRANCH   1  19
HETATM   19  C   UNK N   1      32.752  15.507   9.393  0.00  0.00     0.132 C 
BRANCH  19  20
HETATM   20  C   UNK N   1      31.562  16.111   8.641  0.00  0.00     0.122 C 
BRANCH  20  21
HETATM   21  C   UNK N   1      31.690  17.593   8.417  0.00  0.00     0.219 C 
HETATM   22  N   UNK N   1      30.813  18.474   8.953  0.00  0.00    -0.359 N 
HETATM   23  H   UNK N   1      30.950  19.436   8.798  0.00  0.00     0.162 HD
HETATM   24  O   UNK N   1      32.630  18.010   7.760  0.00  0.00    -0.274 OA
BRANCH  22  25
HETATM   25  C   UNK N   1      29.684  18.049   9.742  0.00  0.00     0.149 C 
BRANCH  25  26
HETATM   26  C   UNK N   1      28.398  18.271   8.964  0.00  0.00     0.198 C 
BRANCH  26  27
HETATM   27  O   UNK N   1      28.597  19.203   7.967  0.00  0.00    -0.320 OA
BRANCH  27  28
HETATM   28  C   UNK N   1      27.764  19.329   6.903  0.00  0.00     0.254 C 
HETATM   29  C   UNK N   1      27.151  20.652   6.603  0.00  0.00     0.126 C 
HETATM   30  O   UNK N   1      27.509  18.372   6.188  0.00  0.00    -0.266 OA
ENDBRANCH  27  28
ENDBRANCH  26  27
ENDBRANCH  25  26
ENDBRANCH  22  25
ENDBRANCH  20  21
ENDBRANCH  19  20
ENDBRANCH   1  19
TORSDOF 14
ENDMDL
