MODEL 1
REMARK VINA RESULT:      -4.6      0.000      0.000
REMARK  9 active torsions:
REMARK  status: ('A' for Active; 'I' for Inactive)
REMARK    1  A    between atoms: O_1  and  C_2 
REMARK    2  A    between atoms: C_2  and  C_4 
REMARK    3  A    between atoms: C_4  and  N_5 
REMARK    4  A    between atoms: N_5  and  C_6 
REMARK    5  A    between atoms: N_5  and  C_10 
REMARK    6  A    between atoms: C_6  and  C_7 
REMARK    7  A    between atoms: C_7  and  O_8 
REMARK    8  A    between atoms: C_10  and  C_11 
REMARK    9  A    between atoms: C_11  and  O_12 
ROOT
HETATM    1  N   UNK N   1      20.834  18.423   2.953  0.00  0.00     0.118 N 
ENDROOT
BRANCH   1   2
HETATM    2  C   UNK N   1      19.838  17.689   2.173  0.00  0.00     0.382 C 
BRANCH   2   3
HETATM    3  C   UNK N   1      20.308  17.276   0.805  0.00  0.00     0.169 C 
HETATM    4  O   UNK N   1      20.642  16.124   0.573  0.00  0.00    -0.649 OA
BRANCH   3   5
HETATM    5  O   UNK N   1      20.364  18.195  -0.176  0.00  0.00    -0.775 OA
HETATM    6  H   UNK N   1      19.824  18.960  -0.144  0.00  0.00     0.167 HD
ENDBRANCH   3   5
ENDBRANCH   2   3
ENDBRANCH   1   2
BRANCH   1   7
HETATM    7  C   UNK N   1      20.768  17.821   4.282  0.00  0.00     0.382 C 
BRANCH   7   8
HETATM    8  C   UNK N   1      21.829  18.318   5.224  0.00  0.00     0.169 C 
HETATM    9  O   UNK N   1      22.982  18.466   4.853  0.00  0.00    -0.649 OA
BRANCH   8  10
HETATM   10  O   UNK N   1      21.499  18.598   6.498  0.00  0.00    -0.775 OA
HETATM   11  H   UNK N   1      21.605  19.458   6.854  0.00  0.00     0.167 HD
ENDBRANCH   8  10
ENDBRANCH   7   8
ENDBRANCH   1   7
BRANCH   1  12
HETATM   12  C   UNK N   1      20.355  19.798   3.082  0.00  0.00     0.382 C 
BRANCH  12  13
HETATM   13  C   UNK N   1      21.202  20.737   2.281  0.00  0.00     0.169 C 
HETATM   14  O   UNK N   1      21.102  20.759   1.066  0.00  0.00    -0.649 OA
BRANCH  13  15
HETATM   15  O   UNK N   1      22.052  21.582   2.895  0.00  0.00    -0.775 OA
HETATM   16  H   UNK N   1      22.787  21.377   3.438  0.00  0.00     0.167 HD
ENDBRANCH  13  15
ENDBRANCH  12  13
ENDBRANCH   1  12
TORSDOF 9
ENDMDL
MODEL 2
REMARK VINA RESULT:      -4.6     14.545     16.264
REMARK  9 active torsions:
REMARK  status: ('A' for Active; 'I' for Inactive)
REMARK    1  A    between atoms: O_1  and  C_2 
REMARK    2  A    between atoms: C_2  and  C_4 
REMARK    3  A    between atoms: C_4  and  N_5 
REMARK    4  A    between atoms: N_5  and  C_6 
REMARK    5  A    between atoms: N_5  and  C_10 
REMARK    6  A    between atoms: C_6  and  C_7 
REMARK    7  A    between atoms: C_7  and  O_8 
REMARK    8  A    between atoms: C_10  and  C_11 
REMARK    9  A    between atoms: C_11  and  O_12 
ROOT
HETATM    1  N   UNK N   1      34.996  16.035   9.104  0.00  0.00     0.118 N 
ENDROOT
BRANCH   1   2
HETATM    2  C   UNK N   1      34.746  15.500  10.442  0.00  0.00     0.382 C 
BRANCH   2   3
HETATM    3  C   UNK N   1      35.939  15.544  11.358  0.00  0.00     0.169 C 
HETATM    4  O   UNK N   1      35.873  15.119  12.501  0.00  0.00    -0.649 OA
BRANCH   3   5
HETATM    5  O   UNK N   1      37.094  16.066  10.907  0.00  0.00    -0.775 OA
HETATM    6  H   UNK N   1      37.904  15.871  11.336  0.00  0.00     0.167 HD
ENDBRANCH   3   5
ENDBRANCH   2   3
ENDBRANCH   1   2
BRANCH   1   7
HETATM    7  C   UNK N   1      34.111  17.194   9.006  0.00  0.00     0.382 C 
BRANCH   7   8
HETATM    8  C   UNK N   1      34.618  18.265   8.081  0.00  0.00     0.169 C 
HETATM    9  O   UNK N   1      34.410  18.212   6.880  0.00  0.00    -0.649 OA
BRANCH   8  10
HETATM   10  O   UNK N   1      35.319  19.294   8.590  0.00  0.00    -0.775 OA
HETATM   11  H   UNK N   1      36.174  19.509   8.273  0.00  0.00     0.167 HD
ENDBRANCH   8  10
ENDBRANCH   7   8
ENDBRANCH   1   7
BRANCH   1  12
HETATM   12  C   UNK N   1      34.512  15.046   8.143  0.00  0.00     0.382 C 
BRANCH  12  13
HETATM   13  C   UNK N   1      35.523  14.810   7.063  0.00  0.00     0.169 C 
HETATM   14  O   UNK N   1      36.326  13.899   7.172  0.00  0.00    -0.649 OA
BRANCH  13  15
HETATM   15  O   UNK N   1      35.530  15.576   5.957  0.00  0.00    -0.775 OA
HETATM   16  H   UNK N   1      35.932  16.412   5.829  0.00  0.00     0.167 HD
ENDBRANCH  13  15
ENDBRANCH  12  13
ENDBRANCH   1  12
TORSDOF 9
ENDMDL
MODEL 3
REMARK VINA RESULT:      -4.6      0.187      4.269
REMARK  9 active torsions:
REMARK  status: ('A' for Active; 'I' for Inactive)
REMARK    1  A    between atoms: O_1  and  C_2 
REMARK    2  A    between atoms: C_2  and  C_4 
REMARK    3  A    between atoms: C_4  and  N_5 
REMARK    4  A    between atoms: N_5  and  C_6 
REMARK    5  A    between atoms: N_5  and  C_10 
REMARK    6  A    between atoms: C_6  and  C_7 
REMARK    7  A    between atoms: C_7  and  O_8 
REMARK    8  A    between atoms: C_10  and  C_11 
REMARK    9  A    between atoms: C_11  and  O_12 
ROOT
HETATM    1  N   UNK N   1      20.791  18.295   2.867  0.00  0.00     0.118 N 
ENDROOT
BRANCH   1   2
HETATM    2  C   UNK N   1      20.704  17.861   4.261  0.00  0.00     0.382 C 
BRANCH   2   3
HETATM    3  C   UNK N   1      21.834  18.343   5.130  0.00  0.00     0.169 C 
HETATM    4  O   UNK N   1      22.956  18.502   4.675  0.00  0.00    -0.649 OA
BRANCH   3   5
HETATM    5  O   UNK N   1      21.601  18.598   6.430  0.00  0.00    -0.775 OA
HETATM    6  H   UNK N   1      21.628  19.477   6.755  0.00  0.00     0.167 HD
ENDBRANCH   3   5
ENDBRANCH   2   3
ENDBRANCH   1   2
BRANCH   1   7
HETATM    7  C   UNK N   1      20.340  19.684   2.892  0.00  0.00     0.382 C 
BRANCH   7   8
HETATM    8  C   UNK N   1      21.232  20.623   2.129  0.00  0.00     0.169 C 
HETATM    9  O   UNK N   1      21.370  20.521   0.921  0.00  0.00    -0.649 OA
BRANCH   8  10
HETATM   10  O   UNK N   1      21.893  21.588   2.795  0.00  0.00    -0.775 OA
HETATM   11  H   UNK N   1      22.431  21.390   3.536  0.00  0.00     0.167 HD
ENDBRANCH   8  10
ENDBRANCH   7   8
ENDBRANCH   1   7
BRANCH   1  12
HETATM   12  C   UNK N   1      19.796  17.536   2.113  0.00  0.00     0.382 C 
BRANCH  12  13
HETATM   13  C   UNK N   1      20.325  17.150   0.766  0.00  0.00     0.169 C 
HETATM   14  O   UNK N   1      20.717  16.012   0.571  0.00  0.00    -0.649 OA
BRANCH  13  15
HETATM   15  O   UNK N   1      20.341  18.042  -0.242  0.00  0.00    -0.775 OA
HETATM   16  H   UNK N   1      19.629  18.326  -0.781  0.00  0.00     0.167 HD
ENDBRANCH  13  15
ENDBRANCH  12  13
ENDBRANCH   1  12
TORSDOF 9
ENDMDL
MODEL 4
REMARK VINA RESULT:      -4.3     13.152     14.647
REMARK  9 active torsions:
REMARK  status: ('A' for Active; 'I' for Inactive)
REMARK    1  A    between atoms: O_1  and  C_2 
REMARK    2  A    between atoms: C_2  and  C_4 
REMARK    3  A    between atoms: C_4  and  N_5 
REMARK    4  A    between atoms: N_5  and  C_6 
REMARK    5  A    between atoms: N_5  and  C_10 
REMARK    6  A    between atoms: C_6  and  C_7 
REMARK    7  A    between atoms: C_7  and  O_8 
REMARK    8  A    between atoms: C_10  and  C_11 
REMARK    9  A    between atoms: C_11  and  O_12 
ROOT
HETATM    1  N   UNK N   1      34.080  15.871   8.830  0.00  0.00     0.118 N 
ENDROOT
BRANCH   1   2
HETATM    2  C   UNK N   1      33.074  14.839   8.577  0.00  0.00     0.382 C 
BRANCH   2   3
HETATM    3  C   UNK N   1      32.791  14.598   7.119  0.00  0.00     0.169 C 
HETATM    4  O   UNK N   1      31.718  14.146   6.751  0.00  0.00    -0.649 OA
BRANCH   3   5
HETATM    5  O   UNK N   1      33.741  14.881   6.210  0.00  0.00    -0.775 OA
HETATM    6  H   UNK N   1      34.476  15.415   6.439  0.00  0.00     0.167 HD
ENDBRANCH   3   5
ENDBRANCH   2   3
ENDBRANCH   1   2
BRANCH   1   7
HETATM    7  C   UNK N   1      34.371  15.749  10.257  0.00  0.00     0.382 C 
BRANCH   7   8
HETATM    8  C   UNK N   1      35.734  16.254  10.640  0.00  0.00     0.169 C 
HETATM    9  O   UNK N   1      36.003  17.443  10.593  0.00  0.00    -0.649 OA
BRANCH   8  10
HETATM   10  O   UNK N   1      36.674  15.375  11.033  0.00  0.00    -0.775 OA
HETATM   11  H   UNK N   1      36.674  15.012  11.897  0.00  0.00     0.167 HD
ENDBRANCH   8  10
ENDBRANCH   7   8
ENDBRANCH   1   7
BRANCH   1  12
HETATM   12  C   UNK N   1      33.432  17.166   8.635  0.00  0.00     0.382 C 
BRANCH  12  13
HETATM   13  C   UNK N   1      34.277  18.065   7.786  0.00  0.00     0.169 C 
HETATM   14  O   UNK N   1      34.320  17.896   6.580  0.00  0.00    -0.649 OA
BRANCH  13  15
HETATM   15  O   UNK N   1      34.965  19.079   8.343  0.00  0.00    -0.775 OA
HETATM   16  H   UNK N   1      35.602  19.045   9.028  0.00  0.00     0.167 HD
ENDBRANCH  13  15
ENDBRANCH  12  13
ENDBRANCH   1  12
TORSDOF 9
ENDMDL
MODEL 5
REMARK VINA RESULT:      -4.2     11.295     13.330
REMARK  9 active torsions:
REMARK  status: ('A' for Active; 'I' for Inactive)
REMARK    1  A    between atoms: O_1  and  C_2 
REMARK    2  A    between atoms: C_2  and  C_4 
REMARK    3  A    between atoms: C_4  and  N_5 
REMARK    4  A    between atoms: N_5  and  C_6 
REMARK    5  A    between atoms: N_5  and  C_10 
REMARK    6  A    between atoms: C_6  and  C_7 
REMARK    7  A    between atoms: C_7  and  O_8 
REMARK    8  A    between atoms: C_10  and  C_11 
REMARK    9  A    between atoms: C_11  and  O_12 
ROOT
HETATM    1  N   UNK N   1      32.324  16.654   7.749  0.00  0.00     0.118 N 
ENDROOT
BRANCH   1   2
HETATM    2  C   UNK N   1      31.922  15.862   8.911  0.00  0.00     0.382 C 
BRANCH   2   3
HETATM    3  C   UNK N   1      33.051  15.121   9.573  0.00  0.00     0.169 C 
HETATM    4  O   UNK N   1      33.951  14.622   8.915  0.00  0.00    -0.649 OA
BRANCH   3   5
HETATM    5  O   UNK N   1      33.064  15.004  10.914  0.00  0.00    -0.775 OA
HETATM    6  H   UNK N   1      33.445  14.252  11.323  0.00  0.00     0.167 HD
ENDBRANCH   3   5
ENDBRANCH   2   3
ENDBRANCH   1   2
BRANCH   1   7
HETATM    7  C   UNK N   1      32.860  17.887   8.320  0.00  0.00     0.382 C 
BRANCH   7   8
HETATM    8  C   UNK N   1      34.215  18.261   7.786  0.00  0.00     0.169 C 
HETATM    9  O   UNK N   1      34.935  19.044   8.384  0.00  0.00    -0.649 OA
BRANCH   8  10
HETATM   10  O   UNK N   1      34.634  17.725   6.625  0.00  0.00    -0.775 OA
HETATM   11  H   UNK N   1      35.454  17.277   6.560  0.00  0.00     0.167 HD
ENDBRANCH   8  10
ENDBRANCH   7   8
ENDBRANCH   1   7
BRANCH   1  12
HETATM   12  C   UNK N   1      31.106  17.012   7.025  0.00  0.00     0.382 C 
BRANCH  12  13
HETATM   13  C   UNK N   1      31.356  17.066   5.550  0.00  0.00     0.169 C 
HETATM   14  O   UNK N   1      30.559  17.632   4.820  0.00  0.00    -0.649 OA
BRANCH  13  15
HETATM   15  O   UNK N   1      32.470  16.523   5.027  0.00  0.00    -0.775 OA
HETATM   16  H   UNK N   1      32.609  16.195   4.160  0.00  0.00     0.167 HD
ENDBRANCH  13  15
ENDBRANCH  12  13
ENDBRANCH   1  12
TORSDOF 9
ENDMDL
MODEL 6
REMARK VINA RESULT:      -4.2     22.399     23.583
REMARK  9 active torsions:
REMARK  status: ('A' for Active; 'I' for Inactive)
REMARK    1  A    between atoms: O_1  and  C_2 
REMARK    2  A    between atoms: C_2  and  C_4 
REMARK    3  A    between atoms: C_4  and  N_5 
REMARK    4  A    between atoms: N_5  and  C_6 
REMARK    5  A    between atoms: N_5  and  C_10 
REMARK    6  A    between atoms: C_6  and  C_7 
REMARK    7  A    between atoms: C_7  and  O_8 
REMARK    8  A    between atoms: C_10  and  C_11 
REMARK    9  A    between atoms: C_11  and  O_12 
ROOT
HETATM    1  N   UNK N   1      43.784  23.467   1.928  0.00  0.00     0.118 N 
ENDROOT
BRANCH   1   2
HETATM    2  C   UNK N   1      44.274  22.155   2.350  0.00  0.00     0.382 C 
BRANCH   2   3
HETATM    3  C   UNK N   1      44.577  22.053   3.821  0.00  0.00     0.169 C 
HETATM    4  O   UNK N   1      43.697  21.807   4.631  0.00  0.00    -0.649 OA
BRANCH   3   5
HETATM    5  O   UNK N   1      45.839  22.242   4.247  0.00  0.00    -0.775 OA
HETATM    6  H   UNK N   1      46.270  21.590   4.764  0.00  0.00     0.167 HD
ENDBRANCH   3   5
ENDBRANCH   2   3
ENDBRANCH   1   2
BRANCH   1   7
HETATM    7  C   UNK N   1      42.703  23.166   0.993  0.00  0.00     0.382 C 
BRANCH   7   8
HETATM    8  C   UNK N   1      41.336  23.494   1.524  0.00  0.00     0.169 C 
HETATM    9  O   UNK N   1      40.871  24.617   1.419  0.00  0.00    -0.649 OA
BRANCH   8  10
HETATM   10  O   UNK N   1      40.619  22.531   2.132  0.00  0.00    -0.775 OA
HETATM   11  H   UNK N   1      40.348  22.612   3.025  0.00  0.00     0.167 HD
ENDBRANCH   8  10
ENDBRANCH   7   8
ENDBRANCH   1   7
BRANCH   1  12
HETATM   12  C   UNK N   1      44.852  24.101   1.157  0.00  0.00     0.382 C 
BRANCH  12  13
HETATM   13  C   UNK N   1      45.583  25.111   1.987  0.00  0.00     0.169 C 
HETATM   14  O   UNK N   1      45.217  26.274   1.989  0.00  0.00    -0.649 OA
BRANCH  13  15
HETATM   15  O   UNK N   1      46.623  24.737   2.756  0.00  0.00    -0.775 OA
HETATM   16  H   UNK N   1      46.789  24.945   3.654  0.00  0.00     0.167 HD
ENDBRANCH  13  15
ENDBRANCH  12  13
ENDBRANCH   1  12
TORSDOF 9
ENDMDL
MODEL 7
REMARK VINA RESULT:      -4.2     11.407     13.780
REMARK  9 active torsions:
REMARK  status: ('A' for Active; 'I' for Inactive)
REMARK    1  A    between atoms: O_1  and  C_2 
REMARK    2  A    between atoms: C_2  and  C_4 
REMARK    3  A    between atoms: C_4  and  N_5 
REMARK    4  A    between atoms: N_5  and  C_6 
REMARK    5  A    between atoms: N_5  and  C_10 
REMARK    6  A    between atoms: C_6  and  C_7 
REMARK    7  A    between atoms: C_7  and  O_8 
REMARK    8  A    between atoms: C_10  and  C_11 
REMARK    9  A    between atoms: C_11  and  O_12 
ROOT
HETATM    1  N   UNK N   1      32.925  16.343   8.462  0.00  0.00     0.118 N 
ENDROOT
BRANCH   1   2
HETATM    2  C   UNK N   1      33.929  17.239   9.036  0.00  0.00     0.382 C 
BRANCH   2   3
HETATM    3  C   UNK N   1      34.566  18.170   8.040  0.00  0.00     0.169 C 
HETATM    4  O   UNK N   1      34.463  17.976   6.839  0.00  0.00    -0.649 OA
BRANCH   3   5
HETATM    5  O   UNK N   1      35.265  19.229   8.484  0.00  0.00    -0.775 OA
HETATM    6  H   UNK N   1      35.023  19.661   9.280  0.00  0.00     0.167 HD
ENDBRANCH   3   5
ENDBRANCH   2   3
ENDBRANCH   1   2
BRANCH   1   7
HETATM    7  C   UNK N   1      31.674  17.091   8.561  0.00  0.00     0.382 C 
BRANCH   7   8
HETATM    8  C   UNK N   1      30.960  17.250   7.247  0.00  0.00     0.169 C 
HETATM    9  O   UNK N   1      29.749  17.388   7.200  0.00  0.00    -0.649 OA
BRANCH   8  10
HETATM   10  O   UNK N   1      31.673  17.232   6.106  0.00  0.00    -0.775 OA
HETATM   11  H   UNK N   1      32.083  16.449   5.797  0.00  0.00     0.167 HD
ENDBRANCH   8  10
ENDBRANCH   7   8
ENDBRANCH   1   7
BRANCH   1  12
HETATM   12  C   UNK N   1      32.807  15.194   9.357  0.00  0.00     0.382 C 
BRANCH  12  13
HETATM   13  C   UNK N   1      32.528  13.941   8.586  0.00  0.00     0.169 C 
HETATM   14  O   UNK N   1      32.368  13.995   7.379  0.00  0.00    -0.649 OA
BRANCH  13  15
HETATM   15  O   UNK N   1      32.485  12.750   9.213  0.00  0.00    -0.775 OA
HETATM   16  H   UNK N   1      32.195  12.559  10.083  0.00  0.00     0.167 HD
ENDBRANCH  13  15
ENDBRANCH  12  13
ENDBRANCH   1  12
TORSDOF 9
ENDMDL
MODEL 8
REMARK VINA RESULT:      -4.2     11.427     13.791
REMARK  9 active torsions:
REMARK  status: ('A' for Active; 'I' for Inactive)
REMARK    1  A    between atoms: O_1  and  C_2 
REMARK    2  A    between atoms: C_2  and  C_4 
REMARK    3  A    between atoms: C_4  and  N_5 
REMARK    4  A    between atoms: N_5  and  C_6 
REMARK    5  A    between atoms: N_5  and  C_10 
REMARK    6  A    between atoms: C_6  and  C_7 
REMARK    7  A    between atoms: C_7  and  O_8 
REMARK    8  A    between atoms: C_10  and  C_11 
REMARK    9  A    between atoms: C_11  and  O_12 
ROOT
HETATM    1  N   UNK N   1      32.468  16.522   7.922  0.00  0.00     0.118 N 
ENDROOT
BRANCH   1   2
HETATM    2  C   UNK N   1      32.965  17.789   8.460  0.00  0.00     0.382 C 
BRANCH   2   3
HETATM    3  C   UNK N   1      34.252  18.259   7.839  0.00  0.00     0.169 C 
HETATM    4  O   UNK N   1      34.977  19.055   8.416  0.00  0.00    -0.649 OA
BRANCH   3   5
HETATM    5  O   UNK N   1      34.605  17.797   6.626  0.00  0.00    -0.775 OA
HETATM    6  H   UNK N   1      34.401  18.285   5.852  0.00  0.00     0.167 HD
ENDBRANCH   3   5
ENDBRANCH   2   3
ENDBRANCH   1   2
BRANCH   1   7
HETATM    7  C   UNK N   1      31.256  16.890   7.194  0.00  0.00     0.382 C 
BRANCH   7   8
HETATM    8  C   UNK N   1      31.367  16.703   5.706  0.00  0.00     0.169 C 
HETATM    9  O   UNK N   1      30.776  15.799   5.138  0.00  0.00    -0.649 OA
BRANCH   8  10
HETATM   10  O   UNK N   1      32.138  17.545   4.994  0.00  0.00    -0.775 OA
HETATM   11  H   UNK N   1      31.908  17.801   4.122  0.00  0.00     0.167 HD
ENDBRANCH   8  10
ENDBRANCH   7   8
ENDBRANCH   1   7
BRANCH   1  12
HETATM   12  C   UNK N   1      32.051  15.703   9.058  0.00  0.00     0.382 C 
BRANCH  12  13
HETATM   13  C   UNK N   1      33.233  15.060   9.717  0.00  0.00     0.169 C 
HETATM   14  O   UNK N   1      34.139  14.614   9.034  0.00  0.00    -0.649 OA
BRANCH  13  15
HETATM   15  O   UNK N   1      33.316  14.999  11.059  0.00  0.00    -0.775 OA
HETATM   16  H   UNK N   1      33.829  15.529  11.636  0.00  0.00     0.167 HD
ENDBRANCH  13  15
ENDBRANCH  12  13
ENDBRANCH   1  12
TORSDOF 9
ENDMDL
MODEL 9
REMARK VINA RESULT:      -4.2     13.160     15.143
REMARK  9 active torsions:
REMARK  status: ('A' for Active; 'I' for Inactive)
REMARK    1  A    between atoms: O_1  and  C_2 
REMARK    2  A    between atoms: C_2  and  C_4 
REMARK    3  A    between atoms: C_4  and  N_5 
REMARK    4  A    between atoms: N_5  and  C_6 
REMARK    5  A    between atoms: N_5  and  C_10 
REMARK    6  A    between atoms: C_6  and  C_7 
REMARK    7  A    between atoms: C_7  and  O_8 
REMARK    8  A    between atoms: C_10  and  C_11 
REMARK    9  A    between atoms: C_11  and  O_12 
ROOT
HETATM    1  N   UNK N   1      34.160  15.784   8.842  0.00  0.00     0.118 N 
ENDROOT
BRANCH   1   2
HETATM    2  C   UNK N   1      33.460  17.038   8.563  0.00  0.00     0.382 C 
BRANCH   2   3
HETATM    3  C   UNK N   1      34.238  18.002   7.709  0.00  0.00     0.169 C 
HETATM    4  O   UNK N   1      34.291  17.870   6.496  0.00  0.00    -0.649 OA
BRANCH   3   5
HETATM    5  O   UNK N   1      34.888  19.023   8.296  0.00  0.00    -0.775 OA
HETATM    6  H   UNK N   1      35.272  18.919   9.144  0.00  0.00     0.167 HD
ENDBRANCH   3   5
ENDBRANCH   2   3
ENDBRANCH   1   2
BRANCH   1   7
HETATM    7  C   UNK N   1      33.153  14.750   8.620  0.00  0.00     0.382 C 
BRANCH   7   8
HETATM    8  C   UNK N   1      32.887  14.469   7.167  0.00  0.00     0.169 C 
HETATM    9  O   UNK N   1      33.801  14.381   6.364  0.00  0.00    -0.649 OA
BRANCH   8  10
HETATM   10  O   UNK N   1      31.617  14.318   6.749  0.00  0.00    -0.775 OA
HETATM   11  H   UNK N   1      30.938  14.904   7.022  0.00  0.00     0.167 HD
ENDBRANCH   8  10
ENDBRANCH   7   8
ENDBRANCH   1   7
BRANCH   1  12
HETATM   12  C   UNK N   1      34.477  15.773  10.268  0.00  0.00     0.382 C 
BRANCH  12  13
HETATM   13  C   UNK N   1      35.819  16.387  10.524  0.00  0.00     0.169 C 
HETATM   14  O   UNK N   1      35.926  17.598  10.608  0.00  0.00    -0.649 OA
BRANCH  13  15
HETATM   15  O   UNK N   1      36.904  15.608  10.693  0.00  0.00    -0.775 OA
HETATM   16  H   UNK N   1      37.666  15.774  11.212  0.00  0.00     0.167 HD
ENDBRANCH  13  15
ENDBRANCH  12  13
ENDBRANCH   1  12
TORSDOF 9
ENDMDL
