MODEL 1
REMARK VINA RESULT:      -3.9      0.000      0.000
REMARK  6 active torsions:
REMARK  status: ('A' for Active; 'I' for Inactive)
REMARK    1  A    between atoms: C_2  and  C_3 
REMARK    2  A    between atoms: C_3  and  C_4 
REMARK    3  A    between atoms: C_4  and  C_5 
REMARK    4  A    between atoms: C_5  and  C_6 
REMARK    5  A    between atoms: C_6  and  O_7 
REMARK    6  A    between atoms: C_6  and  C_8 
ROOT
HETATM    1  C   UNK N   1      23.154  11.642  10.393  0.00  0.00     0.036 C 
ENDROOT
BRANCH   1   2
HETATM    2  C   UNK N   1      21.923  12.450  10.758  0.00  0.00     0.003 C 
BRANCH   2   3
HETATM    3  C   UNK N   1      21.193  12.844   9.493  0.00  0.00    -0.000 C 
BRANCH   3   4
HETATM    4  C   UNK N   1      20.404  14.111   9.740  0.00  0.00    -0.005 C 
HETATM    5  C   UNK N   1      21.025  15.247   8.956  0.00  0.00     0.005 C 
ENDBRANCH   3   4
ENDBRANCH   2   3
ENDBRANCH   1   2
BRANCH   1   6
HETATM    6  C   UNK N   1      24.441  12.421  10.622  0.00  0.00     0.140 C 
BRANCH   6   7
HETATM    7  O   UNK N   1      25.111  12.322  11.849  0.00  0.00    -0.392 OA
HETATM    8  H   UNK N   1      24.957  12.986  12.540  0.00  0.00     0.210 HD
ENDBRANCH   6   7
BRANCH   6   9
HETATM    9  C   UNK N   1      25.008  13.296   9.553  0.00  0.00    -0.006 C 
HETATM   10  C   UNK N   1      24.647  13.156   8.280  0.00  0.00     0.009 C 
ENDBRANCH   6   9
ENDBRANCH   1   6
TORSDOF 6
ENDMDL
MODEL 2
REMARK VINA RESULT:      -3.7      8.022      8.880
REMARK  6 active torsions:
REMARK  status: ('A' for Active; 'I' for Inactive)
REMARK    1  A    between atoms: C_2  and  C_3 
REMARK    2  A    between atoms: C_3  and  C_4 
REMARK    3  A    between atoms: C_4  and  C_5 
REMARK    4  A    between atoms: C_5  and  C_6 
REMARK    5  A    between atoms: C_6  and  O_7 
REMARK    6  A    between atoms: C_6  and  C_8 
ROOT
HETATM    1  C   UNK N   1      28.416  18.599   7.191  0.00  0.00     0.036 C 
ENDROOT
BRANCH   1   2
HETATM    2  C   UNK N   1      27.671  19.863   6.803  0.00  0.00     0.003 C 
BRANCH   2   3
HETATM    3  C   UNK N   1      27.752  20.049   5.304  0.00  0.00    -0.000 C 
BRANCH   3   4
HETATM    4  C   UNK N   1      26.445  20.614   4.794  0.00  0.00    -0.005 C 
HETATM    5  C   UNK N   1      26.374  20.431   3.293  0.00  0.00     0.005 C 
ENDBRANCH   3   4
ENDBRANCH   2   3
ENDBRANCH   1   2
BRANCH   1   6
HETATM    6  C   UNK N   1      28.493  18.419   8.700  0.00  0.00     0.140 C 
BRANCH   6   7
HETATM    7  O   UNK N   1      27.328  18.170   9.437  0.00  0.00    -0.392 OA
HETATM    8  H   UNK N   1      27.377  18.057  10.399  0.00  0.00     0.210 HD
ENDBRANCH   6   7
BRANCH   6   9
HETATM    9  C   UNK N   1      29.801  18.503   9.416  0.00  0.00    -0.006 C 
HETATM   10  C   UNK N   1      30.944  18.196   8.808  0.00  0.00     0.009 C 
ENDBRANCH   6   9
ENDBRANCH   1   6
TORSDOF 6
ENDMDL
MODEL 3
REMARK VINA RESULT:      -3.7      2.591      4.534
REMARK  6 active torsions:
REMARK  status: ('A' for Active; 'I' for Inactive)
REMARK    1  A    between atoms: C_2  and  C_3 
REMARK    2  A    between atoms: C_3  and  C_4 
REMARK    3  A    between atoms: C_4  and  C_5 
REMARK    4  A    between atoms: C_5  and  C_6 
REMARK    5  A    between atoms: C_6  and  O_7 
REMARK    6  A    between atoms: C_6  and  C_8 
ROOT
HETATM    1  C   UNK N   1      21.410  13.315   8.988  0.00  0.00     0.036 C 
ENDROOT
BRANCH   1   2
HETATM    2  C   UNK N   1      22.428  13.277  10.114  0.00  0.00     0.003 C 
BRANCH   2   3
HETATM    3  C   UNK N   1      22.008  12.239  11.130  0.00  0.00    -0.000 C 
BRANCH   3   4
HETATM    4  C   UNK N   1      23.167  11.939  12.054  0.00  0.00    -0.005 C 
HETATM    5  C   UNK N   1      24.460  12.003  11.270  0.00  0.00     0.005 C 
ENDBRANCH   3   4
ENDBRANCH   2   3
ENDBRANCH   1   2
BRANCH   1   6
HETATM    6  C   UNK N   1      20.433  14.471   9.137  0.00  0.00     0.140 C 
BRANCH   6   7
HETATM    7  O   UNK N   1      19.224  14.284   9.820  0.00  0.00    -0.392 OA
HETATM    8  H   UNK N   1      18.436  14.788   9.559  0.00  0.00     0.210 HD
ENDBRANCH   6   7
BRANCH   6   9
HETATM    9  C   UNK N   1      20.742  15.815   8.562  0.00  0.00    -0.006 C 
HETATM   10  C   UNK N   1      19.934  16.854   8.760  0.00  0.00     0.009 C 
ENDBRANCH   6   9
ENDBRANCH   1   6
TORSDOF 6
ENDMDL
MODEL 4
REMARK VINA RESULT:      -3.7     19.447     20.975
REMARK  6 active torsions:
REMARK  status: ('A' for Active; 'I' for Inactive)
REMARK    1  A    between atoms: C_2  and  C_3 
REMARK    2  A    between atoms: C_3  and  C_4 
REMARK    3  A    between atoms: C_4  and  C_5 
REMARK    4  A    between atoms: C_5  and  C_6 
REMARK    5  A    between atoms: C_6  and  O_7 
REMARK    6  A    between atoms: C_6  and  C_8 
ROOT
HETATM    1  C   UNK N   1      26.074  27.952  -5.395  0.00  0.00     0.036 C 
ENDROOT
BRANCH   1   2
HETATM    2  C   UNK N   1      24.963  26.954  -5.668  0.00  0.00     0.003 C 
BRANCH   2   3
HETATM    3  C   UNK N   1      25.571  25.642  -6.112  0.00  0.00    -0.000 C 
BRANCH   3   4
HETATM    4  C   UNK N   1      25.550  24.661  -4.961  0.00  0.00    -0.005 C 
HETATM    5  C   UNK N   1      26.961  24.463  -4.448  0.00  0.00     0.005 C 
ENDBRANCH   3   4
ENDBRANCH   2   3
ENDBRANCH   1   2
BRANCH   1   6
HETATM    6  C   UNK N   1      25.972  28.557  -4.004  0.00  0.00     0.140 C 
BRANCH   6   7
HETATM    7  O   UNK N   1      25.464  27.795  -2.943  0.00  0.00    -0.392 OA
HETATM    8  H   UNK N   1      25.415  26.829  -3.020  0.00  0.00     0.210 HD
ENDBRANCH   6   7
BRANCH   6   9
HETATM    9  C   UNK N   1      26.407  29.963  -3.744  0.00  0.00    -0.006 C 
HETATM   10  C   UNK N   1      27.287  30.571  -4.536  0.00  0.00     0.009 C 
ENDBRANCH   6   9
ENDBRANCH   1   6
TORSDOF 6
ENDMDL
MODEL 5
REMARK VINA RESULT:      -3.7     18.651     20.043
REMARK  6 active torsions:
REMARK  status: ('A' for Active; 'I' for Inactive)
REMARK    1  A    between atoms: C_2  and  C_3 
REMARK    2  A    between atoms: C_3  and  C_4 
REMARK    3  A    between atoms: C_4  and  C_5 
REMARK    4  A    between atoms: C_5  and  C_6 
REMARK    5  A    between atoms: C_6  and  O_7 
REMARK    6  A    between atoms: C_6  and  C_8 
ROOT
HETATM    1  C   UNK N   1      27.089  26.197  -3.841  0.00  0.00     0.036 C 
ENDROOT
BRANCH   1   2
HETATM    2  C   UNK N   1      26.175  27.185  -3.140  0.00  0.00     0.003 C 
BRANCH   2   3
HETATM    3  C   UNK N   1      25.581  28.127  -4.164  0.00  0.00    -0.000 C 
BRANCH   3   4
HETATM    4  C   UNK N   1      26.631  28.480  -5.194  0.00  0.00    -0.005 C 
HETATM    5  C   UNK N   1      27.219  29.835  -4.864  0.00  0.00     0.005 C 
ENDBRANCH   3   4
ENDBRANCH   2   3
ENDBRANCH   1   2
BRANCH   1   6
HETATM    6  C   UNK N   1      26.496  24.797  -3.885  0.00  0.00     0.140 C 
BRANCH   6   7
HETATM    7  O   UNK N   1      26.665  23.930  -2.797  0.00  0.00    -0.392 OA
HETATM    8  H   UNK N   1      26.632  22.970  -2.933  0.00  0.00     0.210 HD
ENDBRANCH   6   7
BRANCH   6   9
HETATM    9  C   UNK N   1      25.729  24.326  -5.077  0.00  0.00    -0.006 C 
HETATM   10  C   UNK N   1      25.782  24.978  -6.235  0.00  0.00     0.009 C 
ENDBRANCH   6   9
ENDBRANCH   1   6
TORSDOF 6
ENDMDL
MODEL 6
REMARK VINA RESULT:      -3.7     17.263     17.806
REMARK  6 active torsions:
REMARK  status: ('A' for Active; 'I' for Inactive)
REMARK    1  A    between atoms: C_2  and  C_3 
REMARK    2  A    between atoms: C_3  and  C_4 
REMARK    3  A    between atoms: C_4  and  C_5 
REMARK    4  A    between atoms: C_5  and  C_6 
REMARK    5  A    between atoms: C_6  and  O_7 
REMARK    6  A    between atoms: C_6  and  C_8 
ROOT
HETATM    1  C   UNK N   1      30.732  23.154  -2.608  0.00  0.00     0.036 C 
ENDROOT
BRANCH   1   2
HETATM    2  C   UNK N   1      29.226  23.106  -2.428  0.00  0.00     0.003 C 
BRANCH   2   3
HETATM    3  C   UNK N   1      28.568  23.909  -3.529  0.00  0.00    -0.000 C 
BRANCH   3   4
HETATM    4  C   UNK N   1      27.118  24.157  -3.174  0.00  0.00    -0.005 C 
HETATM    5  C   UNK N   1      26.712  25.531  -3.664  0.00  0.00     0.005 C 
ENDBRANCH   3   4
ENDBRANCH   2   3
ENDBRANCH   1   2
BRANCH   1   6
HETATM    6  C   UNK N   1      31.325  21.774  -2.851  0.00  0.00     0.140 C 
BRANCH   6   7
HETATM    7  O   UNK N   1      32.461  21.365  -2.142  0.00  0.00    -0.392 OA
HETATM    8  H   UNK N   1      32.363  20.891  -1.300  0.00  0.00     0.210 HD
ENDBRANCH   6   7
BRANCH   6   9
HETATM    9  C   UNK N   1      30.711  20.839  -3.842  0.00  0.00    -0.006 C 
HETATM   10  C   UNK N   1      30.730  21.104  -5.146  0.00  0.00     0.009 C 
ENDBRANCH   6   9
ENDBRANCH   1   6
TORSDOF 6
ENDMDL
MODEL 7
REMARK VINA RESULT:      -3.6      8.099      9.702
REMARK  6 active torsions:
REMARK  status: ('A' for Active; 'I' for Inactive)
REMARK    1  A    between atoms: C_2  and  C_3 
REMARK    2  A    between atoms: C_3  and  C_4 
REMARK    3  A    between atoms: C_4  and  C_5 
REMARK    4  A    between atoms: C_5  and  C_6 
REMARK    5  A    between atoms: C_6  and  O_7 
REMARK    6  A    between atoms: C_6  and  C_8 
ROOT
HETATM    1  C   UNK N   1      29.902  18.536   9.281  0.00  0.00     0.036 C 
ENDROOT
BRANCH   1   2
HETATM    2  C   UNK N   1      30.802  17.451   8.719  0.00  0.00     0.003 C 
BRANCH   2   3
HETATM    3  C   UNK N   1      32.148  18.050   8.373  0.00  0.00    -0.000 C 
BRANCH   3   4
HETATM    4  C   UNK N   1      32.668  17.421   7.100  0.00  0.00    -0.005 C 
HETATM    5  C   UNK N   1      31.501  17.070   6.202  0.00  0.00     0.005 C 
ENDBRANCH   3   4
ENDBRANCH   2   3
ENDBRANCH   1   2
BRANCH   1   6
HETATM    6  C   UNK N   1      28.515  18.511   8.656  0.00  0.00     0.140 C 
BRANCH   6   7
HETATM    7  O   UNK N   1      27.399  18.188   9.438  0.00  0.00    -0.392 OA
HETATM    8  H   UNK N   1      27.406  17.386   9.985  0.00  0.00     0.210 HD
ENDBRANCH   6   7
BRANCH   6   9
HETATM    9  C   UNK N   1      28.320  18.828   7.209  0.00  0.00    -0.006 C 
HETATM   10  C   UNK N   1      27.693  19.937   6.823  0.00  0.00     0.009 C 
ENDBRANCH   6   9
ENDBRANCH   1   6
TORSDOF 6
ENDMDL
MODEL 8
REMARK VINA RESULT:      -3.6     18.845     20.241
REMARK  6 active torsions:
REMARK  status: ('A' for Active; 'I' for Inactive)
REMARK    1  A    between atoms: C_2  and  C_3 
REMARK    2  A    between atoms: C_3  and  C_4 
REMARK    3  A    between atoms: C_4  and  C_5 
REMARK    4  A    between atoms: C_5  and  C_6 
REMARK    5  A    between atoms: C_6  and  O_7 
REMARK    6  A    between atoms: C_6  and  C_8 
ROOT
HETATM    1  C   UNK N   1      26.641  25.327  -6.460  0.00  0.00     0.036 C 
ENDROOT
BRANCH   1   2
HETATM    2  C   UNK N   1      25.617  26.314  -6.989  0.00  0.00     0.003 C 
BRANCH   2   3
HETATM    3  C   UNK N   1      24.976  27.038  -5.825  0.00  0.00    -0.000 C 
BRANCH   3   4
HETATM    4  C   UNK N   1      25.993  27.953  -5.178  0.00  0.00    -0.005 C 
HETATM    5  C   UNK N   1      25.689  28.072  -3.700  0.00  0.00     0.005 C 
ENDBRANCH   3   4
ENDBRANCH   2   3
ENDBRANCH   1   2
BRANCH   1   6
HETATM    6  C   UNK N   1      26.004  24.243  -5.604  0.00  0.00     0.140 C 
BRANCH   6   7
HETATM    7  O   UNK N   1      25.169  23.284  -6.194  0.00  0.00    -0.392 OA
HETATM    8  H   UNK N   1      25.501  22.387  -6.358  0.00  0.00     0.210 HD
ENDBRANCH   6   7
BRANCH   6   9
HETATM    9  C   UNK N   1      26.254  24.180  -4.132  0.00  0.00    -0.006 C 
HETATM   10  C   UNK N   1      27.336  24.733  -3.591  0.00  0.00     0.009 C 
ENDBRANCH   6   9
ENDBRANCH   1   6
TORSDOF 6
ENDMDL
MODEL 9
REMARK VINA RESULT:      -3.6      8.986     10.621
REMARK  6 active torsions:
REMARK  status: ('A' for Active; 'I' for Inactive)
REMARK    1  A    between atoms: C_2  and  C_3 
REMARK    2  A    between atoms: C_3  and  C_4 
REMARK    3  A    between atoms: C_4  and  C_5 
REMARK    4  A    between atoms: C_5  and  C_6 
REMARK    5  A    between atoms: C_6  and  O_7 
REMARK    6  A    between atoms: C_6  and  C_8 
ROOT
HETATM    1  C   UNK N   1      32.224  17.032   7.204  0.00  0.00     0.036 C 
ENDROOT
BRANCH   1   2
HETATM    2  C   UNK N   1      32.111  17.934   8.419  0.00  0.00     0.003 C 
BRANCH   2   3
HETATM    3  C   UNK N   1      30.650  18.141   8.751  0.00  0.00    -0.000 C 
BRANCH   3   4
HETATM    4  C   UNK N   1      29.793  17.523   7.668  0.00  0.00    -0.005 C 
HETATM    5  C   UNK N   1      28.608  18.424   7.393  0.00  0.00     0.005 C 
ENDBRANCH   3   4
ENDBRANCH   2   3
ENDBRANCH   1   2
BRANCH   1   6
HETATM    6  C   UNK N   1      33.287  17.513   6.229  0.00  0.00     0.140 C 
BRANCH   6   7
HETATM    7  O   UNK N   1      34.539  17.928   6.704  0.00  0.00    -0.392 OA
HETATM    8  H   UNK N   1      34.693  18.863   6.914  0.00  0.00     0.210 HD
ENDBRANCH   6   7
BRANCH   6   9
HETATM    9  C   UNK N   1      33.019  17.553   4.759  0.00  0.00    -0.006 C 
HETATM   10  C   UNK N   1      31.778  17.617   4.285  0.00  0.00     0.009 C 
ENDBRANCH   6   9
ENDBRANCH   1   6
TORSDOF 6
ENDMDL
