MODEL 1
REMARK VINA RESULT:      -6.7      0.000      0.000
REMARK  13 active torsions:
REMARK  status: ('A' for Active; 'I' for Inactive)
REMARK    1  A    between atoms: N_2  and  C_4 
REMARK    2  A    between atoms: C_13  and  S_14 
REMARK    3  A    between atoms: S_14  and  N_17 
REMARK    4  A    between atoms: N_17  and  C_18 
REMARK    5  A    between atoms: C_18  and  C_19 
REMARK    6  A    between atoms: C_19  and  C_20 
REMARK    7  A    between atoms: C_20  and  C_21 
REMARK    8  A    between atoms: C_21  and  C_22 
REMARK    9  A    between atoms: C_22  and  C_23 
REMARK   10  A    between atoms: C_23  and  C_24 
REMARK   11  A    between atoms: C_24  and  C_25 
REMARK   12  A    between atoms: C_25  and  N_26 
REMARK       I    between atoms: N_26  and  C_27 
REMARK   13  A    between atoms: C_29  and  C_27 
ROOT
HETATM    1  C   UNK N   1      28.132  22.554  -9.219  0.00  0.00     0.020 C 
ENDROOT
BRANCH   1   2
HETATM    2  C   UNK N   1      26.775  23.104  -9.603  0.00  0.00     0.132 C 
BRANCH   2   3
HETATM    3  N   UNK N   1      26.377  24.119  -8.641  0.00  0.00    -0.315 N 
HETATM    4  H   UNK N   1      26.045  23.924  -7.698  0.00  0.00     0.172 HD
BRANCH   3   5
HETATM    5  S   UNK N   1      26.550  25.748  -9.334  0.00  0.00     0.259 S 
HETATM    6  O   UNK N   1      27.363  25.556 -10.624  0.00  0.00    -0.201 OA
HETATM    7  O   UNK N   1      25.175  26.182  -9.869  0.00  0.00    -0.201 OA
BRANCH   5   8
HETATM    8  C   UNK N   1      27.263  26.974  -8.248  0.00  0.00     0.090 A 
HETATM    9  C   UNK N   1      28.404  27.654  -8.669  0.00  0.00     0.026 A 
HETATM   10  C   UNK N   1      28.975  28.631  -7.861  0.00  0.00     0.003 A 
HETATM   11  C   UNK N   1      28.401  28.940  -6.629  0.00  0.00     0.014 A 
HETATM   12  C   UNK N   1      27.252  28.279  -6.174  0.00  0.00     0.002 A 
HETATM   13  C   UNK N   1      26.676  27.273  -7.002  0.00  0.00    -0.000 A 
HETATM   14  C   UNK N   1      26.645  28.581  -4.912  0.00  0.00     0.040 A 
HETATM   15  C   UNK N   1      25.533  26.591  -6.579  0.00  0.00     0.014 A 
HETATM   16  C   UNK N   1      24.949  26.878  -5.353  0.00  0.00     0.003 A 
HETATM   17  C   UNK N   1      25.500  27.859  -4.534  0.00  0.00     0.030 A 
BRANCH  14  18
HETATM   18  N   UNK N   1      27.145  29.593  -4.010  0.00  0.00    -0.389 N 
HETATM   19  C   UNK N   1      26.625  30.937  -4.081  0.00  0.00     0.149 C 
HETATM   20  C   UNK N   1      28.179  29.347  -3.041  0.00  0.00     0.149 C 
ENDBRANCH  14  18
ENDBRANCH   5   8
ENDBRANCH   3   5
ENDBRANCH   2   3
ENDBRANCH   1   2
BRANCH   1  21
HETATM   21  C   UNK N   1      27.966  21.568  -8.087  0.00  0.00     0.002 C 
BRANCH  21  22
HETATM   22  C   UNK N   1      28.436  20.195  -8.513  0.00  0.00     0.000 C 
BRANCH  22  23
HETATM   23  C   UNK N   1      29.338  19.608  -7.445  0.00  0.00     0.000 C 
BRANCH  23  24
HETATM   24  C   UNK N   1      30.455  20.583  -7.122  0.00  0.00     0.002 C 
BRANCH  24  25
HETATM   25  C   UNK N   1      31.313  20.037  -5.995  0.00  0.00     0.020 C 
BRANCH  25  26
HETATM   26  C   UNK N   1      32.239  21.072  -5.348  0.00  0.00     0.122 C 
BRANCH  26  27
HETATM   27  N   UNK N   1      31.984  21.310  -3.941  0.00  0.00    -0.360 N 
HETATM   28  C   UNK N   1      31.379  22.392  -3.367  0.00  0.00     0.226 C 
HETATM   29  O   UNK N   1      31.405  22.472  -2.147  0.00  0.00    -0.273 OA
HETATM   30  H   UNK N   1      32.283  20.605  -3.324  0.00  0.00     0.162 HD
BRANCH  28  31
HETATM   31  C   UNK N   1      30.699  23.531  -4.133  0.00  0.00     0.042 C 
HETATM   32  C   UNK N   1      31.492  24.093  -5.326  0.00  0.00     0.024 C 
HETATM   33  C   UNK N   1      30.731  25.198  -6.056  0.00  0.00    -0.013 C 
HETATM   34  C   UNK N   1      29.394  24.641  -6.563  0.00  0.00     0.009 C 
HETATM   35  C   UNK N   1      30.478  26.339  -5.067  0.00  0.00     0.009 C 
HETATM   36  C   UNK N   1      28.567  24.121  -5.380  0.00  0.00    -0.013 C 
HETATM   37  C   UNK N   1      29.352  23.003  -4.678  0.00  0.00     0.024 C 
HETATM   38  C   UNK N   1      28.317  25.273  -4.391  0.00  0.00     0.009 C 
HETATM   39  C   UNK N   1      29.654  25.823  -3.875  0.00  0.00    -0.013 C 
HETATM   40  C   UNK N   1      30.416  24.693  -3.161  0.00  0.00     0.024 C 
ENDBRANCH  28  31
ENDBRANCH  26  27
ENDBRANCH  25  26
ENDBRANCH  24  25
ENDBRANCH  23  24
ENDBRANCH  22  23
ENDBRANCH  21  22
ENDBRANCH   1  21
TORSDOF 13
ENDMDL
MODEL 2
REMARK VINA RESULT:      -6.3      2.106      4.056
REMARK  13 active torsions:
REMARK  status: ('A' for Active; 'I' for Inactive)
REMARK    1  A    between atoms: N_2  and  C_4 
REMARK    2  A    between atoms: C_13  and  S_14 
REMARK    3  A    between atoms: S_14  and  N_17 
REMARK    4  A    between atoms: N_17  and  C_18 
REMARK    5  A    between atoms: C_18  and  C_19 
REMARK    6  A    between atoms: C_19  and  C_20 
REMARK    7  A    between atoms: C_20  and  C_21 
REMARK    8  A    between atoms: C_21  and  C_22 
REMARK    9  A    between atoms: C_22  and  C_23 
REMARK   10  A    between atoms: C_23  and  C_24 
REMARK   11  A    between atoms: C_24  and  C_25 
REMARK   12  A    between atoms: C_25  and  N_26 
REMARK       I    between atoms: N_26  and  C_27 
REMARK   13  A    between atoms: C_29  and  C_27 
ROOT
HETATM    1  C   UNK N   1      29.104  22.096  -7.817  0.00  0.00     0.020 C 
ENDROOT
BRANCH   1   2
HETATM    2  C   UNK N   1      27.992  21.448  -8.616  0.00  0.00     0.132 C 
BRANCH   2   3
HETATM    3  N   UNK N   1      26.840  21.237  -7.753  0.00  0.00    -0.315 N 
HETATM    4  H   UNK N   1      26.781  20.520  -7.031  0.00  0.00     0.172 HD
BRANCH   3   5
HETATM    5  S   UNK N   1      25.549  22.400  -8.129  0.00  0.00     0.259 S 
HETATM    6  O   UNK N   1      25.211  22.167  -9.609  0.00  0.00    -0.201 OA
HETATM    7  O   UNK N   1      24.268  21.929  -7.418  0.00  0.00    -0.201 OA
BRANCH   5   8
HETATM    8  C   UNK N   1      25.924  24.109  -7.769  0.00  0.00     0.090 A 
HETATM    9  C   UNK N   1      25.966  25.018  -8.824  0.00  0.00     0.026 A 
HETATM   10  C   UNK N   1      26.233  26.361  -8.582  0.00  0.00     0.003 A 
HETATM   11  C   UNK N   1      26.450  26.804  -7.278  0.00  0.00     0.014 A 
HETATM   12  C   UNK N   1      26.412  25.919  -6.192  0.00  0.00     0.002 A 
HETATM   13  C   UNK N   1      26.147  24.544  -6.447  0.00  0.00    -0.000 A 
HETATM   14  C   UNK N   1      26.632  26.353  -4.845  0.00  0.00     0.040 A 
HETATM   15  C   UNK N   1      26.106  23.632  -5.389  0.00  0.00     0.014 A 
HETATM   16  C   UNK N   1      26.326  24.051  -4.084  0.00  0.00     0.003 A 
HETATM   17  C   UNK N   1      26.586  25.392  -3.819  0.00  0.00     0.030 A 
BRANCH  14  18
HETATM   18  N   UNK N   1      26.893  27.727  -4.483  0.00  0.00    -0.389 N 
HETATM   19  C   UNK N   1      25.799  28.593  -4.117  0.00  0.00     0.149 C 
HETATM   20  C   UNK N   1      28.207  28.313  -4.496  0.00  0.00     0.149 C 
ENDBRANCH  14  18
ENDBRANCH   5   8
ENDBRANCH   3   5
ENDBRANCH   2   3
ENDBRANCH   1   2
BRANCH   1  21
HETATM   21  C   UNK N   1      29.630  23.290  -8.578  0.00  0.00     0.002 C 
BRANCH  21  22
HETATM   22  C   UNK N   1      29.655  24.511  -7.686  0.00  0.00     0.000 C 
BRANCH  22  23
HETATM   23  C   UNK N   1      30.306  24.166  -6.362  0.00  0.00     0.000 C 
BRANCH  23  24
HETATM   24  C   UNK N   1      29.917  25.192  -5.314  0.00  0.00     0.002 C 
BRANCH  24  25
HETATM   25  C   UNK N   1      30.321  24.706  -3.934  0.00  0.00     0.020 C 
BRANCH  25  26
HETATM   26  C   UNK N   1      30.159  23.197  -3.723  0.00  0.00     0.122 C 
BRANCH  26  27
HETATM   27  N   UNK N   1      31.055  22.629  -2.735  0.00  0.00    -0.360 N 
HETATM   28  C   UNK N   1      32.132  21.816  -2.944  0.00  0.00     0.226 C 
HETATM   29  O   UNK N   1      32.662  21.315  -1.962  0.00  0.00    -0.273 OA
HETATM   30  H   UNK N   1      30.863  22.858  -1.797  0.00  0.00     0.162 HD
BRANCH  28  31
HETATM   31  C   UNK N   1      32.711  21.455  -4.317  0.00  0.00     0.042 C 
HETATM   32  C   UNK N   1      31.706  20.875  -5.327  0.00  0.00     0.024 C 
HETATM   33  C   UNK N   1      32.352  20.576  -6.679  0.00  0.00    -0.013 C 
HETATM   34  C   UNK N   1      32.947  21.870  -7.252  0.00  0.00     0.009 C 
HETATM   35  C   UNK N   1      33.463  19.545  -6.460  0.00  0.00     0.009 C 
HETATM   36  C   UNK N   1      33.989  22.437  -6.280  0.00  0.00    -0.013 C 
HETATM   37  C   UNK N   1      33.304  22.740  -4.938  0.00  0.00     0.024 C 
HETATM   38  C   UNK N   1      35.101  21.396  -6.064  0.00  0.00     0.009 C 
HETATM   39  C   UNK N   1      34.509  20.106  -5.480  0.00  0.00    -0.013 C 
HETATM   40  C   UNK N   1      33.844  20.428  -4.131  0.00  0.00     0.024 C 
ENDBRANCH  28  31
ENDBRANCH  26  27
ENDBRANCH  25  26
ENDBRANCH  24  25
ENDBRANCH  23  24
ENDBRANCH  22  23
ENDBRANCH  21  22
ENDBRANCH   1  21
TORSDOF 13
ENDMDL
MODEL 3
REMARK VINA RESULT:      -6.2      1.573      3.297
REMARK  13 active torsions:
REMARK  status: ('A' for Active; 'I' for Inactive)
REMARK    1  A    between atoms: N_2  and  C_4 
REMARK    2  A    between atoms: C_13  and  S_14 
REMARK    3  A    between atoms: S_14  and  N_17 
REMARK    4  A    between atoms: N_17  and  C_18 
REMARK    5  A    between atoms: C_18  and  C_19 
REMARK    6  A    between atoms: C_19  and  C_20 
REMARK    7  A    between atoms: C_20  and  C_21 
REMARK    8  A    between atoms: C_21  and  C_22 
REMARK    9  A    between atoms: C_22  and  C_23 
REMARK   10  A    between atoms: C_23  and  C_24 
REMARK   11  A    between atoms: C_24  and  C_25 
REMARK   12  A    between atoms: C_25  and  N_26 
REMARK       I    between atoms: N_26  and  C_27 
REMARK   13  A    between atoms: C_29  and  C_27 
ROOT
HETATM    1  C   UNK N   1      26.834  22.646  -7.904  0.00  0.00     0.020 C 
ENDROOT
BRANCH   1   2
HETATM    2  C   UNK N   1      26.101  23.127  -9.138  0.00  0.00     0.132 C 
BRANCH   2   3
HETATM    3  N   UNK N   1      25.439  24.388  -8.843  0.00  0.00    -0.315 N 
HETATM    4  H   UNK N   1      24.593  24.480  -8.283  0.00  0.00     0.172 HD
BRANCH   3   5
HETATM    5  S   UNK N   1      26.306  25.747  -9.594  0.00  0.00     0.259 S 
HETATM    6  O   UNK N   1      27.298  25.104 -10.574  0.00  0.00    -0.201 OA
HETATM    7  O   UNK N   1      25.328  26.468 -10.537  0.00  0.00    -0.201 OA
BRANCH   5   8
HETATM    8  C   UNK N   1      27.095  26.878  -8.458  0.00  0.00     0.090 A 
HETATM    9  C   UNK N   1      28.298  27.470  -8.835  0.00  0.00     0.026 A 
HETATM   10  C   UNK N   1      28.932  28.372  -7.988  0.00  0.00     0.003 A 
HETATM   11  C   UNK N   1      28.358  28.694  -6.759  0.00  0.00     0.014 A 
HETATM   12  C   UNK N   1      27.147  28.121  -6.347  0.00  0.00     0.002 A 
HETATM   13  C   UNK N   1      26.508  27.192  -7.216  0.00  0.00    -0.000 A 
HETATM   14  C   UNK N   1      26.540  28.439  -5.089  0.00  0.00     0.040 A 
HETATM   15  C   UNK N   1      25.301  26.598  -6.836  0.00  0.00     0.014 A 
HETATM   16  C   UNK N   1      24.716  26.899  -5.614  0.00  0.00     0.003 A 
HETATM   17  C   UNK N   1      25.329  27.807  -4.756  0.00  0.00     0.030 A 
BRANCH  14  18
HETATM   18  N   UNK N   1      27.103  29.380  -4.148  0.00  0.00    -0.389 N 
HETATM   19  C   UNK N   1      28.021  28.919  -3.135  0.00  0.00     0.149 C 
HETATM   20  C   UNK N   1      26.772  30.780  -4.136  0.00  0.00     0.149 C 
ENDBRANCH  14  18
ENDBRANCH   5   8
ENDBRANCH   3   5
ENDBRANCH   2   3
ENDBRANCH   1   2
BRANCH   1  21
HETATM   21  C   UNK N   1      25.833  22.382  -6.804  0.00  0.00     0.002 C 
BRANCH  21  22
HETATM   22  C   UNK N   1      25.951  23.433  -5.723  0.00  0.00     0.000 C 
BRANCH  22  23
HETATM   23  C   UNK N   1      27.413  23.706  -5.431  0.00  0.00     0.000 C 
BRANCH  23  24
HETATM   24  C   UNK N   1      27.537  24.887  -4.487  0.00  0.00     0.002 C 
BRANCH  24  25
HETATM   25  C   UNK N   1      28.980  25.352  -4.421  0.00  0.00     0.020 C 
BRANCH  25  26
HETATM   26  C   UNK N   1      29.714  25.329  -5.766  0.00  0.00     0.122 C 
BRANCH  26  27
HETATM   27  N   UNK N   1      31.128  25.635  -5.685  0.00  0.00    -0.360 N 
HETATM   28  C   UNK N   1      32.138  24.834  -5.230  0.00  0.00     0.226 C 
HETATM   29  O   UNK N   1      33.243  25.340  -5.095  0.00  0.00    -0.273 OA
HETATM   30  H   UNK N   1      31.395  26.529  -5.996  0.00  0.00     0.162 HD
BRANCH  28  31
HETATM   31  C   UNK N   1      31.987  23.359  -4.845  0.00  0.00     0.042 C 
HETATM   32  C   UNK N   1      31.039  22.536  -5.734  0.00  0.00     0.024 C 
HETATM   33  C   UNK N   1      30.972  21.071  -5.307  0.00  0.00    -0.013 C 
HETATM   34  C   UNK N   1      32.378  20.459  -5.375  0.00  0.00     0.009 C 
HETATM   35  C   UNK N   1      30.449  21.016  -3.868  0.00  0.00     0.009 C 
HETATM   36  C   UNK N   1      33.327  21.237  -4.454  0.00  0.00    -0.013 C 
HETATM   37  C   UNK N   1      33.383  22.699  -4.920  0.00  0.00     0.024 C 
HETATM   38  C   UNK N   1      32.795  21.178  -3.011  0.00  0.00     0.009 C 
HETATM   39  C   UNK N   1      31.394  21.800  -2.940  0.00  0.00    -0.013 C 
HETATM   40  C   UNK N   1      31.476  23.268  -3.394  0.00  0.00     0.024 C 
ENDBRANCH  28  31
ENDBRANCH  26  27
ENDBRANCH  25  26
ENDBRANCH  24  25
ENDBRANCH  23  24
ENDBRANCH  22  23
ENDBRANCH  21  22
ENDBRANCH   1  21
TORSDOF 13
ENDMDL
MODEL 4
REMARK VINA RESULT:      -6.2      2.315      6.278
REMARK  13 active torsions:
REMARK  status: ('A' for Active; 'I' for Inactive)
REMARK    1  A    between atoms: N_2  and  C_4 
REMARK    2  A    between atoms: C_13  and  S_14 
REMARK    3  A    between atoms: S_14  and  N_17 
REMARK    4  A    between atoms: N_17  and  C_18 
REMARK    5  A    between atoms: C_18  and  C_19 
REMARK    6  A    between atoms: C_19  and  C_20 
REMARK    7  A    between atoms: C_20  and  C_21 
REMARK    8  A    between atoms: C_21  and  C_22 
REMARK    9  A    between atoms: C_22  and  C_23 
REMARK   10  A    between atoms: C_23  and  C_24 
REMARK   11  A    between atoms: C_24  and  C_25 
REMARK   12  A    between atoms: C_25  and  N_26 
REMARK       I    between atoms: N_26  and  C_27 
REMARK   13  A    between atoms: C_29  and  C_27 
ROOT
HETATM    1  C   UNK N   1      27.492  24.879 -10.152  0.00  0.00     0.020 C 
ENDROOT
BRANCH   1   2
HETATM    2  C   UNK N   1      26.130  24.218 -10.121  0.00  0.00     0.132 C 
BRANCH   2   3
HETATM    3  N   UNK N   1      26.297  22.779  -9.990  0.00  0.00    -0.315 N 
HETATM    4  H   UNK N   1      26.682  22.172 -10.714  0.00  0.00     0.172 HD
BRANCH   3   5
HETATM    5  S   UNK N   1      25.739  22.220  -8.397  0.00  0.00     0.259 S 
HETATM    6  O   UNK N   1      24.303  22.748  -8.262  0.00  0.00    -0.201 OA
HETATM    7  O   UNK N   1      25.527  20.699  -8.477  0.00  0.00    -0.201 OA
BRANCH   5   8
HETATM    8  C   UNK N   1      26.774  22.679  -7.015  0.00  0.00     0.090 A 
HETATM    9  C   UNK N   1      26.242  23.510  -6.031  0.00  0.00     0.026 A 
HETATM   10  C   UNK N   1      27.009  23.872  -4.929  0.00  0.00     0.003 A 
HETATM   11  C   UNK N   1      28.312  23.395  -4.801  0.00  0.00     0.014 A 
HETATM   12  C   UNK N   1      28.880  22.554  -5.769  0.00  0.00     0.002 A 
HETATM   13  C   UNK N   1      28.093  22.195  -6.899  0.00  0.00    -0.000 A 
HETATM   14  C   UNK N   1      30.217  22.053  -5.656  0.00  0.00     0.040 A 
HETATM   15  C   UNK N   1      28.627  21.362  -7.886  0.00  0.00     0.014 A 
HETATM   16  C   UNK N   1      29.925  20.882  -7.781  0.00  0.00     0.003 A 
HETATM   17  C   UNK N   1      30.706  21.224  -6.681  0.00  0.00     0.030 A 
BRANCH  14  18
HETATM   18  N   UNK N   1      31.087  22.348  -4.541  0.00  0.00    -0.389 N 
HETATM   19  C   UNK N   1      31.056  21.513  -3.365  0.00  0.00     0.149 C 
HETATM   20  C   UNK N   1      31.985  23.472  -4.516  0.00  0.00     0.149 C 
ENDBRANCH  14  18
ENDBRANCH   5   8
ENDBRANCH   3   5
ENDBRANCH   2   3
ENDBRANCH   1   2
BRANCH   1  21
HETATM   21  C   UNK N   1      27.647  25.753  -8.929  0.00  0.00     0.002 C 
BRANCH  21  22
HETATM   22  C   UNK N   1      26.294  26.227  -8.448  0.00  0.00     0.000 C 
BRANCH  22  23
HETATM   23  C   UNK N   1      26.444  26.950  -7.125  0.00  0.00     0.000 C 
BRANCH  23  24
HETATM   24  C   UNK N   1      25.167  26.816  -6.316  0.00  0.00     0.002 C 
BRANCH  24  25
HETATM   25  C   UNK N   1      25.184  27.788  -5.151  0.00  0.00     0.020 C 
BRANCH  25  26
HETATM   26  C   UNK N   1      25.762  27.210  -3.854  0.00  0.00     0.122 C 
BRANCH  26  27
HETATM   27  N   UNK N   1      26.196  28.205  -2.894  0.00  0.00    -0.360 N 
HETATM   28  C   UNK N   1      27.447  28.733  -2.736  0.00  0.00     0.226 C 
HETATM   29  O   UNK N   1      27.640  29.444  -1.761  0.00  0.00    -0.273 OA
HETATM   30  H   UNK N   1      25.505  28.543  -2.281  0.00  0.00     0.162 HD
BRANCH  28  31
HETATM   31  C   UNK N   1      28.636  28.476  -3.669  0.00  0.00     0.042 C 
HETATM   32  C   UNK N   1      28.567  29.177  -5.037  0.00  0.00     0.024 C 
HETATM   33  C   UNK N   1      29.803  28.900  -5.890  0.00  0.00    -0.013 C 
HETATM   34  C   UNK N   1      31.053  29.384  -5.142  0.00  0.00     0.009 C 
HETATM   35  C   UNK N   1      29.891  27.390  -6.128  0.00  0.00     0.009 C 
HETATM   36  C   UNK N   1      31.165  28.658  -3.796  0.00  0.00    -0.013 C 
HETATM   37  C   UNK N   1      29.916  28.970  -2.958  0.00  0.00     0.024 C 
HETATM   38  C   UNK N   1      31.253  27.142  -4.042  0.00  0.00     0.009 C 
HETATM   39  C   UNK N   1      29.998  26.655  -4.780  0.00  0.00    -0.013 C 
HETATM   40  C   UNK N   1      28.762  26.961  -3.917  0.00  0.00     0.024 C 
ENDBRANCH  28  31
ENDBRANCH  26  27
ENDBRANCH  25  26
ENDBRANCH  24  25
ENDBRANCH  23  24
ENDBRANCH  22  23
ENDBRANCH  21  22
ENDBRANCH   1  21
TORSDOF 13
ENDMDL
MODEL 5
REMARK VINA RESULT:      -6.2      2.070      2.783
REMARK  13 active torsions:
REMARK  status: ('A' for Active; 'I' for Inactive)
REMARK    1  A    between atoms: N_2  and  C_4 
REMARK    2  A    between atoms: C_13  and  S_14 
REMARK    3  A    between atoms: S_14  and  N_17 
REMARK    4  A    between atoms: N_17  and  C_18 
REMARK    5  A    between atoms: C_18  and  C_19 
REMARK    6  A    between atoms: C_19  and  C_20 
REMARK    7  A    between atoms: C_20  and  C_21 
REMARK    8  A    between atoms: C_21  and  C_22 
REMARK    9  A    between atoms: C_22  and  C_23 
REMARK   10  A    between atoms: C_23  and  C_24 
REMARK   11  A    between atoms: C_24  and  C_25 
REMARK   12  A    between atoms: C_25  and  N_26 
REMARK       I    between atoms: N_26  and  C_27 
REMARK   13  A    between atoms: C_29  and  C_27 
ROOT
HETATM    1  C   UNK N   1      28.788  20.743  -8.705  0.00  0.00     0.020 C 
ENDROOT
BRANCH   1   2
HETATM    2  C   UNK N   1      27.935  21.794  -8.026  0.00  0.00     0.132 C 
BRANCH   2   3
HETATM    3  N   UNK N   1      26.555  21.339  -7.982  0.00  0.00    -0.315 N 
HETATM    4  H   UNK N   1      26.261  20.406  -7.695  0.00  0.00     0.172 HD
BRANCH   3   5
HETATM    5  S   UNK N   1      25.447  22.632  -8.495  0.00  0.00     0.259 S 
HETATM    6  O   UNK N   1      25.326  22.482 -10.019  0.00  0.00    -0.201 OA
HETATM    7  O   UNK N   1      24.034  22.262  -8.013  0.00  0.00    -0.201 OA
BRANCH   5   8
HETATM    8  C   UNK N   1      25.911  24.284  -8.001  0.00  0.00     0.090 A 
HETATM    9  C   UNK N   1      26.039  25.263  -8.984  0.00  0.00     0.026 A 
HETATM   10  C   UNK N   1      26.378  26.566  -8.637  0.00  0.00     0.003 A 
HETATM   11  C   UNK N   1      26.581  26.900  -7.299  0.00  0.00     0.014 A 
HETATM   12  C   UNK N   1      26.458  25.943  -6.282  0.00  0.00     0.002 A 
HETATM   13  C   UNK N   1      26.119  24.609  -6.645  0.00  0.00    -0.000 A 
HETATM   14  C   UNK N   1      26.661  26.265  -4.901  0.00  0.00     0.040 A 
HETATM   15  C   UNK N   1      25.992  23.628  -5.658  0.00  0.00     0.014 A 
HETATM   16  C   UNK N   1      26.196  23.937  -4.321  0.00  0.00     0.003 A 
HETATM   17  C   UNK N   1      26.527  25.238  -3.951  0.00  0.00     0.030 A 
BRANCH  14  18
HETATM   18  N   UNK N   1      26.992  27.591  -4.432  0.00  0.00    -0.389 N 
HETATM   19  C   UNK N   1      25.942  28.485  -4.007  0.00  0.00     0.149 C 
HETATM   20  C   UNK N   1      28.336  28.103  -4.392  0.00  0.00     0.149 C 
ENDBRANCH  14  18
ENDBRANCH   5   8
ENDBRANCH   3   5
ENDBRANCH   2   3
ENDBRANCH   1   2
BRANCH   1  21
HETATM   21  C   UNK N   1      28.901  19.538  -7.801  0.00  0.00     0.002 C 
BRANCH  21  22
HETATM   22  C   UNK N   1      30.144  18.745  -8.138  0.00  0.00     0.000 C 
BRANCH  22  23
HETATM   23  C   UNK N   1      31.283  19.691  -8.465  0.00  0.00     0.000 C 
BRANCH  23  24
HETATM   24  C   UNK N   1      32.525  18.896  -8.823  0.00  0.00     0.002 C 
BRANCH  24  25
HETATM   25  C   UNK N   1      33.505  18.912  -7.665  0.00  0.00     0.020 C 
BRANCH  25  26
HETATM   26  C   UNK N   1      33.398  20.146  -6.763  0.00  0.00     0.122 C 
BRANCH  26  27
HETATM   27  N   UNK N   1      33.743  19.908  -5.376  0.00  0.00    -0.360 N 
HETATM   28  C   UNK N   1      33.300  20.579  -4.271  0.00  0.00     0.226 C 
HETATM   29  O   UNK N   1      33.836  20.324  -3.202  0.00  0.00    -0.273 OA
HETATM   30  H   UNK N   1      34.373  19.171  -5.208  0.00  0.00     0.162 HD
BRANCH  28  31
HETATM   31  C   UNK N   1      32.205  21.651  -4.271  0.00  0.00     0.042 C 
HETATM   32  C   UNK N   1      32.537  22.936  -5.049  0.00  0.00     0.024 C 
HETATM   33  C   UNK N   1      31.382  23.937  -5.031  0.00  0.00    -0.013 C 
HETATM   34  C   UNK N   1      30.138  23.285  -5.649  0.00  0.00     0.009 C 
HETATM   35  C   UNK N   1      31.102  24.316  -3.574  0.00  0.00     0.009 C 
HETATM   36  C   UNK N   1      29.762  22.028  -4.855  0.00  0.00    -0.013 C 
HETATM   37  C   UNK N   1      30.936  21.038  -4.906  0.00  0.00     0.024 C 
HETATM   38  C   UNK N   1      29.482  22.417  -3.393  0.00  0.00     0.009 C 
HETATM   39  C   UNK N   1      30.729  23.058  -2.770  0.00  0.00    -0.013 C 
HETATM   40  C   UNK N   1      31.887  22.046  -2.816  0.00  0.00     0.024 C 
ENDBRANCH  28  31
ENDBRANCH  26  27
ENDBRANCH  25  26
ENDBRANCH  24  25
ENDBRANCH  23  24
ENDBRANCH  22  23
ENDBRANCH  21  22
ENDBRANCH   1  21
TORSDOF 13
ENDMDL
MODEL 6
REMARK VINA RESULT:      -6.2      2.270      5.675
REMARK  13 active torsions:
REMARK  status: ('A' for Active; 'I' for Inactive)
REMARK    1  A    between atoms: N_2  and  C_4 
REMARK    2  A    between atoms: C_13  and  S_14 
REMARK    3  A    between atoms: S_14  and  N_17 
REMARK    4  A    between atoms: N_17  and  C_18 
REMARK    5  A    between atoms: C_18  and  C_19 
REMARK    6  A    between atoms: C_19  and  C_20 
REMARK    7  A    between atoms: C_20  and  C_21 
REMARK    8  A    between atoms: C_21  and  C_22 
REMARK    9  A    between atoms: C_22  and  C_23 
REMARK   10  A    between atoms: C_23  and  C_24 
REMARK   11  A    between atoms: C_24  and  C_25 
REMARK   12  A    between atoms: C_25  and  N_26 
REMARK       I    between atoms: N_26  and  C_27 
REMARK   13  A    between atoms: C_29  and  C_27 
ROOT
HETATM    1  C   UNK N   1      29.023  29.199  -5.976  0.00  0.00     0.020 C 
ENDROOT
BRANCH   1   2
HETATM    2  C   UNK N   1      28.157  28.694  -4.841  0.00  0.00     0.132 C 
BRANCH   2   3
HETATM    3  N   UNK N   1      26.766  29.013  -5.118  0.00  0.00    -0.315 N 
HETATM    4  H   UNK N   1      26.448  29.863  -5.584  0.00  0.00     0.172 HD
BRANCH   3   5
HETATM    5  S   UNK N   1      25.693  27.721  -4.534  0.00  0.00     0.259 S 
HETATM    6  O   UNK N   1      25.503  27.997  -3.035  0.00  0.00    -0.201 OA
HETATM    7  O   UNK N   1      24.287  27.983  -5.100  0.00  0.00    -0.201 OA
BRANCH   5   8
HETATM    8  C   UNK N   1      26.246  26.055  -4.862  0.00  0.00     0.090 A 
HETATM    9  C   UNK N   1      26.683  25.275  -3.793  0.00  0.00     0.026 A 
HETATM   10  C   UNK N   1      27.102  23.966  -4.005  0.00  0.00     0.003 A 
HETATM   11  C   UNK N   1      27.075  23.426  -5.290  0.00  0.00     0.014 A 
HETATM   12  C   UNK N   1      26.638  24.178  -6.388  0.00  0.00     0.002 A 
HETATM   13  C   UNK N   1      26.220  25.521  -6.166  0.00  0.00    -0.000 A 
HETATM   14  C   UNK N   1      26.601  23.642  -7.716  0.00  0.00     0.040 A 
HETATM   15  C   UNK N   1      25.782  26.302  -7.238  0.00  0.00     0.014 A 
HETATM   16  C   UNK N   1      25.754  25.786  -8.527  0.00  0.00     0.003 A 
HETATM   17  C   UNK N   1      26.159  24.475  -8.759  0.00  0.00     0.030 A 
BRANCH  14  18
HETATM   18  N   UNK N   1      26.990  22.289  -8.040  0.00  0.00    -0.389 N 
HETATM   19  C   UNK N   1      25.989  21.253  -8.114  0.00  0.00     0.149 C 
HETATM   20  C   UNK N   1      28.354  21.891  -8.268  0.00  0.00     0.149 C 
ENDBRANCH  14  18
ENDBRANCH   5   8
ENDBRANCH   3   5
ENDBRANCH   2   3
ENDBRANCH   1   2
BRANCH   1  21
HETATM   21  C   UNK N   1      28.466  28.696  -7.286  0.00  0.00     0.002 C 
BRANCH  21  22
HETATM   22  C   UNK N   1      29.529  27.941  -8.053  0.00  0.00     0.000 C 
BRANCH  22  23
HETATM   23  C   UNK N   1      29.302  26.449  -7.911  0.00  0.00     0.000 C 
BRANCH  23  24
HETATM   24  C   UNK N   1      30.400  25.840  -7.060  0.00  0.00     0.002 C 
BRANCH  24  25
HETATM   25  C   UNK N   1      29.911  25.652  -5.636  0.00  0.00     0.020 C 
BRANCH  25  26
HETATM   26  C   UNK N   1      31.001  25.795  -4.569  0.00  0.00     0.122 C 
BRANCH  26  27
HETATM   27  N   UNK N   1      30.706  25.130  -3.315  0.00  0.00    -0.360 N 
HETATM   28  C   UNK N   1      30.879  23.811  -3.000  0.00  0.00     0.226 C 
HETATM   29  O   UNK N   1      30.417  23.419  -1.938  0.00  0.00    -0.273 OA
HETATM   30  H   UNK N   1      30.336  25.698  -2.602  0.00  0.00     0.162 HD
BRANCH  28  31
HETATM   31  C   UNK N   1      31.579  22.778  -3.888  0.00  0.00     0.042 C 
HETATM   32  C   UNK N   1      32.693  23.330  -4.794  0.00  0.00     0.024 C 
HETATM   33  C   UNK N   1      33.364  22.233  -5.619  0.00  0.00    -0.013 C 
HETATM   34  C   UNK N   1      33.962  21.182  -4.673  0.00  0.00     0.009 C 
HETATM   35  C   UNK N   1      32.298  21.585  -6.508  0.00  0.00     0.009 C 
HETATM   36  C   UNK N   1      32.855  20.584  -3.796  0.00  0.00    -0.013 C 
HETATM   37  C   UNK N   1      32.214  21.709  -2.969  0.00  0.00     0.024 C 
HETATM   38  C   UNK N   1      31.789  19.936  -4.696  0.00  0.00     0.009 C 
HETATM   39  C   UNK N   1      31.182  20.988  -5.634  0.00  0.00    -0.013 C 
HETATM   40  C   UNK N   1      30.531  22.095  -4.787  0.00  0.00     0.024 C 
ENDBRANCH  28  31
ENDBRANCH  26  27
ENDBRANCH  25  26
ENDBRANCH  24  25
ENDBRANCH  23  24
ENDBRANCH  22  23
ENDBRANCH  21  22
ENDBRANCH   1  21
TORSDOF 13
ENDMDL
MODEL 7
REMARK VINA RESULT:      -6.1      2.389      7.126
REMARK  13 active torsions:
REMARK  status: ('A' for Active; 'I' for Inactive)
REMARK    1  A    between atoms: N_2  and  C_4 
REMARK    2  A    between atoms: C_13  and  S_14 
REMARK    3  A    between atoms: S_14  and  N_17 
REMARK    4  A    between atoms: N_17  and  C_18 
REMARK    5  A    between atoms: C_18  and  C_19 
REMARK    6  A    between atoms: C_19  and  C_20 
REMARK    7  A    between atoms: C_20  and  C_21 
REMARK    8  A    between atoms: C_21  and  C_22 
REMARK    9  A    between atoms: C_22  and  C_23 
REMARK   10  A    between atoms: C_23  and  C_24 
REMARK   11  A    between atoms: C_24  and  C_25 
REMARK   12  A    between atoms: C_25  and  N_26 
REMARK       I    between atoms: N_26  and  C_27 
REMARK   13  A    between atoms: C_29  and  C_27 
ROOT
HETATM    1  C   UNK N   1      27.084  28.714  -5.949  0.00  0.00     0.020 C 
ENDROOT
BRANCH   1   2
HETATM    2  C   UNK N   1      28.595  28.641  -6.003  0.00  0.00     0.132 C 
BRANCH   2   3
HETATM    3  N   UNK N   1      29.025  27.295  -5.660  0.00  0.00    -0.315 N 
HETATM    4  H   UNK N   1      28.534  26.443  -5.931  0.00  0.00     0.172 HD
BRANCH   3   5
HETATM    5  S   UNK N   1      30.524  27.334  -4.706  0.00  0.00     0.259 S 
HETATM    6  O   UNK N   1      31.259  28.606  -5.155  0.00  0.00    -0.201 OA
HETATM    7  O   UNK N   1      30.149  27.664  -3.251  0.00  0.00    -0.201 OA
BRANCH   5   8
HETATM    8  C   UNK N   1      31.546  25.873  -4.818  0.00  0.00     0.090 A 
HETATM    9  C   UNK N   1      32.753  25.956  -5.509  0.00  0.00     0.026 A 
HETATM   10  C   UNK N   1      33.587  24.847  -5.601  0.00  0.00     0.003 A 
HETATM   11  C   UNK N   1      33.220  23.648  -4.990  0.00  0.00     0.014 A 
HETATM   12  C   UNK N   1      32.016  23.528  -4.283  0.00  0.00     0.002 A 
HETATM   13  C   UNK N   1      31.163  24.665  -4.201  0.00  0.00    -0.000 A 
HETATM   14  C   UNK N   1      31.621  22.307  -3.648  0.00  0.00     0.040 A 
HETATM   15  C   UNK N   1      29.952  24.582  -3.508  0.00  0.00     0.014 A 
HETATM   16  C   UNK N   1      29.565  23.396  -2.899  0.00  0.00     0.003 A 
HETATM   17  C   UNK N   1      30.389  22.277  -2.970  0.00  0.00     0.030 A 
BRANCH  14  18
HETATM   18  N   UNK N   1      32.423  21.105  -3.662  0.00  0.00    -0.389 N 
HETATM   19  C   UNK N   1      33.456  20.920  -2.672  0.00  0.00     0.149 C 
HETATM   20  C   UNK N   1      32.276  20.068  -4.648  0.00  0.00     0.149 C 
ENDBRANCH  14  18
ENDBRANCH   5   8
ENDBRANCH   3   5
ENDBRANCH   2   3
ENDBRANCH   1   2
BRANCH   1  21
HETATM   21  C   UNK N   1      26.647  28.875  -4.512  0.00  0.00     0.002 C 
BRANCH  21  22
HETATM   22  C   UNK N   1      25.626  27.819  -4.151  0.00  0.00     0.000 C 
BRANCH  22  23
HETATM   23  C   UNK N   1      26.284  26.731  -3.325  0.00  0.00     0.000 C 
BRANCH  23  24
HETATM   24  C   UNK N   1      26.414  25.465  -4.150  0.00  0.00     0.002 C 
BRANCH  24  25
HETATM   25  C   UNK N   1      25.403  25.475  -5.282  0.00  0.00     0.020 C 
BRANCH  25  26
HETATM   26  C   UNK N   1      25.980  25.089  -6.648  0.00  0.00     0.122 C 
BRANCH  26  27
HETATM   27  N   UNK N   1      25.259  24.031  -7.328  0.00  0.00    -0.360 N 
HETATM   28  C   UNK N   1      25.772  22.946  -7.980  0.00  0.00     0.226 C 
HETATM   29  O   UNK N   1      24.997  22.255  -8.625  0.00  0.00    -0.273 OA
HETATM   30  H   UNK N   1      24.277  24.103  -7.318  0.00  0.00     0.162 HD
BRANCH  28  31
HETATM   31  C   UNK N   1      27.251  22.544  -7.993  0.00  0.00     0.042 C 
HETATM   32  C   UNK N   1      28.147  23.346  -8.953  0.00  0.00     0.024 C 
HETATM   33  C   UNK N   1      29.609  22.909  -8.880  0.00  0.00    -0.013 C 
HETATM   34  C   UNK N   1      30.121  23.096  -7.445  0.00  0.00     0.009 C 
HETATM   35  C   UNK N   1      29.686  21.430  -9.271  0.00  0.00     0.009 C 
HETATM   36  C   UNK N   1      29.270  22.263  -6.478  0.00  0.00    -0.013 C 
HETATM   37  C   UNK N   1      27.811  22.737  -6.565  0.00  0.00     0.024 C 
HETATM   38  C   UNK N   1      29.352  20.780  -6.877  0.00  0.00     0.009 C 
HETATM   39  C   UNK N   1      28.830  20.590  -8.308  0.00  0.00    -0.013 C 
HETATM   40  C   UNK N   1      27.364  21.055  -8.369  0.00  0.00     0.024 C 
ENDBRANCH  28  31
ENDBRANCH  26  27
ENDBRANCH  25  26
ENDBRANCH  24  25
ENDBRANCH  23  24
ENDBRANCH  22  23
ENDBRANCH  21  22
ENDBRANCH   1  21
TORSDOF 13
ENDMDL
MODEL 8
REMARK VINA RESULT:      -6.1     16.890     20.780
REMARK  13 active torsions:
REMARK  status: ('A' for Active; 'I' for Inactive)
REMARK    1  A    between atoms: N_2  and  C_4 
REMARK    2  A    between atoms: C_13  and  S_14 
REMARK    3  A    between atoms: S_14  and  N_17 
REMARK    4  A    between atoms: N_17  and  C_18 
REMARK    5  A    between atoms: C_18  and  C_19 
REMARK    6  A    between atoms: C_19  and  C_20 
REMARK    7  A    between atoms: C_20  and  C_21 
REMARK    8  A    between atoms: C_21  and  C_22 
REMARK    9  A    between atoms: C_22  and  C_23 
REMARK   10  A    between atoms: C_23  and  C_24 
REMARK   11  A    between atoms: C_24  and  C_25 
REMARK   12  A    between atoms: C_25  and  N_26 
REMARK       I    between atoms: N_26  and  C_27 
REMARK   13  A    between atoms: C_29  and  C_27 
ROOT
HETATM    1  C   UNK N   1      34.661  13.510   8.264  0.00  0.00     0.020 C 
ENDROOT
BRANCH   1   2
HETATM    2  C   UNK N   1      34.955  14.894   8.800  0.00  0.00     0.132 C 
BRANCH   2   3
HETATM    3  N   UNK N   1      35.009  15.838   7.694  0.00  0.00    -0.315 N 
HETATM    4  H   UNK N   1      35.514  15.679   6.823  0.00  0.00     0.172 HD
BRANCH   3   5
HETATM    5  S   UNK N   1      34.075  17.304   8.068  0.00  0.00     0.259 S 
HETATM    6  O   UNK N   1      34.318  17.570   9.562  0.00  0.00    -0.201 OA
HETATM    7  O   UNK N   1      34.781  18.496   7.400  0.00  0.00    -0.201 OA
BRANCH   5   8
HETATM    8  C   UNK N   1      32.339  17.236   7.655  0.00  0.00     0.090 A 
HETATM    9  C   UNK N   1      31.406  17.270   8.689  0.00  0.00     0.026 A 
HETATM   10  C   UNK N   1      30.045  17.242   8.407  0.00  0.00     0.003 A 
HETATM   11  C   UNK N   1      29.609  17.188   7.084  0.00  0.00     0.014 A 
HETATM   12  C   UNK N   1      30.518  17.156   6.017  0.00  0.00     0.002 A 
HETATM   13  C   UNK N   1      31.910  17.177   6.313  0.00  0.00    -0.000 A 
HETATM   14  C   UNK N   1      30.091  17.103   4.651  0.00  0.00     0.040 A 
HETATM   15  C   UNK N   1      32.845  17.142   5.276  0.00  0.00     0.014 A 
HETATM   16  C   UNK N   1      32.433  17.082   3.952  0.00  0.00     0.003 A 
HETATM   17  C   UNK N   1      31.075  17.062   3.647  0.00  0.00     0.030 A 
BRANCH  14  18
HETATM   18  N   UNK N   1      28.704  17.093   4.249  0.00  0.00    -0.389 N 
HETATM   19  C   UNK N   1      27.972  18.334   4.168  0.00  0.00     0.149 C 
HETATM   20  C   UNK N   1      27.976  15.889   3.948  0.00  0.00     0.149 C 
ENDBRANCH  14  18
ENDBRANCH   5   8
ENDBRANCH   3   5
ENDBRANCH   2   3
ENDBRANCH   1   2
BRANCH   1  21
HETATM   21  C   UNK N   1      35.932  12.916   7.702  0.00  0.00     0.002 C 
BRANCH  21  22
HETATM   22  C   UNK N   1      37.058  13.041   8.704  0.00  0.00     0.000 C 
BRANCH  22  23
HETATM   23  C   UNK N   1      37.219  11.738   9.460  0.00  0.00     0.000 C 
BRANCH  23  24
HETATM   24  C   UNK N   1      36.819  11.932  10.911  0.00  0.00     0.002 C 
BRANCH  24  25
HETATM   25  C   UNK N   1      37.207  13.323  11.377  0.00  0.00     0.020 C 
BRANCH  25  26
HETATM   26  C   UNK N   1      36.156  14.012  12.254  0.00  0.00     0.122 C 
BRANCH  26  27
HETATM   27  N   UNK N   1      36.667  14.530  13.508  0.00  0.00    -0.360 N 
HETATM   28  C   UNK N   1      36.665  13.924  14.733  0.00  0.00     0.226 C 
HETATM   29  O   UNK N   1      37.000  14.598  15.697  0.00  0.00    -0.273 OA
HETATM   30  H   UNK N   1      37.065  15.429  13.472  0.00  0.00     0.162 HD
BRANCH  28  31
HETATM   31  C   UNK N   1      36.245  12.475  14.998  0.00  0.00     0.042 C 
HETATM   32  C   UNK N   1      35.899  12.142  16.460  0.00  0.00     0.024 C 
HETATM   33  C   UNK N   1      35.456  10.691  16.633  0.00  0.00    -0.013 C 
HETATM   34  C   UNK N   1      34.225  10.429  15.755  0.00  0.00     0.009 C 
HETATM   35  C   UNK N   1      36.610   9.784  16.194  0.00  0.00     0.009 C 
HETATM   36  C   UNK N   1      34.566  10.707  14.286  0.00  0.00    -0.013 C 
HETATM   37  C   UNK N   1      34.991  12.176  14.144  0.00  0.00     0.024 C 
HETATM   38  C   UNK N   1      35.725   9.793  13.853  0.00  0.00     0.009 C 
HETATM   39  C   UNK N   1      36.961  10.062  14.722  0.00  0.00    -0.013 C 
HETATM   40  C   UNK N   1      37.380  11.533  14.553  0.00  0.00     0.024 C 
ENDBRANCH  28  31
ENDBRANCH  26  27
ENDBRANCH  25  26
ENDBRANCH  24  25
ENDBRANCH  23  24
ENDBRANCH  22  23
ENDBRANCH  21  22
ENDBRANCH   1  21
TORSDOF 13
ENDMDL
MODEL 9
REMARK VINA RESULT:      -6.0     19.486     24.145
REMARK  13 active torsions:
REMARK  status: ('A' for Active; 'I' for Inactive)
REMARK    1  A    between atoms: N_2  and  C_4 
REMARK    2  A    between atoms: C_13  and  S_14 
REMARK    3  A    between atoms: S_14  and  N_17 
REMARK    4  A    between atoms: N_17  and  C_18 
REMARK    5  A    between atoms: C_18  and  C_19 
REMARK    6  A    between atoms: C_19  and  C_20 
REMARK    7  A    between atoms: C_20  and  C_21 
REMARK    8  A    between atoms: C_21  and  C_22 
REMARK    9  A    between atoms: C_22  and  C_23 
REMARK   10  A    between atoms: C_23  and  C_24 
REMARK   11  A    between atoms: C_24  and  C_25 
REMARK   12  A    between atoms: C_25  and  N_26 
REMARK       I    between atoms: N_26  and  C_27 
REMARK   13  A    between atoms: C_29  and  C_27 
ROOT
HETATM    1  C   UNK N   1      37.523  11.253  11.677  0.00  0.00     0.020 C 
ENDROOT
BRANCH   1   2
HETATM    2  C   UNK N   1      37.429  11.001  13.167  0.00  0.00     0.132 C 
BRANCH   2   3
HETATM    3  N   UNK N   1      37.292  12.271  13.862  0.00  0.00    -0.315 N 
HETATM    4  H   UNK N   1      38.041  12.954  13.972  0.00  0.00     0.172 HD
BRANCH   3   5
HETATM    5  S   UNK N   1      35.643  12.472  14.495  0.00  0.00     0.259 S 
HETATM    6  O   UNK N   1      35.128  13.781  13.878  0.00  0.00    -0.201 OA
HETATM    7  O   UNK N   1      34.748  11.415  13.824  0.00  0.00    -0.201 OA
BRANCH   5   8
HETATM    8  C   UNK N   1      35.492  12.443  16.274  0.00  0.00     0.090 A 
HETATM    9  C   UNK N   1      35.403  13.656  16.955  0.00  0.00     0.026 A 
HETATM   10  C   UNK N   1      35.264  13.676  18.338  0.00  0.00     0.003 A 
HETATM   11  C   UNK N   1      35.202  12.478  19.048  0.00  0.00     0.014 A 
HETATM   12  C   UNK N   1      35.284  11.239  18.398  0.00  0.00     0.002 A 
HETATM   13  C   UNK N   1      35.436  11.226  16.982  0.00  0.00    -0.000 A 
HETATM   14  C   UNK N   1      35.221   9.997  19.109  0.00  0.00     0.040 A 
HETATM   15  C   UNK N   1      35.526  10.010  16.301  0.00  0.00     0.014 A 
HETATM   16  C   UNK N   1      35.473   8.806  16.990  0.00  0.00     0.003 A 
HETATM   17  C   UNK N   1      35.324   8.803  18.374  0.00  0.00     0.030 A 
BRANCH  14  18
HETATM   18  N   UNK N   1      35.054   9.906  20.541  0.00  0.00    -0.389 N 
HETATM   19  C   UNK N   1      36.212   9.800  21.394  0.00  0.00     0.149 C 
HETATM   20  C   UNK N   1      33.768   9.882  21.186  0.00  0.00     0.149 C 
ENDBRANCH  14  18
ENDBRANCH   5   8
ENDBRANCH   3   5
ENDBRANCH   2   3
ENDBRANCH   1   2
BRANCH   1  21
HETATM   21  C   UNK N   1      37.740  12.729  11.437  0.00  0.00     0.002 C 
BRANCH  21  22
HETATM   22  C   UNK N   1      36.738  13.249  10.430  0.00  0.00     0.000 C 
BRANCH  22  23
HETATM   23  C   UNK N   1      37.057  14.691  10.087  0.00  0.00     0.000 C 
BRANCH  23  24
HETATM   24  C   UNK N   1      36.090  15.616  10.801  0.00  0.00     0.002 C 
BRANCH  24  25
HETATM   25  C   UNK N   1      34.695  15.019  10.792  0.00  0.00     0.020 C 
BRANCH  25  26
HETATM   26  C   UNK N   1      33.668  15.824   9.989  0.00  0.00     0.122 C 
BRANCH  26  27
HETATM   27  N   UNK N   1      34.154  17.098   9.497  0.00  0.00    -0.360 N 
HETATM   28  C   UNK N   1      34.053  17.607   8.233  0.00  0.00     0.226 C 
HETATM   29  O   UNK N   1      34.671  18.633   7.986  0.00  0.00    -0.273 OA
HETATM   30  H   UNK N   1      34.612  17.668  10.156  0.00  0.00     0.162 HD
BRANCH  28  31
HETATM   31  C   UNK N   1      33.252  16.974   7.090  0.00  0.00     0.042 C 
HETATM   32  C   UNK N   1      33.387  15.448   6.952  0.00  0.00     0.024 C 
HETATM   33  C   UNK N   1      32.531  14.893   5.815  0.00  0.00    -0.013 C 
HETATM   34  C   UNK N   1      31.059  15.244   6.072  0.00  0.00     0.009 C 
HETATM   35  C   UNK N   1      32.999  15.537   4.507  0.00  0.00     0.009 C 
HETATM   36  C   UNK N   1      30.897  16.766   6.163  0.00  0.00    -0.013 C 
HETATM   37  C   UNK N   1      31.757  17.289   7.323  0.00  0.00     0.024 C 
HETATM   38  C   UNK N   1      31.369  17.406   4.845  0.00  0.00     0.009 C 
HETATM   39  C   UNK N   1      32.844  17.065   4.593  0.00  0.00    -0.013 C 
HETATM   40  C   UNK N   1      33.688  17.612   5.757  0.00  0.00     0.024 C 
ENDBRANCH  28  31
ENDBRANCH  26  27
ENDBRANCH  25  26
ENDBRANCH  24  25
ENDBRANCH  23  24
ENDBRANCH  22  23
ENDBRANCH  21  22
ENDBRANCH   1  21
TORSDOF 13
ENDMDL
