MODEL 1
REMARK VINA RESULT:      -8.4      0.000      0.000
REMARK  8 active torsions:
REMARK  status: ('A' for Active; 'I' for Inactive)
REMARK    1  A    between atoms: C_5  and  N_8 
REMARK    2  A    between atoms: C_11  and  C_37 
REMARK    3  A    between atoms: C_13  and  N_14 
REMARK       I    between atoms: N_14  and  C_15 
REMARK       I    between atoms: C_15  and  N_17 
REMARK    4  A    between atoms: N_17  and  C_18 
REMARK    5  A    between atoms: C_21  and  O_22 
REMARK    6  A    between atoms: O_22  and  C_23 
REMARK    7  A    between atoms: C_23  and  C_24 
REMARK    8  A    between atoms: C_24  and  N_25 
ROOT
HETATM    1  N   UNK N   1      33.737  15.944   9.682  0.00  0.00    -0.293 N 
HETATM    2  C   UNK N   1      34.216  17.202   9.491  0.00  0.00     0.326 C 
HETATM    3  O   UNK N   1      35.359  17.496   9.804  0.00  0.00    -0.247 OA
HETATM    4  N   UNK N   1      33.446  18.121   8.866  0.00  0.00    -0.308 N 
HETATM    5  H   UNK N   1      32.774  15.794   9.541  0.00  0.00     0.172 HD
HETATM    6  H   UNK N   1      33.712  19.067   8.914  0.00  0.00     0.170 HD
ENDROOT
BRANCH   1   7
HETATM    7  C   UNK N   1      34.524  14.836  10.066  0.00  0.00     0.133 A 
HETATM    8  C   UNK N   1      34.697  14.509  11.385  0.00  0.00     0.077 A 
HETATM    9  C   UNK N   1      35.329  13.287  11.341  0.00  0.00     0.037 A 
HETATM   10  N   UNK N   1      35.533  12.917  10.055  0.00  0.00    -0.295 N 
HETATM   11  N   UNK N   1      35.045  13.872   9.272  0.00  0.00    -0.240 N 
ATOM     12  HN  UNK N   1      35.983  12.057   9.743  1.00  0.00     0.187 HD
BRANCH   9  13
HETATM   13  C   UNK N   1      35.658  12.467  12.558  0.00  0.00    -0.007 C 
HETATM   14  C   UNK N   1      34.659  11.335  12.705  0.00  0.00     0.021 C 
HETATM   15  C   UNK N   1      37.047  11.872  12.395  0.00  0.00     0.021 C 
HETATM   16  C   UNK N   1      35.639  13.308  13.818  0.00  0.00     0.021 C 
ENDBRANCH   9  13
BRANCH  11  17
HETATM   17  C   UNK N   1      35.090  13.800   7.831  0.00  0.00     0.058 A 
HETATM   18  C   UNK N   1      33.970  13.347   7.118  0.00  0.00     0.032 A 
HETATM   19  C   UNK N   1      33.985  13.317   5.719  0.00  0.00     0.009 A 
HETATM   20  C   UNK N   1      35.125  13.726   5.021  0.00  0.00    -0.062 A 
HETATM   21  C   UNK N   1      35.131  13.720   3.536  0.00  0.00     0.048 C 
HETATM   22  C   UNK N   1      36.257  14.145   5.722  0.00  0.00     0.009 A 
HETATM   23  C   UNK N   1      36.242  14.177   7.117  0.00  0.00     0.032 A 
ENDBRANCH  11  17
ENDBRANCH   1   7
BRANCH   4  24
HETATM   24  C   UNK N   1      32.269  17.781   8.141  0.00  0.00     0.047 A 
HETATM   25  C   UNK N   1      31.047  17.847   8.801  0.00  0.00     0.033 A 
HETATM   26  C   UNK N   1      29.863  17.566   8.130  0.00  0.00     0.040 A 
HETATM   27  C   UNK N   1      29.860  17.243   6.772  0.00  0.00     0.080 A 
HETATM   28  C   UNK N   1      31.092  17.145   6.076  0.00  0.00     0.010 A 
HETATM   29  C   UNK N   1      32.302  17.424   6.759  0.00  0.00     0.004 A 
HETATM   30  C   UNK N   1      31.138  16.778   4.719  0.00  0.00     0.015 A 
HETATM   31  C   UNK N   1      33.511  17.372   6.042  0.00  0.00     0.014 A 
HETATM   32  C   UNK N   1      33.539  17.002   4.698  0.00  0.00     0.001 A 
HETATM   33  C   UNK N   1      32.353  16.695   4.039  0.00  0.00     0.001 A 
BRANCH  27  34
HETATM   34  O   UNK N   1      28.653  17.085   6.174  0.00  0.00    -0.349 OA
BRANCH  34  35
HETATM   35  C   UNK N   1      27.616  17.990   6.270  0.00  0.00     0.206 C 
BRANCH  35  36
HETATM   36  C   UNK N   1      27.771  19.133   5.243  0.00  0.00     0.299 C 
BRANCH  36  37
HETATM   37  N   UNK N   1      26.503  19.669   4.722  0.00  0.00     0.094 N 
HETATM   38  C   UNK N   1      26.672  20.230   3.372  0.00  0.00     0.298 C 
HETATM   39  C   UNK N   1      25.322  20.478   2.680  0.00  0.00     0.198 C 
HETATM   40  O   UNK N   1      24.261  20.346   3.591  0.00  0.00    -0.388 OA
HETATM   41  C   UNK N   1      24.238  18.988   3.936  0.00  0.00     0.198 C 
HETATM   42  C   UNK N   1      25.448  18.649   4.816  0.00  0.00     0.298 C 
ENDBRANCH  36  37
ENDBRANCH  35  36
ENDBRANCH  34  35
ENDBRANCH  27  34
ENDBRANCH   4  24
TORSDOF 8
ENDMDL
MODEL 2
REMARK VINA RESULT:      -8.2      1.651      2.066
REMARK  8 active torsions:
REMARK  status: ('A' for Active; 'I' for Inactive)
REMARK    1  A    between atoms: C_5  and  N_8 
REMARK    2  A    between atoms: C_11  and  C_37 
REMARK    3  A    between atoms: C_13  and  N_14 
REMARK       I    between atoms: N_14  and  C_15 
REMARK       I    between atoms: C_15  and  N_17 
REMARK    4  A    between atoms: N_17  and  C_18 
REMARK    5  A    between atoms: C_21  and  O_22 
REMARK    6  A    between atoms: O_22  and  C_23 
REMARK    7  A    between atoms: C_23  and  C_24 
REMARK    8  A    between atoms: C_24  and  N_25 
ROOT
HETATM    1  N   UNK N   1      34.309  15.612  10.451  0.00  0.00    -0.293 N 
HETATM    2  C   UNK N   1      34.831  16.824  10.124  0.00  0.00     0.326 C 
HETATM    3  O   UNK N   1      35.912  17.184  10.562  0.00  0.00    -0.247 OA
HETATM    4  N   UNK N   1      34.186  17.608   9.231  0.00  0.00    -0.308 N 
HETATM    5  H   UNK N   1      33.379  15.427  10.184  0.00  0.00     0.172 HD
HETATM    6  H   UNK N   1      34.454  18.552   9.155  0.00  0.00     0.170 HD
ENDROOT
BRANCH   1   7
HETATM    7  C   UNK N   1      35.006  14.600  11.146  0.00  0.00     0.133 A 
HETATM    8  C   UNK N   1      35.312  14.730  12.475  0.00  0.00     0.077 A 
HETATM    9  C   UNK N   1      35.787  13.487  12.827  0.00  0.00     0.037 A 
HETATM   10  N   UNK N   1      35.777  12.666  11.751  0.00  0.00    -0.295 N 
HETATM   11  N   UNK N   1      35.303  13.351  10.718  0.00  0.00    -0.240 N 
ATOM     12  HN  UNK N   1      36.079  11.692  11.737  1.00  0.00     0.187 HD
BRANCH   9  13
HETATM   13  C   UNK N   1      36.177  13.102  14.227  0.00  0.00    -0.007 C 
HETATM   14  C   UNK N   1      34.954  12.636  14.996  0.00  0.00     0.021 C 
HETATM   15  C   UNK N   1      37.178  11.960  14.168  0.00  0.00     0.021 C 
HETATM   16  C   UNK N   1      36.812  14.261  14.967  0.00  0.00     0.021 C 
ENDBRANCH   9  13
BRANCH  11  17
HETATM   17  C   UNK N   1      35.149  12.776   9.402  0.00  0.00     0.058 A 
HETATM   18  C   UNK N   1      33.866  12.539   8.889  0.00  0.00     0.032 A 
HETATM   19  C   UNK N   1      33.703  12.025   7.597  0.00  0.00     0.009 A 
HETATM   20  C   UNK N   1      34.823  11.731   6.814  0.00  0.00    -0.062 A 
HETATM   21  C   UNK N   1      34.649  11.211   5.433  0.00  0.00     0.048 C 
HETATM   22  C   UNK N   1      36.104  11.929   7.329  0.00  0.00     0.009 A 
HETATM   23  C   UNK N   1      36.267  12.444   8.616  0.00  0.00     0.032 A 
ENDBRANCH  11  17
ENDBRANCH   1   7
BRANCH   4  24
HETATM   24  C   UNK N   1      33.138  17.130   8.395  0.00  0.00     0.047 A 
HETATM   25  C   UNK N   1      31.831  17.485   8.709  0.00  0.00     0.033 A 
HETATM   26  C   UNK N   1      30.774  17.081   7.904  0.00  0.00     0.040 A 
HETATM   27  C   UNK N   1      30.992  16.338   6.742  0.00  0.00     0.080 A 
HETATM   28  C   UNK N   1      32.310  15.940   6.407  0.00  0.00     0.010 A 
HETATM   29  C   UNK N   1      33.391  16.345   7.230  0.00  0.00     0.004 A 
HETATM   30  C   UNK N   1      32.570  15.152   5.270  0.00  0.00     0.015 A 
HETATM   31  C   UNK N   1      34.699  15.985   6.856  0.00  0.00     0.014 A 
HETATM   32  C   UNK N   1      34.938  15.200   5.729  0.00  0.00     0.001 A 
HETATM   33  C   UNK N   1      33.872  14.775   4.941  0.00  0.00     0.001 A 
BRANCH  27  34
HETATM   34  O   UNK N   1      29.914  16.074   5.962  0.00  0.00    -0.349 OA
BRANCH  34  35
HETATM   35  C   UNK N   1      28.766  16.840   5.942  0.00  0.00     0.206 C 
BRANCH  35  36
HETATM   36  C   UNK N   1      28.758  17.810   4.739  0.00  0.00     0.299 C 
BRANCH  36  37
HETATM   37  N   UNK N   1      28.185  19.135   5.021  0.00  0.00     0.094 N 
HETATM   38  C   UNK N   1      26.959  19.367   4.241  0.00  0.00     0.298 C 
HETATM   39  C   UNK N   1      26.167  20.577   4.761  0.00  0.00     0.198 C 
HETATM   40  O   UNK N   1      26.926  21.311   5.687  0.00  0.00    -0.388 OA
HETATM   41  C   UNK N   1      27.063  20.472   6.801  0.00  0.00     0.198 C 
HETATM   42  C   UNK N   1      28.011  19.312   6.470  0.00  0.00     0.298 C 
ENDBRANCH  36  37
ENDBRANCH  35  36
ENDBRANCH  34  35
ENDBRANCH  27  34
ENDBRANCH   4  24
TORSDOF 8
ENDMDL
MODEL 3
REMARK VINA RESULT:      -8.0      1.694      2.081
REMARK  8 active torsions:
REMARK  status: ('A' for Active; 'I' for Inactive)
REMARK    1  A    between atoms: C_5  and  N_8 
REMARK    2  A    between atoms: C_11  and  C_37 
REMARK    3  A    between atoms: C_13  and  N_14 
REMARK       I    between atoms: N_14  and  C_15 
REMARK       I    between atoms: C_15  and  N_17 
REMARK    4  A    between atoms: N_17  and  C_18 
REMARK    5  A    between atoms: C_21  and  O_22 
REMARK    6  A    between atoms: O_22  and  C_23 
REMARK    7  A    between atoms: C_23  and  C_24 
REMARK    8  A    between atoms: C_24  and  N_25 
ROOT
HETATM    1  N   UNK N   1      33.799  15.944   9.842  0.00  0.00    -0.293 N 
HETATM    2  C   UNK N   1      34.320  17.176   9.601  0.00  0.00     0.326 C 
HETATM    3  O   UNK N   1      35.461  17.454   9.934  0.00  0.00    -0.247 OA
HETATM    4  N   UNK N   1      33.597  18.080   8.902  0.00  0.00    -0.308 N 
HETATM    5  H   UNK N   1      32.837  15.814   9.679  0.00  0.00     0.172 HD
HETATM    6  H   UNK N   1      33.889  19.020   8.908  0.00  0.00     0.170 HD
ENDROOT
BRANCH   1   7
HETATM    7  C   UNK N   1      34.540  14.837  10.311  0.00  0.00     0.133 A 
HETATM    8  C   UNK N   1      34.881  14.717  11.632  0.00  0.00     0.077 A 
HETATM    9  C   UNK N   1      35.396  13.444  11.725  0.00  0.00     0.037 A 
HETATM   10  N   UNK N   1      35.375  12.846  10.511  0.00  0.00    -0.295 N 
HETATM   11  N   UNK N   1      34.855  13.704   9.641  0.00  0.00    -0.240 N 
ATOM     12  HN  UNK N   1      35.700  11.903  10.300  1.00  0.00     0.187 HD
BRANCH   9  13
HETATM   13  C   UNK N   1      35.835  12.806  13.014  0.00  0.00    -0.007 C 
HETATM   14  C   UNK N   1      34.693  12.004  13.610  0.00  0.00     0.021 C 
HETATM   15  C   UNK N   1      36.996  11.866  12.734  0.00  0.00     0.021 C 
HETATM   16  C   UNK N   1      36.288  13.843  14.022  0.00  0.00     0.021 C 
ENDBRANCH   9  13
BRANCH  11  17
HETATM   17  C   UNK N   1      34.678  13.391   8.243  0.00  0.00     0.058 A 
HETATM   18  C   UNK N   1      33.401  13.077   7.753  0.00  0.00     0.032 A 
HETATM   19  C   UNK N   1      33.209  12.817   6.392  0.00  0.00     0.009 A 
HETATM   20  C   UNK N   1      34.294  12.853   5.511  0.00  0.00    -0.062 A 
HETATM   21  C   UNK N   1      34.084  12.603   4.061  0.00  0.00     0.048 C 
HETATM   22  C   UNK N   1      35.574  13.128   5.994  0.00  0.00     0.009 A 
HETATM   23  C   UNK N   1      35.766  13.390   7.352  0.00  0.00     0.032 A 
ENDBRANCH  11  17
ENDBRANCH   1   7
BRANCH   4  24
HETATM   24  C   UNK N   1      32.434  17.734   8.158  0.00  0.00     0.047 A 
HETATM   25  C   UNK N   1      31.190  17.987   8.725  0.00  0.00     0.033 A 
HETATM   26  C   UNK N   1      30.023  17.708   8.026  0.00  0.00     0.040 A 
HETATM   27  C   UNK N   1      30.061  17.198   6.728  0.00  0.00     0.080 A 
HETATM   28  C   UNK N   1      31.314  16.907   6.130  0.00  0.00     0.010 A 
HETATM   29  C   UNK N   1      32.507  17.185   6.843  0.00  0.00     0.004 A 
HETATM   30  C   UNK N   1      31.397  16.350   4.841  0.00  0.00     0.015 A 
HETATM   31  C   UNK N   1      33.743  16.939   6.216  0.00  0.00     0.014 A 
HETATM   32  C   UNK N   1      33.807  16.382   4.940  0.00  0.00     0.001 A 
HETATM   33  C   UNK N   1      32.634  16.078   4.255  0.00  0.00     0.001 A 
BRANCH  27  34
HETATM   34  O   UNK N   1      28.877  17.051   6.082  0.00  0.00    -0.349 OA
BRANCH  34  35
HETATM   35  C   UNK N   1      28.151  18.097   5.548  0.00  0.00     0.206 C 
BRANCH  35  36
HETATM   36  C   UNK N   1      27.935  17.913   4.030  0.00  0.00     0.299 C 
BRANCH  36  37
HETATM   37  N   UNK N   1      27.460  16.579   3.632  0.00  0.00     0.094 N 
HETATM   38  C   UNK N   1      26.114  16.644   3.039  0.00  0.00     0.298 C 
HETATM   39  C   UNK N   1      25.742  15.340   2.316  0.00  0.00     0.198 C 
HETATM   40  O   UNK N   1      26.667  14.324   2.607  0.00  0.00    -0.388 OA
HETATM   41  C   UNK N   1      27.866  14.733   2.008  0.00  0.00     0.198 C 
HETATM   42  C   UNK N   1      28.457  15.922   2.775  0.00  0.00     0.298 C 
ENDBRANCH  36  37
ENDBRANCH  35  36
ENDBRANCH  34  35
ENDBRANCH  27  34
ENDBRANCH   4  24
TORSDOF 8
ENDMDL
MODEL 4
REMARK VINA RESULT:      -7.9      1.146      2.276
REMARK  8 active torsions:
REMARK  status: ('A' for Active; 'I' for Inactive)
REMARK    1  A    between atoms: C_5  and  N_8 
REMARK    2  A    between atoms: C_11  and  C_37 
REMARK    3  A    between atoms: C_13  and  N_14 
REMARK       I    between atoms: N_14  and  C_15 
REMARK       I    between atoms: C_15  and  N_17 
REMARK    4  A    between atoms: N_17  and  C_18 
REMARK    5  A    between atoms: C_21  and  O_22 
REMARK    6  A    between atoms: O_22  and  C_23 
REMARK    7  A    between atoms: C_23  and  C_24 
REMARK    8  A    between atoms: C_24  and  N_25 
ROOT
HETATM    1  N   UNK N   1      33.728  16.145   9.311  0.00  0.00    -0.293 N 
HETATM    2  C   UNK N   1      34.069  17.419   8.980  0.00  0.00     0.326 C 
HETATM    3  O   UNK N   1      35.162  17.877   9.273  0.00  0.00    -0.247 OA
HETATM    4  N   UNK N   1      33.219  18.165   8.239  0.00  0.00    -0.308 N 
HETATM    5  H   UNK N   1      32.793  15.871   9.174  0.00  0.00     0.172 HD
HETATM    6  H   UNK N   1      33.375  19.135   8.178  0.00  0.00     0.170 HD
ENDROOT
BRANCH   1   7
HETATM    7  C   UNK N   1      34.623  15.187   9.836  0.00  0.00     0.133 A 
HETATM    8  C   UNK N   1      34.791  15.036  11.186  0.00  0.00     0.077 A 
HETATM    9  C   UNK N   1      35.558  13.898  11.298  0.00  0.00     0.037 A 
HETATM   10  N   UNK N   1      35.841  13.409  10.067  0.00  0.00    -0.295 N 
HETATM   11  N   UNK N   1      35.272  14.204   9.170  0.00  0.00    -0.240 N 
ATOM     12  HN  UNK N   1      36.394  12.576   9.866  1.00  0.00     0.187 HD
BRANCH   9  13
HETATM   13  C   UNK N   1      35.940  13.266  12.607  0.00  0.00    -0.007 C 
HETATM   14  C   UNK N   1      34.816  12.376  13.101  0.00  0.00     0.021 C 
HETATM   15  C   UNK N   1      37.183  12.414  12.404  0.00  0.00     0.021 C 
HETATM   16  C   UNK N   1      36.241  14.311  13.662  0.00  0.00     0.021 C 
ENDBRANCH   9  13
BRANCH  11  17
HETATM   17  C   UNK N   1      35.369  13.974   7.748  0.00  0.00     0.058 A 
HETATM   18  C   UNK N   1      34.259  13.486   7.042  0.00  0.00     0.032 A 
HETATM   19  C   UNK N   1      34.325  13.303   5.657  0.00  0.00     0.009 A 
HETATM   20  C   UNK N   1      35.506  13.591   4.966  0.00  0.00    -0.062 A 
HETATM   21  C   UNK N   1      35.567  13.421   3.492  0.00  0.00     0.048 C 
HETATM   22  C   UNK N   1      36.627  14.042   5.664  0.00  0.00     0.009 A 
HETATM   23  C   UNK N   1      36.561  14.228   7.046  0.00  0.00     0.032 A 
ENDBRANCH  11  17
ENDBRANCH   1   7
BRANCH   4  24
HETATM   24  C   UNK N   1      32.109  17.611   7.540  0.00  0.00     0.047 A 
HETATM   25  C   UNK N   1      32.355  16.898   6.372  0.00  0.00     0.033 A 
HETATM   26  C   UNK N   1      31.314  16.301   5.673  0.00  0.00     0.040 A 
HETATM   27  C   UNK N   1      29.999  16.369   6.137  0.00  0.00     0.080 A 
HETATM   28  C   UNK N   1      29.711  17.108   7.312  0.00  0.00     0.010 A 
HETATM   29  C   UNK N   1      30.771  17.724   8.024  0.00  0.00     0.004 A 
HETATM   30  C   UNK N   1      28.395  17.240   7.790  0.00  0.00     0.015 A 
HETATM   31  C   UNK N   1      30.476  18.410   9.217  0.00  0.00     0.014 A 
HETATM   32  C   UNK N   1      29.164  18.535   9.673  0.00  0.00     0.001 A 
HETATM   33  C   UNK N   1      28.122  17.959   8.954  0.00  0.00     0.001 A 
BRANCH  27  34
HETATM   34  O   UNK N   1      29.061  15.672   5.448  0.00  0.00    -0.349 OA
BRANCH  34  35
HETATM   35  C   UNK N   1      28.498  16.094   4.261  0.00  0.00     0.206 C 
BRANCH  35  36
HETATM   36  C   UNK N   1      26.973  16.296   4.402  0.00  0.00     0.299 C 
BRANCH  36  37
HETATM   37  N   UNK N   1      26.545  17.700   4.500  0.00  0.00     0.094 N 
HETATM   38  C   UNK N   1      27.650  18.622   4.189  0.00  0.00     0.298 C 
HETATM   39  C   UNK N   1      27.152  20.056   3.952  0.00  0.00     0.198 C 
HETATM   40  O   UNK N   1      25.807  20.188   4.332  0.00  0.00    -0.388 OA
HETATM   41  C   UNK N   1      25.086  19.408   3.418  0.00  0.00     0.198 C 
HETATM   42  C   UNK N   1      25.340  17.919   3.685  0.00  0.00     0.298 C 
ENDBRANCH  36  37
ENDBRANCH  35  36
ENDBRANCH  34  35
ENDBRANCH  27  34
ENDBRANCH   4  24
TORSDOF 8
ENDMDL
MODEL 5
REMARK VINA RESULT:      -7.6     14.038     17.700
REMARK  8 active torsions:
REMARK  status: ('A' for Active; 'I' for Inactive)
REMARK    1  A    between atoms: C_5  and  N_8 
REMARK    2  A    between atoms: C_11  and  C_37 
REMARK    3  A    between atoms: C_13  and  N_14 
REMARK       I    between atoms: N_14  and  C_15 
REMARK       I    between atoms: C_15  and  N_17 
REMARK    4  A    between atoms: N_17  and  C_18 
REMARK    5  A    between atoms: C_21  and  O_22 
REMARK    6  A    between atoms: O_22  and  C_23 
REMARK    7  A    between atoms: C_23  and  C_24 
REMARK    8  A    between atoms: C_24  and  N_25 
ROOT
HETATM    1  N   UNK N   1      27.481  22.250  -8.305  0.00  0.00    -0.293 N 
HETATM    2  C   UNK N   1      26.176  22.021  -8.000  0.00  0.00     0.326 C 
HETATM    3  O   UNK N   1      25.736  20.885  -7.922  0.00  0.00    -0.247 OA
HETATM    4  N   UNK N   1      25.371  23.063  -7.690  0.00  0.00    -0.308 N 
HETATM    5  H   UNK N   1      27.752  23.179  -8.489  0.00  0.00     0.172 HD
HETATM    6  H   UNK N   1      24.398  22.915  -7.672  0.00  0.00     0.170 HD
ENDROOT
BRANCH   1   7
HETATM    7  C   UNK N   1      28.475  21.250  -8.377  0.00  0.00     0.133 A 
HETATM    8  C   UNK N   1      28.655  20.507  -9.513  0.00  0.00     0.077 A 
HETATM    9  C   UNK N   1      29.818  19.811  -9.271  0.00  0.00     0.037 A 
HETATM   10  N   UNK N   1      30.293  20.118  -8.041  0.00  0.00    -0.295 N 
HETATM   11  N   UNK N   1      29.465  20.997  -7.490  0.00  0.00    -0.240 N 
ATOM     12  HN  UNK N   1      31.138  19.741  -7.613  1.00  0.00     0.187 HD
BRANCH   9  13
HETATM   13  C   UNK N   1      30.484  18.911 -10.274  0.00  0.00    -0.007 C 
HETATM   14  C   UNK N   1      29.578  18.712 -11.474  0.00  0.00     0.021 C 
HETATM   15  C   UNK N   1      31.777  19.559 -10.742  0.00  0.00     0.021 C 
HETATM   16  C   UNK N   1      30.813  17.558  -9.676  0.00  0.00     0.021 C 
ENDBRANCH   9  13
BRANCH  11  17
HETATM   17  C   UNK N   1      29.672  21.548  -6.172  0.00  0.00     0.058 A 
HETATM   18  C   UNK N   1      30.185  20.736  -5.149  0.00  0.00     0.032 A 
HETATM   19  C   UNK N   1      30.435  21.269  -3.879  0.00  0.00     0.009 A 
HETATM   20  C   UNK N   1      30.160  22.615  -3.617  0.00  0.00    -0.062 A 
HETATM   21  C   UNK N   1      30.450  23.187  -2.277  0.00  0.00     0.048 C 
HETATM   22  C   UNK N   1      29.615  23.421  -4.617  0.00  0.00     0.009 A 
HETATM   23  C   UNK N   1      29.369  22.890  -5.885  0.00  0.00     0.032 A 
ENDBRANCH  11  17
ENDBRANCH   1   7
BRANCH   4  24
HETATM   24  C   UNK N   1      25.868  24.363  -7.388  0.00  0.00     0.047 A 
HETATM   25  C   UNK N   1      26.020  25.268  -8.432  0.00  0.00     0.033 A 
HETATM   26  C   UNK N   1      26.461  26.562  -8.189  0.00  0.00     0.040 A 
HETATM   27  C   UNK N   1      26.732  27.003  -6.893  0.00  0.00     0.080 A 
HETATM   28  C   UNK N   1      26.609  26.097  -5.809  0.00  0.00     0.010 A 
HETATM   29  C   UNK N   1      26.166  24.773  -6.054  0.00  0.00     0.004 A 
HETATM   30  C   UNK N   1      26.915  26.486  -4.492  0.00  0.00     0.015 A 
HETATM   31  C   UNK N   1      25.999  23.902  -4.962  0.00  0.00     0.014 A 
HETATM   32  C   UNK N   1      26.313  24.302  -3.664  0.00  0.00     0.001 A 
HETATM   33  C   UNK N   1      26.781  25.592  -3.430  0.00  0.00     0.001 A 
BRANCH  27  34
HETATM   34  O   UNK N   1      27.059  28.310  -6.736  0.00  0.00    -0.349 OA
BRANCH  34  35
HETATM   35  C   UNK N   1      28.327  28.820  -6.927  0.00  0.00     0.206 C 
BRANCH  35  36
HETATM   36  C   UNK N   1      28.616  29.986  -5.955  0.00  0.00     0.299 C 
BRANCH  36  37
HETATM   37  N   UNK N   1      28.136  29.774  -4.581  0.00  0.00     0.094 N 
HETATM   38  C   UNK N   1      29.246  29.449  -3.669  0.00  0.00     0.298 C 
HETATM   39  C   UNK N   1      28.829  29.561  -2.195  0.00  0.00     0.198 C 
HETATM   40  O   UNK N   1      27.436  29.701  -2.077  0.00  0.00    -0.388 OA
HETATM   41  C   UNK N   1      27.143  30.957  -2.624  0.00  0.00     0.198 C 
HETATM   42  C   UNK N   1      27.326  30.922  -4.146  0.00  0.00     0.298 C 
ENDBRANCH  36  37
ENDBRANCH  35  36
ENDBRANCH  34  35
ENDBRANCH  27  34
ENDBRANCH   4  24
TORSDOF 8
ENDMDL
MODEL 6
REMARK VINA RESULT:      -7.4      2.351      3.316
REMARK  8 active torsions:
REMARK  status: ('A' for Active; 'I' for Inactive)
REMARK    1  A    between atoms: C_5  and  N_8 
REMARK    2  A    between atoms: C_11  and  C_37 
REMARK    3  A    between atoms: C_13  and  N_14 
REMARK       I    between atoms: N_14  and  C_15 
REMARK       I    between atoms: C_15  and  N_17 
REMARK    4  A    between atoms: N_17  and  C_18 
REMARK    5  A    between atoms: C_21  and  O_22 
REMARK    6  A    between atoms: O_22  and  C_23 
REMARK    7  A    between atoms: C_23  and  C_24 
REMARK    8  A    between atoms: C_24  and  N_25 
ROOT
HETATM    1  N   UNK N   1      34.459  15.870   9.472  0.00  0.00    -0.293 N 
HETATM    2  C   UNK N   1      34.770  17.193   9.517  0.00  0.00     0.326 C 
HETATM    3  O   UNK N   1      35.643  17.610  10.261  0.00  0.00    -0.247 OA
HETATM    4  N   UNK N   1      34.165  18.049   8.664  0.00  0.00    -0.308 N 
HETATM    5  H   UNK N   1      33.660  15.605   8.960  0.00  0.00     0.172 HD
HETATM    6  H   UNK N   1      34.239  19.015   8.837  0.00  0.00     0.170 HD
ENDROOT
BRANCH   1   7
HETATM    7  C   UNK N   1      35.201  14.850  10.105  0.00  0.00     0.133 A 
HETATM    8  C   UNK N   1      35.096  14.625  11.452  0.00  0.00     0.077 A 
HETATM    9  C   UNK N   1      35.788  13.451  11.646  0.00  0.00     0.037 A 
HETATM   10  N   UNK N   1      36.292  13.012  10.468  0.00  0.00    -0.295 N 
HETATM   11  N   UNK N   1      35.936  13.874   9.524  0.00  0.00    -0.240 N 
ATOM     12  HN  UNK N   1      36.846  12.167  10.331  1.00  0.00     0.187 HD
BRANCH   9  13
HETATM   13  C   UNK N   1      35.885  12.740  12.967  0.00  0.00    -0.007 C 
HETATM   14  C   UNK N   1      37.104  11.837  12.980  0.00  0.00     0.021 C 
HETATM   15  C   UNK N   1      36.030  13.769  14.076  0.00  0.00     0.021 C 
HETATM   16  C   UNK N   1      34.651  11.906  13.242  0.00  0.00     0.021 C 
ENDBRANCH   9  13
BRANCH  11  17
HETATM   17  C   UNK N   1      36.303  13.709   8.137  0.00  0.00     0.058 A 
HETATM   18  C   UNK N   1      35.304  13.557   7.164  0.00  0.00     0.032 A 
HETATM   19  C   UNK N   1      35.644  13.444   5.811  0.00  0.00     0.009 A 
HETATM   20  C   UNK N   1      36.986  13.466   5.421  0.00  0.00    -0.062 A 
HETATM   21  C   UNK N   1      37.345  13.373   3.983  0.00  0.00     0.048 C 
HETATM   22  C   UNK N   1      37.989  13.581   6.385  0.00  0.00     0.009 A 
HETATM   23  C   UNK N   1      37.650  13.697   7.734  0.00  0.00     0.032 A 
ENDBRANCH  11  17
ENDBRANCH   1   7
BRANCH   4  24
HETATM   24  C   UNK N   1      33.427  17.617   7.526  0.00  0.00     0.047 A 
HETATM   25  C   UNK N   1      34.133  17.203   6.402  0.00  0.00     0.033 A 
HETATM   26  C   UNK N   1      33.464  16.733   5.279  0.00  0.00     0.040 A 
HETATM   27  C   UNK N   1      32.073  16.631   5.255  0.00  0.00     0.080 A 
HETATM   28  C   UNK N   1      31.322  17.067   6.376  0.00  0.00     0.010 A 
HETATM   29  C   UNK N   1      32.001  17.554   7.521  0.00  0.00     0.004 A 
HETATM   30  C   UNK N   1      29.916  17.025   6.377  0.00  0.00     0.015 A 
HETATM   31  C   UNK N   1      31.245  17.935   8.645  0.00  0.00     0.014 A 
HETATM   32  C   UNK N   1      29.851  17.891   8.627  0.00  0.00     0.001 A 
HETATM   33  C   UNK N   1      29.186  17.445   7.489  0.00  0.00     0.001 A 
BRANCH  27  34
HETATM   34  O   UNK N   1      31.510  16.066   4.158  0.00  0.00    -0.349 OA
BRANCH  34  35
HETATM   35  C   UNK N   1      31.807  14.798   3.699  0.00  0.00     0.206 C 
BRANCH  35  36
HETATM   36  C   UNK N   1      30.535  13.928   3.589  0.00  0.00     0.299 C 
BRANCH  36  37
HETATM   37  N   UNK N   1      29.272  14.682   3.595  0.00  0.00     0.094 N 
HETATM   38  C   UNK N   1      28.697  14.777   2.243  0.00  0.00     0.298 C 
HETATM   39  C   UNK N   1      27.236  15.251   2.273  0.00  0.00     0.198 C 
HETATM   40  O   UNK N   1      26.884  15.712   3.552  0.00  0.00    -0.388 OA
HETATM   41  C   UNK N   1      26.906  14.578   4.374  0.00  0.00     0.198 C 
HETATM   42  C   UNK N   1      28.352  14.117   4.595  0.00  0.00     0.298 C 
ENDBRANCH  36  37
ENDBRANCH  35  36
ENDBRANCH  34  35
ENDBRANCH  27  34
ENDBRANCH   4  24
TORSDOF 8
ENDMDL
MODEL 7
REMARK VINA RESULT:      -7.3      3.083      4.361
REMARK  8 active torsions:
REMARK  status: ('A' for Active; 'I' for Inactive)
REMARK    1  A    between atoms: C_5  and  N_8 
REMARK    2  A    between atoms: C_11  and  C_37 
REMARK    3  A    between atoms: C_13  and  N_14 
REMARK       I    between atoms: N_14  and  C_15 
REMARK       I    between atoms: C_15  and  N_17 
REMARK    4  A    between atoms: N_17  and  C_18 
REMARK    5  A    between atoms: C_21  and  O_22 
REMARK    6  A    between atoms: O_22  and  C_23 
REMARK    7  A    between atoms: C_23  and  C_24 
REMARK    8  A    between atoms: C_24  and  N_25 
ROOT
HETATM    1  N   UNK N   1      35.000  15.306  10.596  0.00  0.00    -0.293 N 
HETATM    2  C   UNK N   1      35.221  16.558  10.114  0.00  0.00     0.326 C 
HETATM    3  O   UNK N   1      36.096  17.269  10.581  0.00  0.00    -0.247 OA
HETATM    4  N   UNK N   1      34.519  16.992   9.042  0.00  0.00    -0.308 N 
HETATM    5  H   UNK N   1      34.200  14.828  10.280  0.00  0.00     0.172 HD
HETATM    6  H   UNK N   1      34.534  17.953   8.829  0.00  0.00     0.170 HD
ENDROOT
BRANCH   1   7
HETATM    7  C   UNK N   1      35.840  14.643  11.517  0.00  0.00     0.133 A 
HETATM    8  C   UNK N   1      35.593  14.687  12.864  0.00  0.00     0.077 A 
HETATM    9  C   UNK N   1      36.478  13.775  13.391  0.00  0.00     0.037 A 
HETATM   10  N   UNK N   1      37.224  13.228  12.402  0.00  0.00    -0.295 N 
HETATM   11  N   UNK N   1      36.835  13.766  11.252  0.00  0.00    -0.240 N 
ATOM     12  HN  UNK N   1      37.954  12.526  12.519  1.00  0.00     0.187 HD
BRANCH   9  13
HETATM   13  C   UNK N   1      36.532  13.398  14.846  0.00  0.00    -0.007 C 
HETATM   14  C   UNK N   1      35.134  13.105  15.357  0.00  0.00     0.021 C 
HETATM   15  C   UNK N   1      37.381  12.148  15.006  0.00  0.00     0.021 C 
HETATM   16  C   UNK N   1      37.141  14.504  15.685  0.00  0.00     0.021 C 
ENDBRANCH   9  13
BRANCH  11  17
HETATM   17  C   UNK N   1      37.421  13.405   9.983  0.00  0.00     0.058 A 
HETATM   18  C   UNK N   1      36.937  12.290   9.282  0.00  0.00     0.032 A 
HETATM   19  C   UNK N   1      37.464  11.957   8.030  0.00  0.00     0.009 A 
HETATM   20  C   UNK N   1      38.490  12.727   7.473  0.00  0.00    -0.062 A 
HETATM   21  C   UNK N   1      39.030  12.388   6.131  0.00  0.00     0.048 C 
HETATM   22  C   UNK N   1      39.003  13.816   8.178  0.00  0.00     0.009 A 
HETATM   23  C   UNK N   1      38.475  14.151   9.426  0.00  0.00     0.032 A 
ENDBRANCH  11  17
ENDBRANCH   1   7
BRANCH   4  24
HETATM   24  C   UNK N   1      33.762  16.123   8.207  0.00  0.00     0.047 A 
HETATM   25  C   UNK N   1      34.361  14.949   7.764  0.00  0.00     0.033 A 
HETATM   26  C   UNK N   1      33.655  14.045   6.982  0.00  0.00     0.040 A 
HETATM   27  C   UNK N   1      32.318  14.268   6.646  0.00  0.00     0.080 A 
HETATM   28  C   UNK N   1      31.686  15.466   7.063  0.00  0.00     0.010 A 
HETATM   29  C   UNK N   1      32.406  16.395   7.856  0.00  0.00     0.004 A 
HETATM   30  C   UNK N   1      30.355  15.753   6.708  0.00  0.00     0.015 A 
HETATM   31  C   UNK N   1      31.748  17.555   8.305  0.00  0.00     0.014 A 
HETATM   32  C   UNK N   1      30.430  17.825   7.940  0.00  0.00     0.001 A 
HETATM   33  C   UNK N   1      29.736  16.929   7.133  0.00  0.00     0.001 A 
BRANCH  27  34
HETATM   34  O   UNK N   1      31.676  13.286   5.966  0.00  0.00    -0.349 OA
BRANCH  34  35
HETATM   35  C   UNK N   1      32.251  12.536   4.960  0.00  0.00     0.206 C 
BRANCH  35  36
HETATM   36  C   UNK N   1      32.103  13.229   3.587  0.00  0.00     0.299 C 
BRANCH  36  37
HETATM   37  N   UNK N   1      31.636  14.622   3.649  0.00  0.00     0.094 N 
HETATM   38  C   UNK N   1      32.623  15.546   3.065  0.00  0.00     0.298 C 
HETATM   39  C   UNK N   1      32.025  16.938   2.809  0.00  0.00     0.198 C 
HETATM   40  O   UNK N   1      30.767  17.063   3.419  0.00  0.00    -0.388 OA
HETATM   41  C   UNK N   1      29.928  16.184   2.721  0.00  0.00     0.198 C 
HETATM   42  C   UNK N   1      30.294  14.732   3.056  0.00  0.00     0.298 C 
ENDBRANCH  36  37
ENDBRANCH  35  36
ENDBRANCH  34  35
ENDBRANCH  27  34
ENDBRANCH   4  24
TORSDOF 8
ENDMDL
MODEL 8
REMARK VINA RESULT:      -7.3      4.209     10.992
REMARK  8 active torsions:
REMARK  status: ('A' for Active; 'I' for Inactive)
REMARK    1  A    between atoms: C_5  and  N_8 
REMARK    2  A    between atoms: C_11  and  C_37 
REMARK    3  A    between atoms: C_13  and  N_14 
REMARK       I    between atoms: N_14  and  C_15 
REMARK       I    between atoms: C_15  and  N_17 
REMARK    4  A    between atoms: N_17  and  C_18 
REMARK    5  A    between atoms: C_21  and  O_22 
REMARK    6  A    between atoms: O_22  and  C_23 
REMARK    7  A    between atoms: C_23  and  C_24 
REMARK    8  A    between atoms: C_24  and  N_25 
ROOT
HETATM    1  N   UNK N   1      25.242  15.969   3.941  0.00  0.00    -0.293 N 
HETATM    2  C   UNK N   1      26.250  16.151   3.047  0.00  0.00     0.326 C 
HETATM    3  O   UNK N   1      26.057  16.038   1.847  0.00  0.00    -0.247 OA
HETATM    4  N   UNK N   1      27.466  16.550   3.484  0.00  0.00    -0.308 N 
HETATM    5  H   UNK N   1      25.479  15.937   4.896  0.00  0.00     0.172 HD
HETATM    6  H   UNK N   1      28.231  16.482   2.870  0.00  0.00     0.170 HD
ENDROOT
BRANCH   1   7
HETATM    7  C   UNK N   1      23.881  15.823   3.596  0.00  0.00     0.133 A 
HETATM    8  C   UNK N   1      22.981  16.834   3.808  0.00  0.00     0.077 A 
HETATM    9  C   UNK N   1      21.843  16.402   3.166  0.00  0.00     0.037 A 
HETATM   10  N   UNK N   1      22.057  15.184   2.614  0.00  0.00    -0.295 N 
HETATM   11  N   UNK N   1      23.307  14.827   2.883  0.00  0.00    -0.240 N 
ATOM     12  HN  UNK N   1      21.378  14.638   2.084  1.00  0.00     0.187 HD
BRANCH   9  13
HETATM   13  C   UNK N   1      20.586  17.218   3.041  0.00  0.00    -0.007 C 
HETATM   14  C   UNK N   1      19.531  16.693   3.997  0.00  0.00     0.021 C 
HETATM   15  C   UNK N   1      20.894  18.662   3.400  0.00  0.00     0.021 C 
HETATM   16  C   UNK N   1      20.035  17.179   1.630  0.00  0.00     0.021 C 
ENDBRANCH   9  13
BRANCH  11  17
HETATM   17  C   UNK N   1      23.876  13.577   2.438  0.00  0.00     0.058 A 
HETATM   18  C   UNK N   1      24.009  13.320   1.065  0.00  0.00     0.032 A 
HETATM   19  C   UNK N   1      24.602  12.133   0.621  0.00  0.00     0.009 A 
HETATM   20  C   UNK N   1      25.053  11.186   1.545  0.00  0.00    -0.062 A 
HETATM   21  C   UNK N   1      25.706   9.937   1.073  0.00  0.00     0.048 C 
HETATM   22  C   UNK N   1      24.893  11.416   2.912  0.00  0.00     0.009 A 
HETATM   23  C   UNK N   1      24.304  12.601   3.356  0.00  0.00     0.032 A 
ENDBRANCH  11  17
ENDBRANCH   1   7
BRANCH   4  24
HETATM   24  C   UNK N   1      27.687  17.066   4.793  0.00  0.00     0.047 A 
HETATM   25  C   UNK N   1      28.129  16.190   5.779  0.00  0.00     0.033 A 
HETATM   26  C   UNK N   1      28.401  16.647   7.062  0.00  0.00     0.040 A 
HETATM   27  C   UNK N   1      28.272  17.997   7.392  0.00  0.00     0.080 A 
HETATM   28  C   UNK N   1      27.802  18.911   6.415  0.00  0.00     0.010 A 
HETATM   29  C   UNK N   1      27.517  18.447   5.106  0.00  0.00     0.004 A 
HETATM   30  C   UNK N   1      27.614  20.272   6.718  0.00  0.00     0.015 A 
HETATM   31  C   UNK N   1      27.100  19.376   4.135  0.00  0.00     0.014 A 
HETATM   32  C   UNK N   1      26.914  20.720   4.453  0.00  0.00     0.001 A 
HETATM   33  C   UNK N   1      27.162  21.167   5.748  0.00  0.00     0.001 A 
BRANCH  27  34
HETATM   34  O   UNK N   1      28.657  18.372   8.637  0.00  0.00    -0.349 OA
BRANCH  34  35
HETATM   35  C   UNK N   1      29.962  18.639   8.998  0.00  0.00     0.206 C 
BRANCH  35  36
HETATM   36  C   UNK N   1      30.888  17.443   8.687  0.00  0.00     0.299 C 
BRANCH  36  37
HETATM   37  N   UNK N   1      32.122  17.791   7.967  0.00  0.00     0.094 N 
HETATM   38  C   UNK N   1      33.318  17.397   8.730  0.00  0.00     0.298 C 
HETATM   39  C   UNK N   1      34.588  17.435   7.867  0.00  0.00     0.198 C 
HETATM   40  O   UNK N   1      34.341  18.071   6.639  0.00  0.00    -0.388 OA
HETATM   41  C   UNK N   1      33.470  17.217   5.950  0.00  0.00     0.198 C 
HETATM   42  C   UNK N   1      32.082  17.247   6.601  0.00  0.00     0.298 C 
ENDBRANCH  36  37
ENDBRANCH  35  36
ENDBRANCH  34  35
ENDBRANCH  27  34
ENDBRANCH   4  24
TORSDOF 8
ENDMDL
MODEL 9
REMARK VINA RESULT:      -7.3      3.391      5.410
REMARK  8 active torsions:
REMARK  status: ('A' for Active; 'I' for Inactive)
REMARK    1  A    between atoms: C_5  and  N_8 
REMARK    2  A    between atoms: C_11  and  C_37 
REMARK    3  A    between atoms: C_13  and  N_14 
REMARK       I    between atoms: N_14  and  C_15 
REMARK       I    between atoms: C_15  and  N_17 
REMARK    4  A    between atoms: N_17  and  C_18 
REMARK    5  A    between atoms: C_21  and  O_22 
REMARK    6  A    between atoms: O_22  and  C_23 
REMARK    7  A    between atoms: C_23  and  C_24 
REMARK    8  A    between atoms: C_24  and  N_25 
ROOT
HETATM    1  N   UNK N   1      34.882  15.575  10.260  0.00  0.00    -0.293 N 
HETATM    2  C   UNK N   1      35.121  16.888  10.001  0.00  0.00     0.326 C 
HETATM    3  O   UNK N   1      35.987  17.502  10.603  0.00  0.00    -0.247 OA
HETATM    4  N   UNK N   1      34.450  17.502   9.000  0.00  0.00    -0.308 N 
HETATM    5  H   UNK N   1      34.088  15.164   9.848  0.00  0.00     0.172 HD
HETATM    6  H   UNK N   1      34.476  18.485   8.952  0.00  0.00     0.170 HD
ENDROOT
BRANCH   1   7
HETATM    7  C   UNK N   1      35.694  14.759  11.078  0.00  0.00     0.133 A 
HETATM    8  C   UNK N   1      35.496  14.687  12.431  0.00  0.00     0.077 A 
HETATM    9  C   UNK N   1      36.320  13.659  12.831  0.00  0.00     0.037 A 
HETATM   10  N   UNK N   1      36.985  13.157  11.763  0.00  0.00    -0.295 N 
HETATM   11  N   UNK N   1      36.604  13.837  10.688  0.00  0.00    -0.240 N 
ATOM     12  HN  UNK N   1      37.658  12.392  11.782  1.00  0.00     0.187 HD
BRANCH   9  13
HETATM   13  C   UNK N   1      36.390  13.136  14.238  0.00  0.00    -0.007 C 
HETATM   14  C   UNK N   1      36.854  14.234  15.177  0.00  0.00     0.021 C 
HETATM   15  C   UNK N   1      35.005  12.681  14.669  0.00  0.00     0.021 C 
HETATM   16  C   UNK N   1      37.338  11.960  14.349  0.00  0.00     0.021 C 
ENDBRANCH   9  13
BRANCH  11  17
HETATM   17  C   UNK N   1      37.116  13.560   9.367  0.00  0.00     0.058 A 
HETATM   18  C   UNK N   1      36.302  12.916   8.423  0.00  0.00     0.032 A 
HETATM   19  C   UNK N   1      36.769  12.684   7.125  0.00  0.00     0.009 A 
HETATM   20  C   UNK N   1      38.061  13.079   6.763  0.00  0.00    -0.062 A 
HETATM   21  C   UNK N   1      38.547  12.856   5.377  0.00  0.00     0.048 C 
HETATM   22  C   UNK N   1      38.892  13.687   7.705  0.00  0.00     0.009 A 
HETATM   23  C   UNK N   1      38.425  13.921   9.000  0.00  0.00     0.032 A 
ENDBRANCH  11  17
ENDBRANCH   1   7
BRANCH   4  24
HETATM   24  C   UNK N   1      33.711  16.792   8.012  0.00  0.00     0.047 A 
HETATM   25  C   UNK N   1      34.387  15.871   7.220  0.00  0.00     0.033 A 
HETATM   26  C   UNK N   1      33.708  15.121   6.269  0.00  0.00     0.040 A 
HETATM   27  C   UNK N   1      32.327  15.243   6.103  0.00  0.00     0.080 A 
HETATM   28  C   UNK N   1      31.612  16.190   6.879  0.00  0.00     0.010 A 
HETATM   29  C   UNK N   1      32.304  16.963   7.846  0.00  0.00     0.004 A 
HETATM   30  C   UNK N   1      30.229  16.378   6.711  0.00  0.00     0.015 A 
HETATM   31  C   UNK N   1      31.572  17.861   8.644  0.00  0.00     0.014 A 
HETATM   32  C   UNK N   1      30.202  18.038   8.461  0.00  0.00     0.001 A 
HETATM   33  C   UNK N   1      29.531  17.304   7.488  0.00  0.00     0.001 A 
BRANCH  27  34
HETATM   34  O   UNK N   1      31.730  14.400   5.224  0.00  0.00    -0.349 OA
BRANCH  34  35
HETATM   35  C   UNK N   1      31.764  14.558   3.853  0.00  0.00     0.206 C 
BRANCH  35  36
HETATM   36  C   UNK N   1      32.235  13.265   3.150  0.00  0.00     0.299 C 
BRANCH  36  37
HETATM   37  N   UNK N   1      33.081  13.482   1.966  0.00  0.00     0.094 N 
HETATM   38  C   UNK N   1      34.376  14.077   2.333  0.00  0.00     0.298 C 
HETATM   39  C   UNK N   1      35.392  13.997   1.183  0.00  0.00     0.198 C 
HETATM   40  O   UNK N   1      34.766  13.605  -0.011  0.00  0.00    -0.388 OA
HETATM   41  C   UNK N   1      34.364  12.279   0.200  0.00  0.00     0.198 C 
HETATM   42  C   UNK N   1      33.196  12.236   1.193  0.00  0.00     0.298 C 
ENDBRANCH  36  37
ENDBRANCH  35  36
ENDBRANCH  34  35
ENDBRANCH  27  34
ENDBRANCH   4  24
TORSDOF 8
ENDMDL
