MODEL 1
REMARK VINA RESULT:      -8.9      0.000      0.000
REMARK  11 active torsions:
REMARK  status: ('A' for Active; 'I' for Inactive)
REMARK    1  A    between atoms: C_6  and  C_3 
REMARK    2  A    between atoms: C_10  and  C_3 
REMARK    3  A    between atoms: C_12  and  C_6 
REMARK    4  A    between atoms: C_8  and  C_7 
REMARK    5  A    between atoms: C_13  and  C_7 
REMARK    6  A    between atoms: C_14  and  C_8 
REMARK    7  A    between atoms: C_17  and  C_11 
REMARK    8  A    between atoms: C_19  and  C_13 
REMARK    9  A    between atoms: C_13  and  N_24 
REMARK       I    between atoms: N_24  and  C_17 
REMARK   10  A    between atoms: O_35  and  C_18 
REMARK   11  A    between atoms: O_37  and  C_19 
REMARK       I    between atoms: N_21  and  C_20 
ROOT
HETATM    1  C   UNK N   1      26.367  17.546   4.685  0.00  0.00     0.008 C 
HETATM    2  C   UNK N   1      27.681  19.580   4.683  0.00  0.00     0.008 C 
HETATM    3  C   UNK N   1      25.500  18.088   3.741  0.00  0.00     0.017 C 
HETATM    4  C   UNK N   1      26.824  20.119   3.733  0.00  0.00     0.017 C 
HETATM    5  C   UNK N   1      27.402  18.325   5.216  0.00  0.00    -0.058 C 
HETATM    6  C   UNK N   1      25.673  19.413   3.336  0.00  0.00     0.032 C 
ENDROOT
BRANCH   5   7
HETATM    7  C   UNK N   1      27.945  17.956   6.554  0.00  0.00     0.043 C 
BRANCH   7   8
HETATM    8  C   UNK N   1      28.775  16.702   6.643  0.00  0.00     0.045 C 
BRANCH   8   9
HETATM    9  C   UNK N   1      30.203  16.935   6.313  0.00  0.00    -0.024 A 
HETATM   10  C   UNK N   1      30.724  16.760   5.040  0.00  0.00     0.098 A 
HETATM   11  N   UNK N   1      32.048  17.040   5.049  0.00  0.00    -0.350 N 
HETATM   12  C   UNK N   1      32.343  17.381   6.316  0.00  0.00     0.136 A 
HETATM   13  H   UNK N   1      32.668  17.002   4.286  0.00  0.00     0.166 HD
HETATM   14  C   UNK N   1      31.252  17.337   7.124  0.00  0.00     0.067 A 
HETATM   15  N   UNK N   1      33.569  17.725   6.770  0.00  0.00    -0.176 N 
HETATM   16  C   UNK N   1      31.394  17.671   8.478  0.00  0.00     0.170 A 
HETATM   17  N   UNK N   1      32.634  18.011   8.930  0.00  0.00    -0.170 N 
HETATM   18  C   UNK N   1      33.714  18.037   8.090  0.00  0.00     0.679 A 
ATOM     19  HN  UNK N   1      32.759  18.251   9.914  1.00  0.00     0.186 HD
HETATM   20  N   UNK N   1      34.864  18.359   8.545  0.00  0.00    -0.234 N 
HETATM   21  H   UNK N   1      35.577  18.774   8.008  0.00  0.00     0.174 HD
ATOM     22  HN  UNK N   1      35.056  18.172   9.529  1.00  0.00     0.174 HD
HETATM   23  H   UNK N   1      34.342  17.749   6.160  0.00  0.00     0.186 HD
BRANCH  16  24
HETATM   24  O   UNK N   1      30.356  17.673   9.330  0.00  0.00    -0.345 OA
HETATM   25  H   UNK N   1      30.152  18.011  10.180  0.00  0.00     0.219 HD
ENDBRANCH  16  24
ENDBRANCH   8   9
ENDBRANCH   7   8
ENDBRANCH   5   7
BRANCH   6  26
HETATM   26  C   UNK N   1      24.457  20.220   3.138  0.00  0.00     0.252 C 
HETATM   27  N   UNK N   1      23.303  19.583   3.444  0.00  0.00    -0.343 N 
HETATM   28  H   UNK N   1      23.226  19.218   4.355  0.00  0.00     0.163 HD
HETATM   29  O   UNK N   1      24.467  21.150   2.344  0.00  0.00    -0.268 OA
BRANCH  27  30
HETATM   30  C   UNK N   1      22.177  19.389   2.565  0.00  0.00     0.183 C 
BRANCH  30  31
HETATM   31  C   UNK N   1      21.176  18.686   3.460  0.00  0.00     0.044 C 
BRANCH  31  32
HETATM   32  C   UNK N   1      19.749  18.574   2.984  0.00  0.00     0.081 C 
BRANCH  32  33
HETATM   33  C   UNK N   1      19.816  17.579   1.883  0.00  0.00     0.110 A 
HETATM   34  N   UNK N   1      19.896  16.252   2.062  0.00  0.00    -0.275 N 
HETATM   35  N   UNK N   1      20.071  15.743   0.854  0.00  0.00    -0.225 N 
ATOM     36  HN  UNK N   1      19.833  15.743   2.943  1.00  0.00     0.189 HD
HETATM   37  N   UNK N   1      20.107  16.724  -0.037  0.00  0.00    -0.005 NA
HETATM   38  H   UNK N   1      20.161  14.784   0.649  0.00  0.00     0.205 HD
HETATM   39  N   UNK N   1      19.957  17.882   0.580  0.00  0.00    -0.271 N 
ATOM     40  HN  UNK N   1      19.949  18.811   0.158  1.00  0.00     0.185 HD
ENDBRANCH  32  33
ENDBRANCH  31  32
ENDBRANCH  30  31
BRANCH  30  41
HETATM   41  C   UNK N   1      21.640  20.656   1.954  0.00  0.00     0.163 C 
HETATM   42  O   UNK N   1      21.336  20.687   0.774  0.00  0.00    -0.648 OA
BRANCH  41  43
HETATM   43  O   UNK N   1      21.431  21.746   2.718  0.00  0.00    -0.775 OA
HETATM   44  H   UNK N   1      22.080  22.420   2.775  0.00  0.00     0.167 HD
ENDBRANCH  41  43
ENDBRANCH  30  41
ENDBRANCH  27  30
ENDBRANCH   6  26
TORSDOF 11
ENDMDL
MODEL 2
REMARK VINA RESULT:      -8.7      5.331     11.349
REMARK  11 active torsions:
REMARK  status: ('A' for Active; 'I' for Inactive)
REMARK    1  A    between atoms: C_6  and  C_3 
REMARK    2  A    between atoms: C_10  and  C_3 
REMARK    3  A    between atoms: C_12  and  C_6 
REMARK    4  A    between atoms: C_8  and  C_7 
REMARK    5  A    between atoms: C_13  and  C_7 
REMARK    6  A    between atoms: C_14  and  C_8 
REMARK    7  A    between atoms: C_17  and  C_11 
REMARK    8  A    between atoms: C_19  and  C_13 
REMARK    9  A    between atoms: C_13  and  N_24 
REMARK       I    between atoms: N_24  and  C_17 
REMARK   10  A    between atoms: O_35  and  C_18 
REMARK   11  A    between atoms: O_37  and  C_19 
REMARK       I    between atoms: N_21  and  C_20 
ROOT
HETATM    1  C   UNK N   1      31.224  17.361   7.517  0.00  0.00     0.008 C 
HETATM    2  C   UNK N   1      32.649  17.086   5.579  0.00  0.00     0.008 C 
HETATM    3  C   UNK N   1      32.288  17.889   8.243  0.00  0.00     0.017 C 
HETATM    4  C   UNK N   1      33.709  17.623   6.297  0.00  0.00     0.017 C 
HETATM    5  C   UNK N   1      31.430  16.882   6.218  0.00  0.00    -0.058 C 
HETATM    6  C   UNK N   1      33.557  17.930   7.662  0.00  0.00     0.032 C 
ENDROOT
BRANCH   5   7
HETATM    7  C   UNK N   1      30.480  15.864   5.686  0.00  0.00     0.043 C 
BRANCH   7   8
HETATM    8  C   UNK N   1      29.014  16.074   5.961  0.00  0.00     0.045 C 
BRANCH   8   9
HETATM    9  C   UNK N   1      28.490  17.324   5.359  0.00  0.00    -0.024 A 
HETATM   10  C   UNK N   1      28.485  17.563   3.992  0.00  0.00     0.098 A 
HETATM   11  N   UNK N   1      27.954  18.783   3.747  0.00  0.00    -0.350 N 
HETATM   12  C   UNK N   1      27.640  19.296   4.948  0.00  0.00     0.136 A 
HETATM   13  H   UNK N   1      27.826  19.208   2.868  0.00  0.00     0.166 HD
HETATM   14  C   UNK N   1      27.942  18.444   5.962  0.00  0.00     0.067 A 
HETATM   15  N   UNK N   1      27.093  20.514   5.162  0.00  0.00    -0.176 N 
HETATM   16  C   UNK N   1      27.669  18.832   7.282  0.00  0.00     0.170 A 
HETATM   17  N   UNK N   1      27.124  20.064   7.490  0.00  0.00    -0.170 N 
HETATM   18  C   UNK N   1      26.839  20.900   6.446  0.00  0.00     0.679 A 
ATOM     19  HN  UNK N   1      26.924  20.367   8.444  1.00  0.00     0.186 HD
HETATM   20  N   UNK N   1      26.329  22.050   6.674  0.00  0.00    -0.234 N 
HETATM   21  H   UNK N   1      25.752  22.537   6.042  0.00  0.00     0.174 HD
ATOM     22  HN  UNK N   1      26.533  22.492   7.570  1.00  0.00     0.174 HD
HETATM   23  H   UNK N   1      26.883  21.110   4.407  0.00  0.00     0.186 HD
BRANCH  16  24
HETATM   24  O   UNK N   1      27.919  18.034   8.332  0.00  0.00    -0.345 OA
HETATM   25  H   UNK N   1      27.909  17.118   8.530  0.00  0.00     0.219 HD
ENDBRANCH  16  24
ENDBRANCH   8   9
ENDBRANCH   7   8
ENDBRANCH   5   7
BRANCH   6  26
HETATM   26  C   UNK N   1      34.704  17.608   8.529  0.00  0.00     0.252 C 
HETATM   27  N   UNK N   1      34.767  16.316   8.921  0.00  0.00    -0.343 N 
HETATM   28  H   UNK N   1      34.781  15.635   8.210  0.00  0.00     0.163 HD
HETATM   29  O   UNK N   1      35.232  18.490   9.190  0.00  0.00    -0.268 OA
BRANCH  27  30
HETATM   30  C   UNK N   1      34.816  15.839  10.282  0.00  0.00     0.183 C 
BRANCH  30  31
HETATM   31  C   UNK N   1      33.701  14.814  10.313  0.00  0.00     0.044 C 
BRANCH  31  32
HETATM   32  C   UNK N   1      33.248  14.212   9.006  0.00  0.00     0.081 C 
BRANCH  32  33
HETATM   33  C   UNK N   1      33.377  12.748   9.224  0.00  0.00     0.110 A 
HETATM   34  N   UNK N   1      32.344  11.915   9.421  0.00  0.00    -0.275 N 
HETATM   35  N   UNK N   1      32.886  10.743   9.705  0.00  0.00    -0.225 N 
ATOM     36  HN  UNK N   1      31.351  12.138   9.363  1.00  0.00     0.189 HD
HETATM   37  N   UNK N   1      34.207  10.851   9.692  0.00  0.00    -0.005 NA
HETATM   38  H   UNK N   1      32.384   9.916   9.896  0.00  0.00     0.205 HD
HETATM   39  N   UNK N   1      34.541  12.096   9.401  0.00  0.00    -0.271 N 
ATOM     40  HN  UNK N   1      35.482  12.482   9.325  1.00  0.00     0.185 HD
ENDBRANCH  32  33
ENDBRANCH  31  32
ENDBRANCH  30  31
BRANCH  30  41
HETATM   41  C   UNK N   1      36.150  15.278  10.696  0.00  0.00     0.163 C 
HETATM   42  O   UNK N   1      36.269  14.087  10.929  0.00  0.00    -0.648 OA
BRANCH  41  43
HETATM   43  O   UNK N   1      37.236  16.073  10.752  0.00  0.00    -0.775 OA
HETATM   44  H   UNK N   1      37.783  16.082  11.513  0.00  0.00     0.167 HD
ENDBRANCH  41  43
ENDBRANCH  30  41
ENDBRANCH  27  30
ENDBRANCH   6  26
TORSDOF 11
ENDMDL
MODEL 3
REMARK VINA RESULT:      -8.7      5.958     10.663
REMARK  11 active torsions:
REMARK  status: ('A' for Active; 'I' for Inactive)
REMARK    1  A    between atoms: C_6  and  C_3 
REMARK    2  A    between atoms: C_10  and  C_3 
REMARK    3  A    between atoms: C_12  and  C_6 
REMARK    4  A    between atoms: C_8  and  C_7 
REMARK    5  A    between atoms: C_13  and  C_7 
REMARK    6  A    between atoms: C_14  and  C_8 
REMARK    7  A    between atoms: C_17  and  C_11 
REMARK    8  A    between atoms: C_19  and  C_13 
REMARK    9  A    between atoms: C_13  and  N_24 
REMARK       I    between atoms: N_24  and  C_17 
REMARK   10  A    between atoms: O_35  and  C_18 
REMARK   11  A    between atoms: O_37  and  C_19 
REMARK       I    between atoms: N_21  and  C_20 
ROOT
HETATM    1  C   UNK N   1      21.279  14.645   6.631  0.00  0.00     0.008 C 
HETATM    2  C   UNK N   1      20.712  16.523   8.050  0.00  0.00     0.008 C 
HETATM    3  C   UNK N   1      20.889  13.755   7.628  0.00  0.00     0.017 C 
HETATM    4  C   UNK N   1      20.311  15.639   9.041  0.00  0.00     0.017 C 
HETATM    5  C   UNK N   1      21.270  16.023   6.878  0.00  0.00    -0.058 C 
HETATM    6  C   UNK N   1      20.496  14.254   8.872  0.00  0.00     0.032 C 
ENDROOT
BRANCH   5   7
HETATM    7  C   UNK N   1      22.168  16.888   6.060  0.00  0.00     0.043 C 
BRANCH   7   8
HETATM    8  C   UNK N   1      22.491  16.427   4.663  0.00  0.00     0.045 C 
BRANCH   8   9
HETATM    9  C   UNK N   1      21.527  16.930   3.655  0.00  0.00    -0.024 A 
HETATM   10  C   UNK N   1      20.484  16.164   3.156  0.00  0.00     0.098 A 
HETATM   11  N   UNK N   1      19.782  16.887   2.253  0.00  0.00    -0.350 N 
HETATM   12  C   UNK N   1      20.386  18.086   2.190  0.00  0.00     0.136 A 
HETATM   13  H   UNK N   1      18.991  16.594   1.745  0.00  0.00     0.166 HD
HETATM   14  C   UNK N   1      21.452  18.164   3.030  0.00  0.00     0.067 A 
HETATM   15  N   UNK N   1      20.012  19.113   1.395  0.00  0.00    -0.176 N 
HETATM   16  C   UNK N   1      22.188  19.356   3.085  0.00  0.00     0.170 A 
HETATM   17  N   UNK N   1      21.808  20.385   2.276  0.00  0.00    -0.170 N 
HETATM   18  C   UNK N   1      20.734  20.269   1.436  0.00  0.00     0.679 A 
ATOM     19  HN  UNK N   1      22.335  21.258   2.297  1.00  0.00     0.186 HD
HETATM   20  N   UNK N   1      20.404  21.251   0.689  0.00  0.00    -0.234 N 
HETATM   21  H   UNK N   1      19.489  21.423   0.369  0.00  0.00     0.174 HD
ATOM     22  HN  UNK N   1      21.137  21.901   0.404  1.00  0.00     0.174 HD
HETATM   23  H   UNK N   1      19.233  19.027   0.797  0.00  0.00     0.186 HD
BRANCH  16  24
HETATM   24  O   UNK N   1      23.238  19.515   3.907  0.00  0.00    -0.345 OA
HETATM   25  H   UNK N   1      23.766  20.214   4.237  0.00  0.00     0.219 HD
ENDBRANCH  16  24
ENDBRANCH   8   9
ENDBRANCH   7   8
ENDBRANCH   5   7
BRANCH   6  26
HETATM   26  C   UNK N   1      20.936  13.510  10.065  0.00  0.00     0.252 C 
HETATM   27  N   UNK N   1      22.278  13.415  10.205  0.00  0.00    -0.343 N 
HETATM   28  H   UNK N   1      22.784  14.260  10.225  0.00  0.00     0.163 HD
HETATM   29  O   UNK N   1      20.193  12.683  10.574  0.00  0.00    -0.268 OA
BRANCH  27  30
HETATM   30  C   UNK N   1      23.039  12.196  10.328  0.00  0.00     0.183 C 
BRANCH  30  31
HETATM   31  C   UNK N   1      24.229  12.456   9.426  0.00  0.00     0.044 C 
BRANCH  31  32
HETATM   32  C   UNK N   1      24.147  12.005   7.989  0.00  0.00     0.081 C 
BRANCH  32  33
HETATM   33  C   UNK N   1      24.794  13.107   7.231  0.00  0.00     0.110 A 
HETATM   34  N   UNK N   1      25.678  12.929   6.238  0.00  0.00    -0.275 N 
HETATM   35  N   UNK N   1      26.109  14.140   5.928  0.00  0.00    -0.225 N 
ATOM     36  HN  UNK N   1      25.958  12.047   5.810  1.00  0.00     0.189 HD
HETATM   37  N   UNK N   1      25.517  15.033   6.710  0.00  0.00    -0.005 NA
HETATM   38  H   UNK N   1      26.767  14.348   5.225  0.00  0.00     0.205 HD
HETATM   39  N   UNK N   1      24.696  14.413   7.538  0.00  0.00    -0.271 N 
ATOM     40  HN  UNK N   1      24.109  14.835   8.259  1.00  0.00     0.185 HD
ENDBRANCH  32  33
ENDBRANCH  31  32
ENDBRANCH  30  31
BRANCH  30  41
HETATM   41  C   UNK N   1      23.428  11.846  11.739  0.00  0.00     0.163 C 
HETATM   42  O   UNK N   1      24.594  11.911  12.088  0.00  0.00    -0.648 OA
BRANCH  41  43
HETATM   43  O   UNK N   1      22.485  11.517  12.644  0.00  0.00    -0.775 OA
HETATM   44  H   UNK N   1      21.664  11.158  12.370  0.00  0.00     0.167 HD
ENDBRANCH  41  43
ENDBRANCH  30  41
ENDBRANCH  27  30
ENDBRANCH   6  26
TORSDOF 11
ENDMDL
MODEL 4
REMARK VINA RESULT:      -8.7      1.890      2.384
REMARK  11 active torsions:
REMARK  status: ('A' for Active; 'I' for Inactive)
REMARK    1  A    between atoms: C_6  and  C_3 
REMARK    2  A    between atoms: C_10  and  C_3 
REMARK    3  A    between atoms: C_12  and  C_6 
REMARK    4  A    between atoms: C_8  and  C_7 
REMARK    5  A    between atoms: C_13  and  C_7 
REMARK    6  A    between atoms: C_14  and  C_8 
REMARK    7  A    between atoms: C_17  and  C_11 
REMARK    8  A    between atoms: C_19  and  C_13 
REMARK    9  A    between atoms: C_13  and  N_24 
REMARK       I    between atoms: N_24  and  C_17 
REMARK   10  A    between atoms: O_35  and  C_18 
REMARK   11  A    between atoms: O_37  and  C_19 
REMARK       I    between atoms: N_21  and  C_20 
ROOT
HETATM    1  C   UNK N   1      26.382  17.513   4.547  0.00  0.00     0.008 C 
HETATM    2  C   UNK N   1      27.710  19.537   4.505  0.00  0.00     0.008 C 
HETATM    3  C   UNK N   1      25.480  18.069   3.645  0.00  0.00     0.017 C 
HETATM    4  C   UNK N   1      26.819  20.089   3.596  0.00  0.00     0.017 C 
HETATM    5  C   UNK N   1      27.444  18.279   5.039  0.00  0.00    -0.058 C 
HETATM    6  C   UNK N   1      25.646  19.396   3.243  0.00  0.00     0.032 C 
ENDROOT
BRANCH   5   7
HETATM    7  C   UNK N   1      28.040  17.894   6.351  0.00  0.00     0.043 C 
BRANCH   7   8
HETATM    8  C   UNK N   1      28.918  16.671   6.380  0.00  0.00     0.045 C 
BRANCH   8   9
HETATM    9  C   UNK N   1      30.352  16.988   6.171  0.00  0.00    -0.024 A 
HETATM   10  C   UNK N   1      30.936  17.060   4.915  0.00  0.00     0.098 A 
HETATM   11  N   UNK N   1      32.250  17.360   5.042  0.00  0.00    -0.350 N 
HETATM   12  C   UNK N   1      32.477  17.467   6.363  0.00  0.00     0.136 A 
HETATM   13  H   UNK N   1      32.905  17.475   4.316  0.00  0.00     0.166 HD
HETATM   14  C   UNK N   1      31.351  17.255   7.093  0.00  0.00     0.067 A 
HETATM   15  N   UNK N   1      33.670  17.746   6.933  0.00  0.00    -0.176 N 
HETATM   16  C   UNK N   1      31.421  17.336   8.491  0.00  0.00     0.170 A 
HETATM   17  N   UNK N   1      32.629  17.611   9.060  0.00  0.00    -0.170 N 
HETATM   18  C   UNK N   1      33.745  17.812   8.294  0.00  0.00     0.679 A 
ATOM     19  HN  UNK N   1      32.702  17.668  10.075  1.00  0.00     0.186 HD
HETATM   20  N   UNK N   1      34.864  18.067   8.857  0.00  0.00    -0.234 N 
HETATM   21  H   UNK N   1      35.588  18.587   8.442  0.00  0.00     0.174 HD
ATOM     22  HN  UNK N   1      35.015  17.706   9.799  1.00  0.00     0.174 HD
HETATM   23  H   UNK N   1      34.469  17.897   6.378  0.00  0.00     0.186 HD
BRANCH  16  24
HETATM   24  O   UNK N   1      30.346  17.161   9.276  0.00  0.00    -0.345 OA
HETATM   25  H   UNK N   1      29.539  17.599   9.461  0.00  0.00     0.219 HD
ENDBRANCH  16  24
ENDBRANCH   8   9
ENDBRANCH   7   8
ENDBRANCH   5   7
BRANCH   6  26
HETATM   26  C   UNK N   1      24.429  20.214   3.103  0.00  0.00     0.252 C 
HETATM   27  N   UNK N   1      23.337  19.706   3.718  0.00  0.00    -0.343 N 
HETATM   28  H   UNK N   1      23.414  19.521   4.682  0.00  0.00     0.163 HD
HETATM   29  O   UNK N   1      24.316  20.978   2.156  0.00  0.00    -0.268 OA
BRANCH  27  30
HETATM   30  C   UNK N   1      22.069  19.411   3.097  0.00  0.00     0.183 C 
BRANCH  30  31
HETATM   31  C   UNK N   1      21.553  18.256   3.931  0.00  0.00     0.044 C 
BRANCH  31  32
HETATM   32  C   UNK N   1      21.810  16.852   3.442  0.00  0.00     0.081 C 
BRANCH  32  33
HETATM   33  C   UNK N   1      22.554  16.215   4.559  0.00  0.00     0.110 A 
HETATM   34  N   UNK N   1      22.721  16.765   5.771  0.00  0.00    -0.275 N 
HETATM   35  N   UNK N   1      23.543  15.953   6.416  0.00  0.00    -0.225 N 
ATOM     36  HN  UNK N   1      22.304  17.626   6.122  1.00  0.00     0.189 HD
HETATM   37  N   UNK N   1      23.876  14.943   5.625  0.00  0.00    -0.005 NA
HETATM   38  H   UNK N   1      23.857  16.080   7.341  0.00  0.00     0.205 HD
HETATM   39  N   UNK N   1      23.278  15.086   4.456  0.00  0.00    -0.271 N 
ATOM     40  HN  UNK N   1      23.348  14.470   3.646  1.00  0.00     0.185 HD
ENDBRANCH  32  33
ENDBRANCH  31  32
ENDBRANCH  30  31
BRANCH  30  41
HETATM   41  C   UNK N   1      21.117  20.575   3.042  0.00  0.00     0.163 C 
HETATM   42  O   UNK N   1      20.237  20.689   3.879  0.00  0.00    -0.648 OA
BRANCH  41  43
HETATM   43  O   UNK N   1      21.267  21.535   2.107  0.00  0.00    -0.775 OA
HETATM   44  H   UNK N   1      20.556  22.104   1.890  0.00  0.00     0.167 HD
ENDBRANCH  41  43
ENDBRANCH  30  41
ENDBRANCH  27  30
ENDBRANCH   6  26
TORSDOF 11
ENDMDL
MODEL 5
REMARK VINA RESULT:      -8.6      3.318      5.420
REMARK  11 active torsions:
REMARK  status: ('A' for Active; 'I' for Inactive)
REMARK    1  A    between atoms: C_6  and  C_3 
REMARK    2  A    between atoms: C_10  and  C_3 
REMARK    3  A    between atoms: C_12  and  C_6 
REMARK    4  A    between atoms: C_8  and  C_7 
REMARK    5  A    between atoms: C_13  and  C_7 
REMARK    6  A    between atoms: C_14  and  C_8 
REMARK    7  A    between atoms: C_17  and  C_11 
REMARK    8  A    between atoms: C_19  and  C_13 
REMARK    9  A    between atoms: C_13  and  N_24 
REMARK       I    between atoms: N_24  and  C_17 
REMARK   10  A    between atoms: O_35  and  C_18 
REMARK   11  A    between atoms: O_37  and  C_19 
REMARK       I    between atoms: N_21  and  C_20 
ROOT
HETATM    1  C   UNK N   1      28.880  15.661   5.733  0.00  0.00     0.008 C 
HETATM    2  C   UNK N   1      29.531  17.082   3.884  0.00  0.00     0.008 C 
HETATM    3  C   UNK N   1      27.560  15.664   5.290  0.00  0.00     0.017 C 
HETATM    4  C   UNK N   1      28.219  17.078   3.433  0.00  0.00     0.017 C 
HETATM    5  C   UNK N   1      29.842  16.439   5.078  0.00  0.00    -0.058 C 
HETATM    6  C   UNK N   1      27.211  16.454   4.192  0.00  0.00     0.032 C 
ENDROOT
BRANCH   5   7
HETATM    7  C   UNK N   1      31.052  16.852   5.845  0.00  0.00     0.043 C 
BRANCH   7   8
HETATM    8  C   UNK N   1      31.366  16.091   7.106  0.00  0.00     0.045 C 
BRANCH   8   9
HETATM    9  C   UNK N   1      32.502  16.674   7.861  0.00  0.00    -0.024 A 
HETATM   10  C   UNK N   1      33.094  17.883   7.526  0.00  0.00     0.098 A 
HETATM   11  N   UNK N   1      34.102  18.149   8.387  0.00  0.00    -0.350 N 
HETATM   12  C   UNK N   1      34.138  17.114   9.244  0.00  0.00     0.136 A 
HETATM   13  H   UNK N   1      34.690  18.939   8.387  0.00  0.00     0.166 HD
HETATM   14  C   UNK N   1      33.179  16.190   8.968  0.00  0.00     0.067 A 
HETATM   15  N   UNK N   1      35.012  16.970  10.265  0.00  0.00    -0.176 N 
HETATM   16  C   UNK N   1      33.082  15.048   9.777  0.00  0.00     0.170 A 
HETATM   17  N   UNK N   1      33.971  14.908  10.800  0.00  0.00    -0.170 N 
HETATM   18  C   UNK N   1      34.929  15.854  11.045  0.00  0.00     0.679 A 
ATOM     19  HN  UNK N   1      33.921  14.081  11.396  1.00  0.00     0.186 HD
HETATM   20  N   UNK N   1      35.749  15.692  12.012  0.00  0.00    -0.234 N 
HETATM   21  H   UNK N   1      36.183  16.427  12.500  0.00  0.00     0.174 HD
ATOM     22  HN  UNK N   1      35.967  14.737  12.295  1.00  0.00     0.174 HD
HETATM   23  H   UNK N   1      35.695  17.657  10.441  0.00  0.00     0.186 HD
BRANCH  16  24
HETATM   24  O   UNK N   1      32.147  14.106   9.579  0.00  0.00    -0.345 OA
HETATM   25  H   UNK N   1      31.877  13.298   9.968  0.00  0.00     0.219 HD
ENDBRANCH  16  24
ENDBRANCH   8   9
ENDBRANCH   7   8
ENDBRANCH   5   7
BRANCH   6  26
HETATM   26  C   UNK N   1      25.919  17.159   4.255  0.00  0.00     0.252 C 
HETATM   27  N   UNK N   1      25.851  18.277   3.497  0.00  0.00    -0.343 N 
HETATM   28  H   UNK N   1      26.044  18.175   2.537  0.00  0.00     0.163 HD
HETATM   29  O   UNK N   1      25.198  17.020   5.233  0.00  0.00    -0.268 OA
BRANCH  27  30
HETATM   30  C   UNK N   1      25.522  19.603   3.960  0.00  0.00     0.183 C 
BRANCH  30  31
HETATM   31  C   UNK N   1      26.884  20.191   4.271  0.00  0.00     0.044 C 
BRANCH  31  32
HETATM   32  C   UNK N   1      27.020  21.067   5.492  0.00  0.00     0.081 C 
BRANCH  32  33
HETATM   33  C   UNK N   1      27.302  20.105   6.590  0.00  0.00     0.110 A 
HETATM   34  N   UNK N   1      26.813  20.210   7.835  0.00  0.00    -0.275 N 
HETATM   35  N   UNK N   1      27.402  19.249   8.526  0.00  0.00    -0.225 N 
ATOM     36  HN  UNK N   1      26.131  20.887   8.177  1.00  0.00     0.189 HD
HETATM   37  N   UNK N   1      28.231  18.580   7.737  0.00  0.00    -0.005 NA
HETATM   38  H   UNK N   1      27.248  19.058   9.481  0.00  0.00     0.205 HD
HETATM   39  N   UNK N   1      28.193  19.100   6.522  0.00  0.00    -0.271 N 
ATOM     40  HN  UNK N   1      28.726  18.802   5.705  1.00  0.00     0.185 HD
ENDBRANCH  32  33
ENDBRANCH  31  32
ENDBRANCH  30  31
BRANCH  30  41
HETATM   41  C   UNK N   1      24.730  20.424   2.980  0.00  0.00     0.163 C 
HETATM   42  O   UNK N   1      25.255  20.837   1.959  0.00  0.00    -0.648 OA
BRANCH  41  43
HETATM   43  O   UNK N   1      23.419  20.658   3.189  0.00  0.00    -0.775 OA
HETATM   44  H   UNK N   1      22.775  20.026   2.938  0.00  0.00     0.167 HD
ENDBRANCH  41  43
ENDBRANCH  30  41
ENDBRANCH  27  30
ENDBRANCH   6  26
TORSDOF 11
ENDMDL
MODEL 6
REMARK VINA RESULT:      -8.6      5.466      7.750
REMARK  11 active torsions:
REMARK  status: ('A' for Active; 'I' for Inactive)
REMARK    1  A    between atoms: C_6  and  C_3 
REMARK    2  A    between atoms: C_10  and  C_3 
REMARK    3  A    between atoms: C_12  and  C_6 
REMARK    4  A    between atoms: C_8  and  C_7 
REMARK    5  A    between atoms: C_13  and  C_7 
REMARK    6  A    between atoms: C_14  and  C_8 
REMARK    7  A    between atoms: C_17  and  C_11 
REMARK    8  A    between atoms: C_19  and  C_13 
REMARK    9  A    between atoms: C_13  and  N_24 
REMARK       I    between atoms: N_24  and  C_17 
REMARK   10  A    between atoms: O_35  and  C_18 
REMARK   11  A    between atoms: O_37  and  C_19 
REMARK       I    between atoms: N_21  and  C_20 
ROOT
HETATM    1  C   UNK N   1      32.611  14.887   4.743  0.00  0.00     0.008 C 
HETATM    2  C   UNK N   1      33.218  17.205   4.396  0.00  0.00     0.008 C 
HETATM    3  C   UNK N   1      31.555  15.014   3.845  0.00  0.00     0.017 C 
HETATM    4  C   UNK N   1      32.174  17.331   3.491  0.00  0.00     0.017 C 
HETATM    5  C   UNK N   1      33.384  16.004   5.080  0.00  0.00    -0.058 C 
HETATM    6  C   UNK N   1      31.277  16.265   3.291  0.00  0.00     0.032 C 
ENDROOT
BRANCH   5   7
HETATM    7  C   UNK N   1      34.105  15.992   6.386  0.00  0.00     0.043 C 
BRANCH   7   8
HETATM    8  C   UNK N   1      33.305  15.651   7.615  0.00  0.00     0.045 C 
BRANCH   8   9
HETATM    9  C   UNK N   1      34.013  15.992   8.874  0.00  0.00    -0.024 A 
HETATM   10  C   UNK N   1      34.482  17.266   9.158  0.00  0.00     0.098 A 
HETATM   11  N   UNK N   1      35.086  17.268  10.368  0.00  0.00    -0.350 N 
HETATM   12  C   UNK N   1      34.996  16.007  10.827  0.00  0.00     0.136 A 
HETATM   13  H   UNK N   1      35.506  18.034  10.820  0.00  0.00     0.166 HD
HETATM   14  C   UNK N   1      34.346  15.193   9.954  0.00  0.00     0.067 A 
HETATM   15  N   UNK N   1      35.487  15.564  12.006  0.00  0.00    -0.176 N 
HETATM   16  C   UNK N   1      34.166  13.843  10.290  0.00  0.00     0.170 A 
HETATM   17  N   UNK N   1      34.668  13.402  11.477  0.00  0.00    -0.170 N 
HETATM   18  C   UNK N   1      35.325  14.249  12.329  0.00  0.00     0.679 A 
ATOM     19  HN  UNK N   1      34.553  12.422  11.736  1.00  0.00     0.186 HD
HETATM   20  N   UNK N   1      35.786  13.805  13.434  0.00  0.00    -0.234 N 
HETATM   21  H   UNK N   1      35.908  14.351  14.245  0.00  0.00     0.174 HD
ATOM     22  HN  UNK N   1      36.046  12.819  13.481  1.00  0.00     0.174 HD
HETATM   23  H   UNK N   1      35.952  16.179  12.619  0.00  0.00     0.186 HD
BRANCH  16  24
HETATM   24  O   UNK N   1      33.514  12.985   9.489  0.00  0.00    -0.345 OA
HETATM   25  H   UNK N   1      33.714  12.253   8.939  0.00  0.00     0.219 HD
ENDBRANCH  16  24
ENDBRANCH   8   9
ENDBRANCH   7   8
ENDBRANCH   5   7
BRANCH   6  26
HETATM   26  C   UNK N   1      29.859  16.633   3.140  0.00  0.00     0.252 C 
HETATM   27  N   UNK N   1      29.441  17.615   3.971  0.00  0.00    -0.343 N 
HETATM   28  H   UNK N   1      29.935  18.466   3.937  0.00  0.00     0.163 HD
HETATM   29  O   UNK N   1      29.066  15.824   2.679  0.00  0.00    -0.268 OA
BRANCH  27  30
HETATM   30  C   UNK N   1      28.342  17.535   4.902  0.00  0.00     0.183 C 
BRANCH  30  31
HETATM   31  C   UNK N   1      28.935  16.735   6.045  0.00  0.00     0.044 C 
BRANCH  31  32
HETATM   32  C   UNK N   1      30.086  17.336   6.814  0.00  0.00     0.081 C 
BRANCH  32  33
HETATM   33  C   UNK N   1      29.605  17.354   8.220  0.00  0.00     0.110 A 
HETATM   34  N   UNK N   1      30.396  17.222   9.295  0.00  0.00    -0.275 N 
HETATM   35  N   UNK N   1      29.575  17.156  10.330  0.00  0.00    -0.225 N 
ATOM     36  HN  UNK N   1      31.415  17.180   9.312  1.00  0.00     0.189 HD
HETATM   37  N   UNK N   1      28.322  17.238   9.906  0.00  0.00    -0.005 NA
HETATM   38  H   UNK N   1      29.853  17.063  11.271  0.00  0.00     0.205 HD
HETATM   39  N   UNK N   1      28.312  17.355   8.590  0.00  0.00    -0.271 N 
ATOM     40  HN  UNK N   1      27.496  17.431   7.982  1.00  0.00     0.185 HD
ENDBRANCH  32  33
ENDBRANCH  31  32
ENDBRANCH  30  31
BRANCH  30  41
HETATM   41  C   UNK N   1      27.794  18.869   5.332  0.00  0.00     0.163 C 
HETATM   42  O   UNK N   1      28.118  19.885   4.741  0.00  0.00    -0.648 OA
BRANCH  41  43
HETATM   43  O   UNK N   1      26.893  18.945   6.332  0.00  0.00    -0.775 OA
HETATM   44  H   UNK N   1      25.993  19.131   6.151  0.00  0.00     0.167 HD
ENDBRANCH  41  43
ENDBRANCH  30  41
ENDBRANCH  27  30
ENDBRANCH   6  26
TORSDOF 11
ENDMDL
MODEL 7
REMARK VINA RESULT:      -8.6      6.752      8.473
REMARK  11 active torsions:
REMARK  status: ('A' for Active; 'I' for Inactive)
REMARK    1  A    between atoms: C_6  and  C_3 
REMARK    2  A    between atoms: C_10  and  C_3 
REMARK    3  A    between atoms: C_12  and  C_6 
REMARK    4  A    between atoms: C_8  and  C_7 
REMARK    5  A    between atoms: C_13  and  C_7 
REMARK    6  A    between atoms: C_14  and  C_8 
REMARK    7  A    between atoms: C_17  and  C_11 
REMARK    8  A    between atoms: C_19  and  C_13 
REMARK    9  A    between atoms: C_13  and  N_24 
REMARK       I    between atoms: N_24  and  C_17 
REMARK   10  A    between atoms: O_35  and  C_18 
REMARK   11  A    between atoms: O_37  and  C_19 
REMARK       I    between atoms: N_21  and  C_20 
ROOT
HETATM    1  C   UNK N   1      22.972  13.096   4.490  0.00  0.00     0.008 C 
HETATM    2  C   UNK N   1      24.355  14.936   3.739  0.00  0.00     0.008 C 
HETATM    3  C   UNK N   1      22.565  12.848   3.182  0.00  0.00     0.017 C 
HETATM    4  C   UNK N   1      23.961  14.684   2.432  0.00  0.00     0.017 C 
HETATM    5  C   UNK N   1      23.796  14.191   4.773  0.00  0.00    -0.058 C 
HETATM    6  C   UNK N   1      22.985  13.706   2.163  0.00  0.00     0.032 C 
ENDROOT
BRANCH   5   7
HETATM    7  C   UNK N   1      23.770  14.752   6.155  0.00  0.00     0.043 C 
BRANCH   7   8
HETATM    8  C   UNK N   1      22.856  15.922   6.410  0.00  0.00     0.045 C 
BRANCH   8   9
HETATM    9  C   UNK N   1      21.746  15.592   7.338  0.00  0.00    -0.024 A 
HETATM   10  C   UNK N   1      21.516  14.311   7.818  0.00  0.00     0.098 A 
HETATM   11  N   UNK N   1      20.438  14.320   8.634  0.00  0.00    -0.350 N 
HETATM   12  C   UNK N   1      20.001  15.591   8.655  0.00  0.00     0.136 A 
HETATM   13  H   UNK N   1      20.051  13.552   9.114  0.00  0.00     0.166 HD
HETATM   14  C   UNK N   1      20.769  16.406   7.885  0.00  0.00     0.067 A 
HETATM   15  N   UNK N   1      18.928  16.041   9.343  0.00  0.00    -0.176 N 
HETATM   16  C   UNK N   1      20.445  17.769   7.804  0.00  0.00     0.170 A 
HETATM   17  N   UNK N   1      19.358  18.214   8.495  0.00  0.00    -0.170 N 
HETATM   18  C   UNK N   1      18.603  17.363   9.256  0.00  0.00     0.679 A 
ATOM     19  HN  UNK N   1      19.103  19.200   8.444  1.00  0.00     0.186 HD
HETATM   20  N   UNK N   1      17.588  17.811   9.890  0.00  0.00    -0.234 N 
HETATM   21  H   UNK N   1      17.236  17.419  10.722  0.00  0.00     0.174 HD
ATOM     22  HN  UNK N   1      17.112  18.629   9.510  1.00  0.00     0.174 HD
HETATM   23  H   UNK N   1      18.391  15.427   9.894  0.00  0.00     0.186 HD
BRANCH  16  24
HETATM   24  O   UNK N   1      21.171  18.637   7.082  0.00  0.00    -0.345 OA
HETATM   25  H   UNK N   1      21.391  18.785   6.184  0.00  0.00     0.219 HD
ENDBRANCH  16  24
ENDBRANCH   8   9
ENDBRANCH   7   8
ENDBRANCH   5   7
BRANCH   6  26
HETATM   26  C   UNK N   1      22.001  14.044   1.121  0.00  0.00     0.252 C 
HETATM   27  N   UNK N   1      21.486  15.291   1.217  0.00  0.00    -0.343 N 
HETATM   28  H   UNK N   1      22.128  16.038   1.220  0.00  0.00     0.163 HD
HETATM   29  O   UNK N   1      21.382  13.154   0.556  0.00  0.00    -0.268 OA
BRANCH  27  30
HETATM   30  C   UNK N   1      20.088  15.632   1.316  0.00  0.00     0.183 C 
BRANCH  30  31
HETATM   31  C   UNK N   1      20.003  16.286   2.680  0.00  0.00     0.044 C 
BRANCH  31  32
HETATM   32  C   UNK N   1      21.228  16.991   3.211  0.00  0.00     0.081 C 
BRANCH  32  33
HETATM   33  C   UNK N   1      20.842  18.425   3.213  0.00  0.00     0.110 A 
HETATM   34  N   UNK N   1      20.506  19.124   2.118  0.00  0.00    -0.275 N 
HETATM   35  N   UNK N   1      20.367  20.373   2.526  0.00  0.00    -0.225 N 
ATOM     36  HN  UNK N   1      20.384  18.766   1.171  1.00  0.00     0.189 HD
HETATM   37  N   UNK N   1      20.616  20.444   3.826  0.00  0.00    -0.005 NA
HETATM   38  H   UNK N   1      20.116  21.134   1.952  0.00  0.00     0.205 HD
HETATM   39  N   UNK N   1      20.922  19.242   4.279  0.00  0.00    -0.271 N 
ATOM     40  HN  UNK N   1      21.167  18.985   5.236  1.00  0.00     0.185 HD
ENDBRANCH  32  33
ENDBRANCH  31  32
ENDBRANCH  30  31
BRANCH  30  41
HETATM   41  C   UNK N   1      19.582  16.510   0.204  0.00  0.00     0.163 C 
HETATM   42  O   UNK N   1      20.345  17.264  -0.377  0.00  0.00    -0.648 OA
BRANCH  41  43
HETATM   43  O   UNK N   1      18.300  16.426  -0.202  0.00  0.00    -0.775 OA
HETATM   44  H   UNK N   1      17.607  16.754   0.337  0.00  0.00     0.167 HD
ENDBRANCH  41  43
ENDBRANCH  30  41
ENDBRANCH  27  30
ENDBRANCH   6  26
TORSDOF 11
ENDMDL
MODEL 8
REMARK VINA RESULT:      -8.5      6.517      7.620
REMARK  11 active torsions:
REMARK  status: ('A' for Active; 'I' for Inactive)
REMARK    1  A    between atoms: C_6  and  C_3 
REMARK    2  A    between atoms: C_10  and  C_3 
REMARK    3  A    between atoms: C_12  and  C_6 
REMARK    4  A    between atoms: C_8  and  C_7 
REMARK    5  A    between atoms: C_13  and  C_7 
REMARK    6  A    between atoms: C_14  and  C_8 
REMARK    7  A    between atoms: C_17  and  C_11 
REMARK    8  A    between atoms: C_19  and  C_13 
REMARK    9  A    between atoms: C_13  and  N_24 
REMARK       I    between atoms: N_24  and  C_17 
REMARK   10  A    between atoms: O_35  and  C_18 
REMARK   11  A    between atoms: O_37  and  C_19 
REMARK       I    between atoms: N_21  and  C_20 
ROOT
HETATM    1  C   UNK N   1      21.476  15.862   6.800  0.00  0.00     0.008 C 
HETATM    2  C   UNK N   1      20.174  15.134   4.893  0.00  0.00     0.008 C 
HETATM    3  C   UNK N   1      21.316  17.192   6.420  0.00  0.00     0.017 C 
HETATM    4  C   UNK N   1      20.003  16.459   4.518  0.00  0.00     0.017 C 
HETATM    5  C   UNK N   1      20.978  14.836   5.989  0.00  0.00    -0.058 C 
HETATM    6  C   UNK N   1      20.661  17.485   5.223  0.00  0.00     0.032 C 
ENDROOT
BRANCH   5   7
HETATM    7  C   UNK N   1      21.604  13.487   6.099  0.00  0.00     0.043 C 
BRANCH   7   8
HETATM    8  C   UNK N   1      21.272  12.667   7.318  0.00  0.00     0.045 C 
BRANCH   8   9
HETATM    9  C   UNK N   1      22.413  12.547   8.258  0.00  0.00    -0.024 A 
HETATM   10  C   UNK N   1      23.736  12.531   7.844  0.00  0.00     0.098 A 
HETATM   11  N   UNK N   1      24.547  12.406   8.920  0.00  0.00    -0.350 N 
HETATM   12  C   UNK N   1      23.734  12.340   9.988  0.00  0.00     0.136 A 
HETATM   13  H   UNK N   1      25.531  12.369   8.920  0.00  0.00     0.166 HD
HETATM   14  C   UNK N   1      22.424  12.427   9.638  0.00  0.00     0.067 A 
HETATM   15  N   UNK N   1      24.134  12.198  11.272  0.00  0.00    -0.176 N 
HETATM   16  C   UNK N   1      21.446  12.378  10.643  0.00  0.00     0.170 A 
HETATM   17  N   UNK N   1      21.857  12.229  11.933  0.00  0.00    -0.170 N 
HETATM   18  C   UNK N   1      23.186  12.137  12.250  0.00  0.00     0.679 A 
ATOM     19  HN  UNK N   1      21.161  12.185  12.678  1.00  0.00     0.186 HD
HETATM   20  N   UNK N   1      23.539  11.996  13.470  0.00  0.00    -0.234 N 
HETATM   21  H   UNK N   1      24.400  12.300  13.837  0.00  0.00     0.174 HD
ATOM     22  HN  UNK N   1      22.886  11.537  14.104  1.00  0.00     0.174 HD
HETATM   23  H   UNK N   1      25.092  12.140  11.495  0.00  0.00     0.186 HD
BRANCH  16  24
HETATM   24  O   UNK N   1      20.135  12.481  10.374  0.00  0.00    -0.345 OA
HETATM   25  H   UNK N   1      19.555  13.081   9.947  0.00  0.00     0.219 HD
ENDBRANCH  16  24
ENDBRANCH   8   9
ENDBRANCH   7   8
ENDBRANCH   5   7
BRANCH   6  26
HETATM   26  C   UNK N   1      21.211  18.581   4.406  0.00  0.00     0.252 C 
HETATM   27  N   UNK N   1      20.469  18.900   3.321  0.00  0.00    -0.343 N 
HETATM   28  H   UNK N   1      19.529  19.143   3.481  0.00  0.00     0.163 HD
HETATM   29  O   UNK N   1      22.409  18.821   4.438  0.00  0.00    -0.268 OA
BRANCH  27  30
HETATM   30  C   UNK N   1      20.925  18.918   1.952  0.00  0.00     0.183 C 
BRANCH  30  31
HETATM   31  C   UNK N   1      20.021  17.898   1.290  0.00  0.00     0.044 C 
BRANCH  31  32
HETATM   32  C   UNK N   1      20.542  16.493   1.112  0.00  0.00     0.081 C 
BRANCH  32  33
HETATM   33  C   UNK N   1      19.368  15.739   0.600  0.00  0.00     0.110 A 
HETATM   34  N   UNK N   1      18.393  16.271  -0.152  0.00  0.00    -0.275 N 
HETATM   35  N   UNK N   1      17.485  15.318  -0.279  0.00  0.00    -0.225 N 
ATOM     36  HN  UNK N   1      18.358  17.212  -0.544  1.00  0.00     0.189 HD
HETATM   37  N   UNK N   1      17.884  14.238   0.380  0.00  0.00    -0.005 NA
HETATM   38  H   UNK N   1      16.643  15.398  -0.785  0.00  0.00     0.205 HD
HETATM   39  N   UNK N   1      19.054  14.477   0.944  0.00  0.00    -0.271 N 
ATOM     40  HN  UNK N   1      19.606  13.839   1.518  1.00  0.00     0.185 HD
ENDBRANCH  32  33
ENDBRANCH  31  32
ENDBRANCH  30  31
BRANCH  30  41
HETATM   41  C   UNK N   1      20.872  20.272   1.298  0.00  0.00     0.163 C 
HETATM   42  O   UNK N   1      21.218  21.265   1.915  0.00  0.00    -0.648 OA
BRANCH  41  43
HETATM   43  O   UNK N   1      20.501  20.392   0.008  0.00  0.00    -0.775 OA
HETATM   44  H   UNK N   1      20.716  19.725  -0.615  0.00  0.00     0.167 HD
ENDBRANCH  41  43
ENDBRANCH  30  41
ENDBRANCH  27  30
ENDBRANCH   6  26
TORSDOF 11
ENDMDL
MODEL 9
REMARK VINA RESULT:      -8.4      6.070      7.674
REMARK  11 active torsions:
REMARK  status: ('A' for Active; 'I' for Inactive)
REMARK    1  A    between atoms: C_6  and  C_3 
REMARK    2  A    between atoms: C_10  and  C_3 
REMARK    3  A    between atoms: C_12  and  C_6 
REMARK    4  A    between atoms: C_8  and  C_7 
REMARK    5  A    between atoms: C_13  and  C_7 
REMARK    6  A    between atoms: C_14  and  C_8 
REMARK    7  A    between atoms: C_17  and  C_11 
REMARK    8  A    between atoms: C_19  and  C_13 
REMARK    9  A    between atoms: C_13  and  N_24 
REMARK       I    between atoms: N_24  and  C_17 
REMARK   10  A    between atoms: O_35  and  C_18 
REMARK   11  A    between atoms: O_37  and  C_19 
REMARK       I    between atoms: N_21  and  C_20 
ROOT
HETATM    1  C   UNK N   1      23.041  12.956   4.254  0.00  0.00     0.008 C 
HETATM    2  C   UNK N   1      24.453  14.765   3.481  0.00  0.00     0.008 C 
HETATM    3  C   UNK N   1      22.571  12.750   2.961  0.00  0.00     0.017 C 
HETATM    4  C   UNK N   1      23.994  14.554   2.188  0.00  0.00     0.017 C 
HETATM    5  C   UNK N   1      23.914  14.017   4.523  0.00  0.00    -0.058 C 
HETATM    6  C   UNK N   1      22.975  13.615   1.942  0.00  0.00     0.032 C 
ENDROOT
BRANCH   5   7
HETATM    7  C   UNK N   1      23.966  14.548   5.916  0.00  0.00     0.043 C 
BRANCH   7   8
HETATM    8  C   UNK N   1      23.013  13.954   6.919  0.00  0.00     0.045 C 
BRANCH   8   9
HETATM    9  C   UNK N   1      23.681  13.566   8.186  0.00  0.00    -0.024 A 
HETATM   10  C   UNK N   1      25.044  13.710   8.398  0.00  0.00     0.098 A 
HETATM   11  N   UNK N   1      25.359  13.268   9.637  0.00  0.00    -0.350 N 
HETATM   12  C   UNK N   1      24.205  12.850  10.184  0.00  0.00     0.136 A 
HETATM   13  H   UNK N   1      26.252  13.254  10.052  0.00  0.00     0.166 HD
HETATM   14  C   UNK N   1      23.152  13.016   9.341  0.00  0.00     0.067 A 
HETATM   15  N   UNK N   1      24.069  12.318  11.419  0.00  0.00    -0.176 N 
HETATM   16  C   UNK N   1      21.872  12.631   9.768  0.00  0.00     0.170 A 
HETATM   17  N   UNK N   1      21.744  12.090  11.012  0.00  0.00    -0.170 N 
HETATM   18  C   UNK N   1      22.828  11.930  11.832  0.00  0.00     0.679 A 
ATOM     19  HN  UNK N   1      20.823  11.797  11.338  1.00  0.00     0.186 HD
HETATM   20  N   UNK N   1      22.676  11.417  12.992  0.00  0.00    -0.234 N 
HETATM   21  H   UNK N   1      23.256  11.608  13.764  0.00  0.00     0.174 HD
ATOM     22  HN  UNK N   1      21.901  10.767  13.128  1.00  0.00     0.174 HD
HETATM   23  H   UNK N   1      24.851  12.212  12.009  0.00  0.00     0.186 HD
BRANCH  16  24
HETATM   24  O   UNK N   1      20.782  12.786   8.999  0.00  0.00    -0.345 OA
HETATM   25  H   UNK N   1      20.075  12.263   8.678  0.00  0.00     0.219 HD
ENDBRANCH  16  24
ENDBRANCH   8   9
ENDBRANCH   7   8
ENDBRANCH   5   7
BRANCH   6  26
HETATM   26  C   UNK N   1      21.959  14.008   0.951  0.00  0.00     0.252 C 
HETATM   27  N   UNK N   1      21.476  15.261   1.108  0.00  0.00    -0.343 N 
HETATM   28  H   UNK N   1      22.133  15.995   1.110  0.00  0.00     0.163 HD
HETATM   29  O   UNK N   1      21.300  13.150   0.382  0.00  0.00    -0.268 OA
BRANCH  27  30
HETATM   30  C   UNK N   1      20.090  15.626   1.273  0.00  0.00     0.183 C 
BRANCH  30  31
HETATM   31  C   UNK N   1      20.068  16.220   2.667  0.00  0.00     0.044 C 
BRANCH  31  32
HETATM   32  C   UNK N   1      21.317  16.901   3.172  0.00  0.00     0.081 C 
BRANCH  32  33
HETATM   33  C   UNK N   1      20.938  18.335   3.243  0.00  0.00     0.110 A 
HETATM   34  N   UNK N   1      20.629  19.093   2.180  0.00  0.00    -0.275 N 
HETATM   35  N   UNK N   1      20.487  20.320   2.650  0.00  0.00    -0.225 N 
ATOM     36  HN  UNK N   1      20.524  18.787   1.212  1.00  0.00     0.189 HD
HETATM   37  N   UNK N   1      20.710  20.321   3.958  0.00  0.00    -0.005 NA
HETATM   38  H   UNK N   1      20.252  21.112   2.113  0.00  0.00     0.205 HD
HETATM   39  N   UNK N   1      21.000  19.094   4.352  0.00  0.00    -0.271 N 
ATOM     40  HN  UNK N   1      21.224  18.785   5.299  1.00  0.00     0.185 HD
ENDBRANCH  32  33
ENDBRANCH  31  32
ENDBRANCH  30  31
BRANCH  30  41
HETATM   41  C   UNK N   1      19.565  16.565   0.220  0.00  0.00     0.163 C 
HETATM   42  O   UNK N   1      20.320  17.340  -0.343  0.00  0.00    -0.648 OA
BRANCH  41  43
HETATM   43  O   UNK N   1      18.272  16.514  -0.155  0.00  0.00    -0.775 OA
HETATM   44  H   UNK N   1      17.826  15.692  -0.223  0.00  0.00     0.167 HD
ENDBRANCH  41  43
ENDBRANCH  30  41
ENDBRANCH  27  30
ENDBRANCH   6  26
TORSDOF 11
ENDMDL
