MODEL 1
REMARK VINA RESULT:      -8.1      0.000      0.000
REMARK  4 active torsions:
REMARK  status: ('A' for Active; 'I' for Inactive)
REMARK    1  A    between atoms: C_19  and  C_11 
REMARK    2  A    between atoms: C_20  and  C_16 
REMARK    3  A    between atoms: C_21  and  O_30 
REMARK    4  A    between atoms: C_24  and  O_32 
ROOT
HETATM    1  C   UNK N   1      25.972  15.070   2.169  0.00  0.00     0.012 C 
HETATM    2  C   UNK N   1      25.239  17.445   3.835  0.00  0.00     0.020 C 
HETATM    3  C   UNK N   1      29.290  17.842   5.636  0.00  0.00     0.026 C 
HETATM    4  C   UNK N   1      27.535  16.782   7.246  0.00  0.00     0.026 C 
HETATM    5  C   UNK N   1      31.848  12.204   3.434  0.00  0.00     0.049 C 
HETATM    6  C   UNK N   1      29.779  15.555   2.887  0.00  0.00     0.004 C 
HETATM    7  C   UNK N   1      28.407  15.647   2.192  0.00  0.00     0.007 C 
HETATM    8  C   UNK N   1      30.356  14.164   2.702  0.00  0.00     0.040 C 
HETATM    9  C   UNK N   1      31.029  15.398   5.727  0.00  0.00     0.072 C 
HETATM   10  C   UNK N   1      29.259  18.610   8.674  0.00  0.00     0.144 C 
HETATM   11  C   UNK N   1      27.235  15.050   3.009  0.00  0.00     0.011 C 
HETATM   12  C   UNK N   1      26.706  17.315   4.235  0.00  0.00     0.081 C 
HETATM   13  C   UNK N   1      31.120  15.539   7.267  0.00  0.00     0.163 C 
HETATM   14  C   UNK N   1      28.343  19.114   7.512  0.00  0.00     0.142 C 
HETATM   15  C   UNK N   1      31.557  14.083   5.162  0.00  0.00     0.159 A 
HETATM   16  C   UNK N   1      30.461  17.754   8.330  0.00  0.00     0.261 C 
HETATM   17  C   UNK N   1      27.046  15.769   4.370  0.00  0.00     0.132 C 
HETATM   18  C   UNK N   1      26.972  18.295   5.406  0.00  0.00     0.143 C 
HETATM   19  C   UNK N   1      28.016  18.009   6.464  0.00  0.00     0.040 C 
HETATM   20  C   UNK N   1      31.307  13.580   3.766  0.00  0.00     0.084 A 
HETATM   21  O   UNK N   1      31.574  18.124   8.679  0.00  0.00    -0.265 OA
HETATM   22  O   UNK N   1      26.457  19.404   5.376  0.00  0.00    -0.297 OA
HETATM   23  O   UNK N   1      30.273  16.564   7.682  0.00  0.00    -0.311 OA
HETATM   24  O   UNK N   1      32.395  14.414   4.069  0.00  0.00    -0.369 OA
ENDROOT
BRANCH  13  25
HETATM   25  C   UNK N   1      32.523  15.663   7.833  0.00  0.00    -0.052 C 
HETATM   26  C   UNK N   1      33.519  16.446   7.031  0.00  0.00     0.046 C 
HETATM   27  C   UNK N   1      32.876  15.105   9.014  0.00  0.00     0.035 C 
BRANCH  27  28
HETATM   28  C   UNK N   1      34.274  15.111   9.498  0.00  0.00     0.039 A 
HETATM   29  C   UNK N   1      34.726  15.962  10.522  0.00  0.00     0.081 A 
HETATM   30  S   UNK N   1      36.311  15.524  10.763  0.00  0.00    -0.087 SA
HETATM   31  C   UNK N   1      36.386  14.299   9.667  0.00  0.00     0.047 A 
HETATM   32  C   UNK N   1      37.536  13.379   9.454  0.00  0.00     0.076 C 
HETATM   33  N   UNK N   1      35.198  14.190   9.036  0.00  0.00    -0.354 N 
ATOM     34  HN  UNK N   1      35.002  13.507   8.304  1.00  0.00     0.166 HD
ENDBRANCH  27  28
ENDBRANCH  13  25
BRANCH  14  35
HETATM   35  O   UNK N   1      27.162  19.580   8.094  0.00  0.00    -0.394 OA
HETATM   36  H   UNK N   1      26.452  19.024   8.451  0.00  0.00     0.210 HD
ENDBRANCH  14  35
BRANCH  17  37
HETATM   37  O   UNK N   1      28.215  15.511   5.072  0.00  0.00    -0.394 OA
HETATM   38  H   UNK N   1      28.184  15.080   5.941  0.00  0.00     0.210 HD
ENDBRANCH  17  37
TORSDOF 4
ENDMDL
MODEL 2
REMARK VINA RESULT:      -7.8      5.158     10.058
REMARK  4 active torsions:
REMARK  status: ('A' for Active; 'I' for Inactive)
REMARK    1  A    between atoms: C_19  and  C_11 
REMARK    2  A    between atoms: C_20  and  C_16 
REMARK    3  A    between atoms: C_21  and  O_30 
REMARK    4  A    between atoms: C_24  and  O_32 
ROOT
HETATM    1  C   UNK N   1      36.515   6.857  12.341  0.00  0.00     0.012 C 
HETATM    2  C   UNK N   1      37.174   8.840  14.483  0.00  0.00     0.020 C 
HETATM    3  C   UNK N   1      34.807  12.122  12.629  0.00  0.00     0.026 C 
HETATM    4  C   UNK N   1      37.379  12.371  12.284  0.00  0.00     0.026 C 
HETATM    5  C   UNK N   1      33.516   9.211   6.881  0.00  0.00     0.049 C 
HETATM    6  C   UNK N   1      33.743   9.167  10.850  0.00  0.00     0.004 C 
HETATM    7  C   UNK N   1      34.424   8.069  11.687  0.00  0.00     0.007 C 
HETATM    8  C   UNK N   1      33.654   8.727   9.401  0.00  0.00     0.040 C 
HETATM    9  C   UNK N   1      34.301  11.988   9.674  0.00  0.00     0.072 C 
HETATM   10  C   UNK N   1      36.167  14.938  12.829  0.00  0.00     0.144 C 
HETATM   11  C   UNK N   1      35.969   8.060  11.595  0.00  0.00     0.011 C 
HETATM   12  C   UNK N   1      36.275   9.715  13.614  0.00  0.00     0.081 C 
HETATM   13  C   UNK N   1      34.989  13.367   9.509  0.00  0.00     0.163 C 
HETATM   14  C   UNK N   1      36.111  13.784  13.882  0.00  0.00     0.142 C 
HETATM   15  C   UNK N   1      34.027  11.239   8.373  0.00  0.00     0.159 A 
HETATM   16  C   UNK N   1      35.328  14.815  11.573  0.00  0.00     0.261 C 
HETATM   17  C   UNK N   1      36.592   9.391  12.091  0.00  0.00     0.132 C 
HETATM   18  C   UNK N   1      36.355  11.167  14.153  0.00  0.00     0.143 C 
HETATM   19  C   UNK N   1      36.185  12.365  13.244  0.00  0.00     0.040 C 
HETATM   20  C   UNK N   1      33.659   9.783   8.277  0.00  0.00     0.084 A 
HETATM   21  O   UNK N   1      34.515  15.691  11.313  0.00  0.00    -0.265 OA
HETATM   22  O   UNK N   1      36.375  11.347  15.363  0.00  0.00    -0.297 OA
HETATM   23  O   UNK N   1      35.531  13.754  10.733  0.00  0.00    -0.311 OA
HETATM   24  O   UNK N   1      32.688  10.783   8.438  0.00  0.00    -0.369 OA
ENDROOT
BRANCH  13  25
HETATM   25  C   UNK N   1      34.144  14.449   8.865  0.00  0.00    -0.052 C 
HETATM   26  C   UNK N   1      34.863  15.497   8.067  0.00  0.00     0.046 C 
HETATM   27  C   UNK N   1      32.797  14.481   8.985  0.00  0.00     0.035 C 
BRANCH  27  28
HETATM   28  C   UNK N   1      31.989  15.608   8.471  0.00  0.00     0.039 A 
HETATM   29  C   UNK N   1      31.515  15.670   7.148  0.00  0.00     0.081 A 
HETATM   30  S   UNK N   1      30.595  17.053   7.096  0.00  0.00    -0.087 SA
HETATM   31  C   UNK N   1      30.756  17.503   8.670  0.00  0.00     0.047 A 
HETATM   32  C   UNK N   1      30.063  18.638   9.337  0.00  0.00     0.076 C 
HETATM   33  N   UNK N   1      31.558  16.623   9.307  0.00  0.00    -0.354 N 
ATOM     34  HN  UNK N   1      31.816  16.696  10.291  1.00  0.00     0.166 HD
ENDBRANCH  27  28
ENDBRANCH  13  25
BRANCH  14  35
HETATM   35  O   UNK N   1      37.188  13.971  14.752  0.00  0.00    -0.394 OA
HETATM   36  H   UNK N   1      37.136  13.972  15.721  0.00  0.00     0.210 HD
ENDBRANCH  14  35
BRANCH  17  37
HETATM   37  O   UNK N   1      36.128  10.352  11.204  0.00  0.00    -0.394 OA
HETATM   38  H   UNK N   1      35.267  10.249  10.771  0.00  0.00     0.210 HD
ENDBRANCH  17  37
TORSDOF 4
ENDMDL
MODEL 3
REMARK VINA RESULT:      -7.5     13.608     16.591
REMARK  4 active torsions:
REMARK  status: ('A' for Active; 'I' for Inactive)
REMARK    1  A    between atoms: C_19  and  C_11 
REMARK    2  A    between atoms: C_20  and  C_16 
REMARK    3  A    between atoms: C_21  and  O_30 
REMARK    4  A    between atoms: C_24  and  O_32 
ROOT
HETATM    1  C   UNK N   1      27.130  29.500  -5.157  0.00  0.00     0.012 C 
HETATM    2  C   UNK N   1      29.051  28.315  -3.193  0.00  0.00     0.020 C 
HETATM    3  C   UNK N   1      29.952  24.763  -5.720  0.00  0.00     0.026 C 
HETATM    4  C   UNK N   1      28.350  24.245  -3.729  0.00  0.00     0.026 C 
HETATM    5  C   UNK N   1      25.296  25.650 -10.271  0.00  0.00     0.049 C 
HETATM    6  C   UNK N   1      28.228  27.011  -7.957  0.00  0.00     0.004 C 
HETATM    7  C   UNK N   1      28.156  28.279  -7.087  0.00  0.00     0.007 C 
HETATM    8  C   UNK N   1      27.017  26.943  -8.868  0.00  0.00     0.040 C 
HETATM    9  C   UNK N   1      27.901  23.929  -7.746  0.00  0.00     0.072 C 
HETATM   10  C   UNK N   1      30.246  22.096  -4.102  0.00  0.00     0.144 C 
HETATM   11  C   UNK N   1      27.232  28.155  -5.851  0.00  0.00     0.011 C 
HETATM   12  C   UNK N   1      29.148  27.259  -4.290  0.00  0.00     0.081 C 
HETATM   13  C   UNK N   1      27.831  22.533  -7.076  0.00  0.00     0.163 C 
HETATM   14  C   UNK N   1      30.729  23.538  -3.738  0.00  0.00     0.142 C 
HETATM   15  C   UNK N   1      26.809  24.213  -8.772  0.00  0.00     0.159 A 
HETATM   16  C   UNK N   1      29.697  21.844  -5.492  0.00  0.00     0.261 C 
HETATM   17  C   UNK N   1      27.693  27.031  -4.887  0.00  0.00     0.132 C 
HETATM   18  C   UNK N   1      29.979  26.071  -3.740  0.00  0.00     0.143 C 
HETATM   19  C   UNK N   1      29.747  24.652  -4.209  0.00  0.00     0.040 C 
HETATM   20  C   UNK N   1      26.478  25.572  -9.326  0.00  0.00     0.084 A 
HETATM   21  O   UNK N   1      30.219  20.987  -6.191  0.00  0.00    -0.265 OA
HETATM   22  O   UNK N   1      30.961  26.308  -3.049  0.00  0.00    -0.297 OA
HETATM   23  O   UNK N   1      28.601  22.545  -5.915  0.00  0.00    -0.311 OA
HETATM   24  O   UNK N   1      27.451  24.750  -9.915  0.00  0.00    -0.369 OA
ENDROOT
BRANCH  13  25
HETATM   25  C   UNK N   1      28.137  21.354  -7.981  0.00  0.00    -0.052 C 
HETATM   26  C   UNK N   1      27.277  20.134  -7.834  0.00  0.00     0.046 C 
HETATM   27  C   UNK N   1      29.135  21.386  -8.894  0.00  0.00     0.035 C 
BRANCH  27  28
HETATM   28  C   UNK N   1      29.519  20.193  -9.679  0.00  0.00     0.039 A 
HETATM   29  C   UNK N   1      29.191  20.032 -11.038  0.00  0.00     0.081 A 
HETATM   30  S   UNK N   1      29.919  18.605 -11.478  0.00  0.00    -0.087 SA
HETATM   31  C   UNK N   1      30.641  18.254 -10.043  0.00  0.00     0.047 A 
HETATM   32  C   UNK N   1      31.576  17.127  -9.779  0.00  0.00     0.076 C 
HETATM   33  N   UNK N   1      30.327  19.208  -9.140  0.00  0.00    -0.354 N 
ATOM     34  HN  UNK N   1      30.650  19.204  -8.172  1.00  0.00     0.166 HD
ENDBRANCH  27  28
ENDBRANCH  13  25
BRANCH  14  35
HETATM   35  O   UNK N   1      30.869  23.584  -2.349  0.00  0.00    -0.394 OA
HETATM   36  H   UNK N   1      30.145  23.699  -1.713  0.00  0.00     0.210 HD
ENDBRANCH  14  35
BRANCH  17  37
HETATM   37  O   UNK N   1      27.565  25.860  -5.621  0.00  0.00    -0.394 OA
HETATM   38  H   UNK N   1      26.862  25.224  -5.416  0.00  0.00     0.210 HD
ENDBRANCH  17  37
TORSDOF 4
ENDMDL
MODEL 4
REMARK VINA RESULT:      -7.4      1.632      4.790
REMARK  4 active torsions:
REMARK  status: ('A' for Active; 'I' for Inactive)
REMARK    1  A    between atoms: C_19  and  C_11 
REMARK    2  A    between atoms: C_20  and  C_16 
REMARK    3  A    between atoms: C_21  and  O_30 
REMARK    4  A    between atoms: C_24  and  O_32 
ROOT
HETATM    1  C   UNK N   1      26.212  16.598   3.244  0.00  0.00     0.012 C 
HETATM    2  C   UNK N   1      28.042  14.892   1.604  0.00  0.00     0.020 C 
HETATM    3  C   UNK N   1      31.078  14.474   4.832  0.00  0.00     0.026 C 
HETATM    4  C   UNK N   1      31.769  16.159   2.965  0.00  0.00     0.026 C 
HETATM    5  C   UNK N   1      28.607  18.898   9.016  0.00  0.00     0.049 C 
HETATM    6  C   UNK N   1      28.191  15.831   6.520  0.00  0.00     0.004 C 
HETATM    7  C   UNK N   1      27.135  15.733   5.403  0.00  0.00     0.007 C 
HETATM    8  C   UNK N   1      27.894  17.028   7.404  0.00  0.00     0.040 C 
HETATM    9  C   UNK N   1      31.171  16.597   6.951  0.00  0.00     0.072 C 
HETATM   10  C   UNK N   1      34.039  14.583   3.811  0.00  0.00     0.144 C 
HETATM   11  C   UNK N   1      27.383  16.681   4.205  0.00  0.00     0.011 C 
HETATM   12  C   UNK N   1      28.848  14.932   2.899  0.00  0.00     0.081 C 
HETATM   13  C   UNK N   1      32.651  16.874   6.587  0.00  0.00     0.163 C 
HETATM   14  C   UNK N   1      32.789  13.904   3.163  0.00  0.00     0.142 C 
HETATM   15  C   UNK N   1      30.526  17.623   7.877  0.00  0.00     0.159 A 
HETATM   16  C   UNK N   1      33.914  15.145   5.213  0.00  0.00     0.261 C 
HETATM   17  C   UNK N   1      28.737  16.396   3.505  0.00  0.00     0.132 C 
HETATM   18  C   UNK N   1      30.230  14.286   2.623  0.00  0.00     0.143 C 
HETATM   19  C   UNK N   1      31.473  14.712   3.374  0.00  0.00     0.040 C 
HETATM   20  C   UNK N   1      29.048  17.751   8.128  0.00  0.00     0.084 A 
HETATM   21  O   UNK N   1      34.672  14.742   6.086  0.00  0.00    -0.265 OA
HETATM   22  O   UNK N   1      30.285  13.289   1.916  0.00  0.00    -0.297 OA
HETATM   23  O   UNK N   1      32.992  16.124   5.462  0.00  0.00    -0.311 OA
HETATM   24  O   UNK N   1      29.858  16.897   8.893  0.00  0.00    -0.369 OA
ENDROOT
BRANCH  13  25
HETATM   25  C   UNK N   1      33.646  16.727   7.723  0.00  0.00    -0.052 C 
HETATM   26  C   UNK N   1      34.608  17.856   7.943  0.00  0.00     0.046 C 
HETATM   27  C   UNK N   1      33.674  15.634   8.520  0.00  0.00     0.035 C 
BRANCH  27  28
HETATM   28  C   UNK N   1      34.728  15.432   9.538  0.00  0.00     0.039 A 
HETATM   29  C   UNK N   1      34.561  15.777  10.892  0.00  0.00     0.081 A 
HETATM   30  S   UNK N   1      35.962  15.271  11.628  0.00  0.00    -0.087 SA
HETATM   31  C   UNK N   1      36.698  14.613  10.312  0.00  0.00     0.047 A 
HETATM   32  C   UNK N   1      37.981  13.860  10.305  0.00  0.00     0.076 C 
HETATM   33  N   UNK N   1      35.910  14.782   9.229  0.00  0.00    -0.354 N 
ATOM     34  HN  UNK N   1      36.156  14.467   8.291  1.00  0.00     0.166 HD
ENDBRANCH  27  28
ENDBRANCH  13  25
BRANCH  14  35
HETATM   35  O   UNK N   1      33.054  13.778   1.798  0.00  0.00    -0.394 OA
HETATM   36  H   UNK N   1      33.552  14.413   1.259  0.00  0.00     0.210 HD
ENDBRANCH  14  35
BRANCH  17  37
HETATM   37  O   UNK N   1      29.698  16.681   4.465  0.00  0.00    -0.394 OA
HETATM   38  H   UNK N   1      29.611  17.460   5.035  0.00  0.00     0.210 HD
ENDBRANCH  17  37
TORSDOF 4
ENDMDL
MODEL 5
REMARK VINA RESULT:      -7.1      5.086     10.165
REMARK  4 active torsions:
REMARK  status: ('A' for Active; 'I' for Inactive)
REMARK    1  A    between atoms: C_19  and  C_11 
REMARK    2  A    between atoms: C_20  and  C_16 
REMARK    3  A    between atoms: C_21  and  O_30 
REMARK    4  A    between atoms: C_24  and  O_32 
ROOT
HETATM    1  C   UNK N   1      37.110   7.430  13.322  0.00  0.00     0.012 C 
HETATM    2  C   UNK N   1      37.552   9.838  15.042  0.00  0.00     0.020 C 
HETATM    3  C   UNK N   1      34.952  12.481  12.578  0.00  0.00     0.026 C 
HETATM    4  C   UNK N   1      37.501  12.884  12.202  0.00  0.00     0.026 C 
HETATM    5  C   UNK N   1      34.036   8.416   7.497  0.00  0.00     0.049 C 
HETATM    6  C   UNK N   1      34.182   9.157  11.400  0.00  0.00     0.004 C 
HETATM    7  C   UNK N   1      34.937   8.305  12.438  0.00  0.00     0.007 C 
HETATM    8  C   UNK N   1      34.162   8.440  10.064  0.00  0.00     0.040 C 
HETATM    9  C   UNK N   1      34.521  11.736   9.703  0.00  0.00     0.072 C 
HETATM   10  C   UNK N   1      36.062  15.391  12.235  0.00  0.00     0.144 C 
HETATM   11  C   UNK N   1      36.479   8.414  12.354  0.00  0.00     0.011 C 
HETATM   12  C   UNK N   1      36.600  10.447  14.016  0.00  0.00     0.081 C 
HETATM   13  C   UNK N   1      35.093  13.113   9.277  0.00  0.00     0.163 C 
HETATM   14  C   UNK N   1      36.083  14.461  13.492  0.00  0.00     0.142 C 
HETATM   15  C   UNK N   1      34.340  10.730   8.571  0.00  0.00     0.159 A 
HETATM   16  C   UNK N   1      35.263  14.955  11.023  0.00  0.00     0.261 C 
HETATM   17  C   UNK N   1      36.975   9.865  12.587  0.00  0.00     0.132 C 
HETATM   18  C   UNK N   1      36.544  11.977  14.264  0.00  0.00     0.143 C 
HETATM   19  C   UNK N   1      36.291  12.958  13.140  0.00  0.00     0.040 C 
HETATM   20  C   UNK N   1      34.100   9.256   8.757  0.00  0.00     0.084 A 
HETATM   21  O   UNK N   1      34.384  15.690  10.595  0.00  0.00    -0.265 OA
HETATM   22  O   UNK N   1      36.523  12.387  15.417  0.00  0.00    -0.297 OA
HETATM   23  O   UNK N   1      35.574  13.775  10.405  0.00  0.00    -0.311 OA
HETATM   24  O   UNK N   1      33.044  10.179   8.717  0.00  0.00    -0.369 OA
ENDROOT
BRANCH  13  25
HETATM   25  C   UNK N   1      34.172  13.973   8.432  0.00  0.00    -0.052 C 
HETATM   26  C   UNK N   1      34.808  14.822   7.372  0.00  0.00     0.046 C 
HETATM   27  C   UNK N   1      32.830  13.980   8.606  0.00  0.00     0.035 C 
BRANCH  27  28
HETATM   28  C   UNK N   1      31.949  14.916   7.874  0.00  0.00     0.039 A 
HETATM   29  C   UNK N   1      31.675  16.220   8.325  0.00  0.00     0.081 A 
HETATM   30  S   UNK N   1      30.736  16.889   7.128  0.00  0.00    -0.087 SA
HETATM   31  C   UNK N   1      30.731  15.612   6.091  0.00  0.00     0.047 A 
HETATM   32  C   UNK N   1      30.143  15.590   4.724  0.00  0.00     0.076 C 
HETATM   33  N   UNK N   1      31.428  14.592   6.634  0.00  0.00    -0.354 N 
ATOM     34  HN  UNK N   1      31.558  13.686   6.183  1.00  0.00     0.166 HD
ENDBRANCH  27  28
ENDBRANCH  13  25
BRANCH  14  35
HETATM   35  O   UNK N   1      37.121  14.906  14.312  0.00  0.00    -0.394 OA
HETATM   36  H   UNK N   1      37.112  14.906  15.283  0.00  0.00     0.210 HD
ENDBRANCH  14  35
BRANCH  17  37
HETATM   37  O   UNK N   1      36.450  10.593  11.528  0.00  0.00    -0.394 OA
HETATM   38  H   UNK N   1      35.537  10.447  11.234  0.00  0.00     0.210 HD
ENDBRANCH  17  37
TORSDOF 4
ENDMDL
MODEL 6
REMARK VINA RESULT:      -7.1      3.689      8.637
REMARK  4 active torsions:
REMARK  status: ('A' for Active; 'I' for Inactive)
REMARK    1  A    between atoms: C_19  and  C_11 
REMARK    2  A    between atoms: C_20  and  C_16 
REMARK    3  A    between atoms: C_21  and  O_30 
REMARK    4  A    between atoms: C_24  and  O_32 
ROOT
HETATM    1  C   UNK N   1      37.193   8.898   9.490  0.00  0.00     0.012 C 
HETATM    2  C   UNK N   1      37.659  10.948  11.619  0.00  0.00     0.020 C 
HETATM    3  C   UNK N   1      34.458  13.672  10.156  0.00  0.00     0.026 C 
HETATM    4  C   UNK N   1      36.864  14.470   9.543  0.00  0.00     0.026 C 
HETATM    5  C   UNK N   1      33.163  10.627   4.479  0.00  0.00     0.049 C 
HETATM    6  C   UNK N   1      33.845  10.582   8.395  0.00  0.00     0.004 C 
HETATM    7  C   UNK N   1      34.833   9.644   9.113  0.00  0.00     0.007 C 
HETATM    8  C   UNK N   1      33.686  10.152   6.949  0.00  0.00     0.040 C 
HETATM    9  C   UNK N   1      33.658  13.471   7.270  0.00  0.00     0.072 C 
HETATM   10  C   UNK N   1      35.208  16.711  10.311  0.00  0.00     0.144 C 
HETATM   11  C   UNK N   1      36.325   9.966   8.852  0.00  0.00     0.011 C 
HETATM   12  C   UNK N   1      36.503  11.622  10.886  0.00  0.00     0.081 C 
HETATM   13  C   UNK N   1      34.017  14.968   7.083  0.00  0.00     0.163 C 
HETATM   14  C   UNK N   1      35.516  15.558  11.321  0.00  0.00     0.142 C 
HETATM   15  C   UNK N   1      33.401  12.698   5.981  0.00  0.00     0.159 A 
HETATM   16  C   UNK N   1      34.276  16.428   9.150  0.00  0.00     0.261 C 
HETATM   17  C   UNK N   1      36.706  11.393   9.327  0.00  0.00     0.132 C 
HETATM   18  C   UNK N   1      36.337  13.051  11.466  0.00  0.00     0.143 C 
HETATM   19  C   UNK N   1      35.815  14.196  10.626  0.00  0.00     0.040 C 
HETATM   20  C   UNK N   1      33.340  11.199   5.871  0.00  0.00     0.084 A 
HETATM   21  O   UNK N   1      33.272  17.114   9.012  0.00  0.00    -0.265 OA
HETATM   22  O   UNK N   1      36.456  13.215  12.672  0.00  0.00    -0.297 OA
HETATM   23  O   UNK N   1      34.601  15.446   8.254  0.00  0.00    -0.311 OA
HETATM   24  O   UNK N   1      32.205  11.966   6.173  0.00  0.00    -0.369 OA
ENDROOT
BRANCH  13  25
HETATM   25  C   UNK N   1      32.895  15.853   6.575  0.00  0.00    -0.052 C 
HETATM   26  C   UNK N   1      33.283  17.065   5.780  0.00  0.00     0.046 C 
HETATM   27  C   UNK N   1      31.592  15.574   6.810  0.00  0.00     0.035 C 
BRANCH  27  28
HETATM   28  C   UNK N   1      30.508  16.506   6.430  0.00  0.00     0.039 A 
HETATM   29  C   UNK N   1      29.858  16.459   5.184  0.00  0.00     0.081 A 
HETATM   30  S   UNK N   1      28.676  17.622   5.283  0.00  0.00    -0.087 SA
HETATM   31  C   UNK N   1      28.951  18.109   6.830  0.00  0.00     0.047 A 
HETATM   32  C   UNK N   1      28.136  19.082   7.606  0.00  0.00     0.076 C 
HETATM   33  N   UNK N   1      29.995  17.417   7.337  0.00  0.00    -0.354 N 
ATOM     34  HN  UNK N   1      30.362  17.550   8.279  1.00  0.00     0.166 HD
ENDBRANCH  27  28
ENDBRANCH  13  25
BRANCH  14  35
HETATM   35  O   UNK N   1      36.622  15.959  12.074  0.00  0.00    -0.394 OA
HETATM   36  H   UNK N   1      37.113  16.788  11.956  0.00  0.00     0.210 HD
ENDBRANCH  14  35
BRANCH  17  37
HETATM   37  O   UNK N   1      35.952  12.244   8.532  0.00  0.00    -0.394 OA
HETATM   38  H   UNK N   1      35.848  12.071   7.583  0.00  0.00     0.210 HD
ENDBRANCH  17  37
TORSDOF 4
ENDMDL
MODEL 7
REMARK VINA RESULT:      -7.0     13.580     15.641
REMARK  4 active torsions:
REMARK  status: ('A' for Active; 'I' for Inactive)
REMARK    1  A    between atoms: C_19  and  C_11 
REMARK    2  A    between atoms: C_20  and  C_16 
REMARK    3  A    between atoms: C_21  and  O_30 
REMARK    4  A    between atoms: C_24  and  O_32 
ROOT
HETATM    1  C   UNK N   1      24.438  27.313  -5.563  0.00  0.00     0.012 C 
HETATM    2  C   UNK N   1      26.919  28.697  -4.627  0.00  0.00     0.020 C 
HETATM    3  C   UNK N   1      29.661  25.606  -6.284  0.00  0.00     0.026 C 
HETATM    4  C   UNK N   1      29.358  25.450  -3.699  0.00  0.00     0.026 C 
HETATM    5  C   UNK N   1      25.143  21.111  -7.884  0.00  0.00     0.049 C 
HETATM    6  C   UNK N   1      26.477  24.856  -7.809  0.00  0.00     0.004 C 
HETATM    7  C   UNK N   1      25.655  26.082  -7.371  0.00  0.00     0.007 C 
HETATM    8  C   UNK N   1      25.571  23.645  -7.926  0.00  0.00     0.040 C 
HETATM    9  C   UNK N   1      28.568  22.843  -6.702  0.00  0.00     0.072 C 
HETATM   10  C   UNK N   1      32.108  24.959  -4.438  0.00  0.00     0.144 C 
HETATM   11  C   UNK N   1      25.367  26.149  -5.851  0.00  0.00     0.011 C 
HETATM   12  C   UNK N   1      27.560  27.497  -5.318  0.00  0.00     0.081 C 
HETATM   13  C   UNK N   1      29.670  22.283  -5.767  0.00  0.00     0.163 C 
HETATM   14  C   UNK N   1      31.429  26.334  -4.742  0.00  0.00     0.142 C 
HETATM   15  C   UNK N   1      27.460  21.859  -7.063  0.00  0.00     0.159 A 
HETATM   16  C   UNK N   1      31.683  23.746  -5.240  0.00  0.00     0.261 C 
HETATM   17  C   UNK N   1      26.670  26.217  -5.013  0.00  0.00     0.132 C 
HETATM   18  C   UNK N   1      29.076  27.509  -4.992  0.00  0.00     0.143 C 
HETATM   19  C   UNK N   1      29.884  26.233  -4.907  0.00  0.00     0.040 C 
HETATM   20  C   UNK N   1      26.144  22.233  -7.688  0.00  0.00     0.084 A 
HETATM   21  O   UNK N   1      32.527  23.123  -5.869  0.00  0.00    -0.265 OA
HETATM   22  O   UNK N   1      29.669  28.580  -4.982  0.00  0.00    -0.297 OA
HETATM   23  O   UNK N   1      30.375  23.346  -5.206  0.00  0.00    -0.311 OA
HETATM   24  O   UNK N   1      27.277  21.945  -8.464  0.00  0.00    -0.369 OA
ENDROOT
BRANCH  13  25
HETATM   25  C   UNK N   1      30.573  21.227  -6.375  0.00  0.00    -0.052 C 
HETATM   26  C   UNK N   1      31.134  20.188  -5.450  0.00  0.00     0.046 C 
HETATM   27  C   UNK N   1      30.865  21.200  -7.696  0.00  0.00     0.035 C 
BRANCH  27  28
HETATM   28  C   UNK N   1      31.849  20.254  -8.264  0.00  0.00     0.039 A 
HETATM   29  C   UNK N   1      33.237  20.484  -8.237  0.00  0.00     0.081 A 
HETATM   30  S   UNK N   1      33.902  19.111  -8.895  0.00  0.00    -0.087 SA
HETATM   31  C   UNK N   1      32.511  18.269  -9.144  0.00  0.00     0.047 A 
HETATM   32  C   UNK N   1      32.405  16.864  -9.621  0.00  0.00     0.076 C 
HETATM   33  N   UNK N   1      31.458  19.023  -8.761  0.00  0.00    -0.354 N 
ATOM     34  HN  UNK N   1      30.486  18.721  -8.829  1.00  0.00     0.166 HD
ENDBRANCH  27  28
ENDBRANCH  13  25
BRANCH  14  35
HETATM   35  O   UNK N   1      31.739  27.187  -3.681  0.00  0.00    -0.394 OA
HETATM   36  H   UNK N   1      32.564  27.176  -3.171  0.00  0.00     0.210 HD
ENDBRANCH  14  35
BRANCH  17  37
HETATM   37  O   UNK N   1      27.314  25.013  -5.261  0.00  0.00    -0.394 OA
HETATM   38  H   UNK N   1      26.836  24.271  -5.662  0.00  0.00     0.210 HD
ENDBRANCH  17  37
TORSDOF 4
ENDMDL
MODEL 8
REMARK VINA RESULT:      -6.9      6.522     11.226
REMARK  4 active torsions:
REMARK  status: ('A' for Active; 'I' for Inactive)
REMARK    1  A    between atoms: C_19  and  C_11 
REMARK    2  A    between atoms: C_20  and  C_16 
REMARK    3  A    between atoms: C_21  and  O_30 
REMARK    4  A    between atoms: C_24  and  O_32 
ROOT
HETATM    1  C   UNK N   1      36.598   6.146  14.742  0.00  0.00     0.012 C 
HETATM    2  C   UNK N   1      35.961   8.312  16.705  0.00  0.00     0.020 C 
HETATM    3  C   UNK N   1      35.155  11.366  13.570  0.00  0.00     0.026 C 
HETATM    4  C   UNK N   1      37.468  11.658  14.736  0.00  0.00     0.026 C 
HETATM    5  C   UNK N   1      37.310   7.966   8.377  0.00  0.00     0.049 C 
HETATM    6  C   UNK N   1      35.228   8.249  11.752  0.00  0.00     0.004 C 
HETATM    7  C   UNK N   1      35.284   7.242  12.916  0.00  0.00     0.007 C 
HETATM    8  C   UNK N   1      35.973   7.691  10.554  0.00  0.00     0.040 C 
HETATM    9  C   UNK N   1      36.424  10.980  10.878  0.00  0.00     0.072 C 
HETATM   10  C   UNK N   1      36.223  14.226  14.279  0.00  0.00     0.144 C 
HETATM   11  C   UNK N   1      36.604   7.268  13.722  0.00  0.00     0.011 C 
HETATM   12  C   UNK N   1      35.741   9.089  15.411  0.00  0.00     0.081 C 
HETATM   13  C   UNK N   1      37.114  12.360  11.023  0.00  0.00     0.163 C 
HETATM   14  C   UNK N   1      35.547  13.160  15.202  0.00  0.00     0.142 C 
HETATM   15  C   UNK N   1      36.924  10.122   9.721  0.00  0.00     0.159 A 
HETATM   16  C   UNK N   1      36.248  13.979  12.783  0.00  0.00     0.261 C 
HETATM   17  C   UNK N   1      36.863   8.652  14.374  0.00  0.00     0.132 C 
HETATM   18  C   UNK N   1      35.533  10.581  15.777  0.00  0.00     0.143 C 
HETATM   19  C   UNK N   1      35.940  11.697  14.839  0.00  0.00     0.040 C 
HETATM   20  C   UNK N   1      36.643   8.653   9.552  0.00  0.00     0.084 A 
HETATM   21  O   UNK N   1      35.750  14.808  12.035  0.00  0.00    -0.265 OA
HETATM   22  O   UNK N   1      34.862  10.859  16.762  0.00  0.00    -0.297 OA
HETATM   23  O   UNK N   1      36.870  12.860  12.301  0.00  0.00    -0.311 OA
HETATM   24  O   UNK N   1      35.777   9.635   9.046  0.00  0.00    -0.369 OA
ENDROOT
BRANCH  13  25
HETATM   25  C   UNK N   1      36.814  13.363   9.925  0.00  0.00    -0.052 C 
HETATM   26  C   UNK N   1      37.944  14.239   9.469  0.00  0.00     0.046 C 
HETATM   27  C   UNK N   1      35.589  13.472   9.362  0.00  0.00     0.035 C 
BRANCH  27  28
HETATM   28  C   UNK N   1      35.264  14.538   8.390  0.00  0.00     0.039 A 
HETATM   29  C   UNK N   1      35.159  14.307   7.006  0.00  0.00     0.081 A 
HETATM   30  S   UNK N   1      34.686  15.768   6.372  0.00  0.00    -0.087 SA
HETATM   31  C   UNK N   1      34.577  16.613   7.779  0.00  0.00     0.047 A 
HETATM   32  C   UNK N   1      34.074  18.005   7.934  0.00  0.00     0.076 C 
HETATM   33  N   UNK N   1      34.933  15.815   8.808  0.00  0.00    -0.354 N 
ATOM     34  HN  UNK N   1      34.955  16.117   9.782  1.00  0.00     0.166 HD
ENDBRANCH  27  28
ENDBRANCH  13  25
BRANCH  14  35
HETATM   35  O   UNK N   1      35.939  13.446  16.511  0.00  0.00    -0.394 OA
HETATM   36  H   UNK N   1      35.392  13.889  17.179  0.00  0.00     0.210 HD
ENDBRANCH  14  35
BRANCH  17  37
HETATM   37  O   UNK N   1      37.011   9.525  13.306  0.00  0.00    -0.394 OA
HETATM   38  H   UNK N   1      36.244   9.994  12.942  0.00  0.00     0.210 HD
ENDBRANCH  17  37
TORSDOF 4
ENDMDL
MODEL 9
REMARK VINA RESULT:      -6.9      8.604     11.015
REMARK  4 active torsions:
REMARK  status: ('A' for Active; 'I' for Inactive)
REMARK    1  A    between atoms: C_19  and  C_11 
REMARK    2  A    between atoms: C_20  and  C_16 
REMARK    3  A    between atoms: C_21  and  O_30 
REMARK    4  A    between atoms: C_24  and  O_32 
ROOT
HETATM    1  C   UNK N   1      39.059  10.124   6.703  0.00  0.00     0.012 C 
HETATM    2  C   UNK N   1      38.957  13.069   7.220  0.00  0.00     0.020 C 
HETATM    3  C   UNK N   1      37.789  12.609  11.491  0.00  0.00     0.026 C 
HETATM    4  C   UNK N   1      35.811  13.305   9.941  0.00  0.00     0.026 C 
HETATM    5  C   UNK N   1      36.596   6.147  11.442  0.00  0.00     0.049 C 
HETATM    6  C   UNK N   1      38.837   9.297  10.512  0.00  0.00     0.004 C 
HETATM    7  C   UNK N   1      39.428   9.585   9.119  0.00  0.00     0.007 C 
HETATM    8  C   UNK N   1      38.242   7.901  10.539  0.00  0.00     0.040 C 
HETATM    9  C   UNK N   1      36.418  10.066  12.302  0.00  0.00     0.072 C 
HETATM   10  C   UNK N   1      35.677  14.710  12.463  0.00  0.00     0.144 C 
HETATM   11  C   UNK N   1      38.385  10.007   8.057  0.00  0.00     0.011 C 
HETATM   12  C   UNK N   1      38.594  12.568   8.615  0.00  0.00     0.081 C 
HETATM   13  C   UNK N   1      35.213  10.897  12.812  0.00  0.00     0.163 C 
HETATM   14  C   UNK N   1      36.897  14.898  11.504  0.00  0.00     0.142 C 
HETATM   15  C   UNK N   1      36.180   8.562  12.216  0.00  0.00     0.159 A 
HETATM   16  C   UNK N   1      35.526  13.392  13.196  0.00  0.00     0.261 C 
HETATM   17  C   UNK N   1      37.639  11.308   8.455  0.00  0.00     0.132 C 
HETATM   18  C   UNK N   1      38.163  13.790   9.467  0.00  0.00     0.143 C 
HETATM   19  C   UNK N   1      37.154  13.665  10.587  0.00  0.00     0.040 C 
HETATM   20  C   UNK N   1      37.061   7.590  11.479  0.00  0.00     0.084 A 
HETATM   21  O   UNK N   1      35.471  13.394  14.418  0.00  0.00    -0.265 OA
HETATM   22  O   UNK N   1      38.784  14.838   9.351  0.00  0.00    -0.297 OA
HETATM   23  O   UNK N   1      35.407  12.235  12.475  0.00  0.00    -0.311 OA
HETATM   24  O   UNK N   1      37.298   7.935  12.819  0.00  0.00    -0.369 OA
ENDROOT
BRANCH  13  25
HETATM   25  C   UNK N   1      34.849  10.699  14.272  0.00  0.00    -0.052 C 
HETATM   26  C   UNK N   1      33.401  10.826  14.641  0.00  0.00     0.046 C 
HETATM   27  C   UNK N   1      35.776  10.410  15.214  0.00  0.00     0.035 C 
BRANCH  27  28
HETATM   28  C   UNK N   1      35.441  10.351  16.653  0.00  0.00     0.039 A 
HETATM   29  C   UNK N   1      35.163   9.146  17.325  0.00  0.00     0.081 A 
HETATM   30  S   UNK N   1      34.950   9.592  18.912  0.00  0.00    -0.087 SA
HETATM   31  C   UNK N   1      35.245  11.202  18.748  0.00  0.00     0.047 A 
HETATM   32  C   UNK N   1      35.331  12.199  19.849  0.00  0.00     0.076 C 
HETATM   33  N   UNK N   1      35.491  11.481  17.449  0.00  0.00    -0.354 N 
ATOM     34  HN  UNK N   1      35.692  12.416  17.096  1.00  0.00     0.166 HD
ENDBRANCH  27  28
ENDBRANCH  13  25
BRANCH  14  35
HETATM   35  O   UNK N   1      36.633  16.025  10.723  0.00  0.00    -0.394 OA
HETATM   36  H   UNK N   1      37.244  16.421  10.081  0.00  0.00     0.210 HD
ENDBRANCH  14  35
BRANCH  17  37
HETATM   37  O   UNK N   1      36.945  10.979   9.610  0.00  0.00    -0.394 OA
HETATM   38  H   UNK N   1      35.996  11.167   9.687  0.00  0.00     0.210 HD
ENDBRANCH  17  37
TORSDOF 4
ENDMDL
