MODEL 1
REMARK VINA RESULT:      -7.7      0.000      0.000
REMARK  18 active torsions:
REMARK  status: ('A' for Active; 'I' for Inactive)
REMARK    1  A    between atoms: C_17  and  C_16 
REMARK    2  A    between atoms: C_27  and  C_16 
REMARK    3  A    between atoms: C_38  and  C_17 
REMARK    4  A    between atoms: C_28  and  C_18 
REMARK    5  A    between atoms: N_53  and  C_19 
REMARK    6  A    between atoms: C_40  and  C_22 
REMARK    7  A    between atoms: C_41  and  C_22 
REMARK    8  A    between atoms: N_53  and  C_26 
REMARK    9  A    between atoms: O_54  and  C_26 
REMARK   10  A    between atoms: C_40  and  C_27 
REMARK   11  A    between atoms: C_44  and  C_28 
REMARK   12  A    between atoms: C_38  and  C_30 
REMARK   13  A    between atoms: C_44  and  C_30 
REMARK   14  A    between atoms: O_65  and  C_32 
REMARK   15  A    between atoms: C_34  and  O_57 
REMARK   16  A    between atoms: C_39  and  O_60 
REMARK   17  A    between atoms: C_40  and  O_61 
REMARK   18  A    between atoms: O_65  and  C_44 
ROOT
HETATM    1  C   UNK N   1      25.772  14.529   2.046  0.00  0.00     0.017 C 
HETATM    2  C   UNK N   1      22.532  11.110   0.301  0.00  0.00     0.015 C 
HETATM    3  C   UNK N   1      26.798  11.620   2.676  0.00  0.00     0.010 C 
HETATM    4  C   UNK N   1      21.466  15.242   0.840  0.00  0.00    -0.020 C 
HETATM    5  C   UNK N   1      26.664  12.428   3.971  0.00  0.00     0.078 C 
HETATM    6  C   UNK N   1      25.811  10.471   2.604  0.00  0.00     0.032 C 
HETATM    7  C   UNK N   1      22.119  13.868   0.855  0.00  0.00     0.059 C 
HETATM    8  C   UNK N   1      20.818  15.748   1.896  0.00  0.00     0.052 C 
HETATM    9  C   UNK N   1      24.852  14.228   4.433  0.00  0.00     0.088 C 
HETATM   10  C   UNK N   1      24.640   8.806   4.043  0.00  0.00     0.142 C 
HETATM   11  C   UNK N   1      26.089  17.235   3.061  0.00  0.00     0.169 A 
HETATM   12  C   UNK N   1      19.622  18.717   3.228  0.00  0.00     0.211 A 
HETATM   13  C   UNK N   1      23.762  20.485   2.845  0.00  0.00     0.178 A 
HETATM   14  C   UNK N   1      24.796  15.002   3.117  0.00  0.00     0.040 C 
HETATM   15  C   UNK N   1      22.663  11.553   1.749  0.00  0.00     0.040 C 
HETATM   16  C   UNK N   1      25.252  12.794   4.348  0.00  0.00     0.127 C 
HETATM   17  C   UNK N   1      25.998   9.411   3.686  0.00  0.00     0.127 C 
HETATM   18  C   UNK N   1      25.030  16.434   3.448  0.00  0.00     0.038 A 
HETATM   19  C   UNK N   1      20.624  19.196   2.405  0.00  0.00     0.183 A 
HETATM   20  C   UNK N   1      23.639  19.556   3.850  0.00  0.00     0.108 A 
HETATM   21  C   UNK N   1      21.864  12.882   2.029  0.00  0.00     0.130 C 
HETATM   22  C   UNK N   1      22.400  10.351   2.716  0.00  0.00     0.140 C 
HETATM   23  C   UNK N   1      20.303  17.119   2.006  0.00  0.00     0.138 A 
HETATM   24  C   UNK N   1      23.884   8.365   2.827  0.00  0.00     0.261 C 
HETATM   25  C   UNK N   1      21.709  19.943   3.041  0.00  0.00     0.148 A 
HETATM   26  C   UNK N   1      24.576  18.446   3.941  0.00  0.00     0.176 A 
HETATM   27  N   UNK N   1      21.038  18.174   1.619  0.00  0.00    -0.357 N 
ATOM     28  HN  UNK N   1      21.752  18.200   0.891  1.00  0.00     0.162 HD
HETATM   29  N   UNK N   1      24.093  17.199   4.016  0.00  0.00    -0.336 N 
ATOM     30  HN  UNK N   1      23.205  16.899   4.419  1.00  0.00     0.168 HD
HETATM   31  N   UNK N   1      22.344  19.250   3.994  0.00  0.00    -0.333 N 
ATOM     32  HN  UNK N   1      21.930  18.623   4.682  1.00  0.00     0.168 HD
HETATM   33  O   UNK N   1      24.485  11.936   4.749  0.00  0.00    -0.298 OA
HETATM   34  O   UNK N   1      24.146   7.283   2.326  0.00  0.00    -0.265 OA
HETATM   35  O   UNK N   1      19.464  17.446   2.954  0.00  0.00    -0.334 OA
HETATM   36  O   UNK N   1      25.765  18.470   3.366  0.00  0.00    -0.302 OA
HETATM   37  O   UNK N   1      22.555  20.672   2.349  0.00  0.00    -0.305 OA
HETATM   38  O   UNK N   1      22.951   9.163   2.235  0.00  0.00    -0.315 OA
ENDROOT
BRANCH  22  39
HETATM   39  C   UNK N   1      20.929  10.096   3.026  0.00  0.00     0.065 C 
BRANCH  39  40
HETATM   40  C   UNK N   1      20.469   9.496   4.356  0.00  0.00     0.127 C 
BRANCH  40  41
HETATM   41  C   UNK N   1      20.605  10.385   5.654  0.00  0.00     0.011 C 
HETATM   42  C   UNK N   1      21.965  10.426   6.338  0.00  0.00     0.012 C 
BRANCH  41  43
HETATM   43  C   UNK N   1      20.145  11.800   5.415  0.00  0.00     0.014 C 
BRANCH  43  44
HETATM   44  C   UNK N   1      21.019  12.774   6.157  0.00  0.00     0.079 C 
BRANCH  44  45
HETATM   45  C   UNK N   1      20.416  14.108   6.143  0.00  0.00     0.133 C 
HETATM   46  O   UNK N   1      19.297  14.258   5.676  0.00  0.00    -0.297 OA
BRANCH  45  47
HETATM   47  C   UNK N   1      21.176  15.230   6.788  0.00  0.00     0.081 C 
HETATM   48  C   UNK N   1      21.366  16.360   5.791  0.00  0.00     0.020 C 
BRANCH  47  49
HETATM   49  C   UNK N   1      20.426  15.602   8.111  0.00  0.00     0.150 C 
BRANCH  49  50
HETATM   50  C   UNK N   1      20.898  14.878   9.409  0.00  0.00     0.036 C 
HETATM   51  C   UNK N   1      19.895  13.863   9.941  0.00  0.00     0.017 C 
BRANCH  50  52
HETATM   52  C   UNK N   1      22.290  14.302   9.318  0.00  0.00    -0.003 C 
HETATM   53  C   UNK N   1      22.608  13.099   9.825  0.00  0.00     0.083 C 
BRANCH  53  54
HETATM   54  N   UNK N   1      23.887  12.506   9.649  0.00  0.00    -0.374 N 
HETATM   55  C   UNK N   1      24.395  12.339   8.314  0.00  0.00     0.151 C 
BRANCH  54  56
HETATM   56  C   UNK N   1      24.695  12.079  10.761  0.00  0.00     0.288 C 
BRANCH  56  57
HETATM   57  O   UNK N   1      25.544  13.120  11.140  0.00  0.00    -0.382 OA
HETATM   58  H   UNK N   1      25.177  13.992  11.352  0.00  0.00     0.211 HD
ENDBRANCH  56  57
ENDBRANCH  54  56
ENDBRANCH  53  54
ENDBRANCH  50  52
ENDBRANCH  49  50
BRANCH  49  59
HETATM   59  O   UNK N   1      20.462  16.986   8.258  0.00  0.00    -0.315 OA
BRANCH  59  60
HETATM   60  C   UNK N   1      19.567  17.761   8.922  0.00  0.00     0.255 C 
HETATM   61  C   UNK N   1      18.175  17.262   9.099  0.00  0.00     0.126 C 
HETATM   62  O   UNK N   1      19.895  18.825   9.423  0.00  0.00    -0.266 OA
ENDBRANCH  59  60
ENDBRANCH  49  59
ENDBRANCH  47  49
ENDBRANCH  45  47
ENDBRANCH  44  45
ENDBRANCH  43  44
ENDBRANCH  41  43
ENDBRANCH  40  41
BRANCH  40  63
HETATM   63  O   UNK N   1      19.338   8.641   4.225  0.00  0.00    -0.390 OA
HETATM   64  C   UNK N   1      19.004   8.013   5.435  0.00  0.00     0.202 C 
ENDBRANCH  40  63
ENDBRANCH  39  40
ENDBRANCH  22  39
BRANCH  21  65
HETATM   65  O   UNK N   1      20.473  12.650   2.064  0.00  0.00    -0.390 OA
HETATM   66  C   UNK N   1      19.936  12.525   0.768  0.00  0.00     0.202 C 
ENDBRANCH  21  65
BRANCH  17  67
HETATM   67  O   UNK N   1      26.879   8.428   3.234  0.00  0.00    -0.395 OA
HETATM   68  H   UNK N   1      27.013   8.123   2.323  0.00  0.00     0.210 HD
ENDBRANCH  17  67
TORSDOF 18
ENDMDL
MODEL 2
REMARK VINA RESULT:      -7.6      8.852     13.887
REMARK  18 active torsions:
REMARK  status: ('A' for Active; 'I' for Inactive)
REMARK    1  A    between atoms: C_17  and  C_16 
REMARK    2  A    between atoms: C_27  and  C_16 
REMARK    3  A    between atoms: C_38  and  C_17 
REMARK    4  A    between atoms: C_28  and  C_18 
REMARK    5  A    between atoms: N_53  and  C_19 
REMARK    6  A    between atoms: C_40  and  C_22 
REMARK    7  A    between atoms: C_41  and  C_22 
REMARK    8  A    between atoms: N_53  and  C_26 
REMARK    9  A    between atoms: O_54  and  C_26 
REMARK   10  A    between atoms: C_40  and  C_27 
REMARK   11  A    between atoms: C_44  and  C_28 
REMARK   12  A    between atoms: C_38  and  C_30 
REMARK   13  A    between atoms: C_44  and  C_30 
REMARK   14  A    between atoms: O_65  and  C_32 
REMARK   15  A    between atoms: C_34  and  O_57 
REMARK   16  A    between atoms: C_39  and  O_60 
REMARK   17  A    between atoms: C_40  and  O_61 
REMARK   18  A    between atoms: O_65  and  C_44 
ROOT
HETATM    1  C   UNK N   1      36.123   9.688   8.607  0.00  0.00     0.017 C 
HETATM    2  C   UNK N   1      36.580  14.241   6.536  0.00  0.00     0.015 C 
HETATM    3  C   UNK N   1      34.789   9.738   5.756  0.00  0.00     0.010 C 
HETATM    4  C   UNK N   1      37.134  13.550  10.745  0.00  0.00    -0.020 C 
HETATM    5  C   UNK N   1      33.765   9.314   6.814  0.00  0.00     0.078 C 
HETATM    6  C   UNK N   1      34.458  11.081   5.134  0.00  0.00     0.032 C 
HETATM    7  C   UNK N   1      36.788  13.473   9.266  0.00  0.00     0.059 C 
HETATM    8  C   UNK N   1      36.215  13.751  11.696  0.00  0.00     0.052 C 
HETATM    9  C   UNK N   1      33.682  10.194   9.255  0.00  0.00     0.088 C 
HETATM   10  C   UNK N   1      32.523  12.504   4.468  0.00  0.00     0.142 C 
HETATM   11  C   UNK N   1      35.934   8.191  11.092  0.00  0.00     0.169 A 
HETATM   12  C   UNK N   1      35.674  13.469  15.108  0.00  0.00     0.211 A 
HETATM   13  C   UNK N   1      36.864   9.116  14.874  0.00  0.00     0.178 A 
HETATM   14  C   UNK N   1      35.154  10.197   9.667  0.00  0.00     0.040 C 
HETATM   15  C   UNK N   1      35.329  13.687   7.197  0.00  0.00     0.040 C 
HETATM   16  C   UNK N   1      33.394  10.388   7.805  0.00  0.00     0.127 C 
HETATM   17  C   UNK N   1      33.141  11.110   4.362  0.00  0.00     0.127 C 
HETATM   18  C   UNK N   1      35.255   9.382  10.910  0.00  0.00     0.038 A 
HETATM   19  C   UNK N   1      36.676  12.531  14.933  0.00  0.00     0.183 A 
HETATM   20  C   UNK N   1      35.633   9.392  14.329  0.00  0.00     0.108 A 
HETATM   21  C   UNK N   1      35.369  13.859   8.763  0.00  0.00     0.130 C 
HETATM   22  C   UNK N   1      34.046  14.200   6.461  0.00  0.00     0.140 C 
HETATM   23  C   UNK N   1      36.452  13.680  13.143  0.00  0.00     0.138 A 
HETATM   24  C   UNK N   1      33.503  13.582   4.120  0.00  0.00     0.261 C 
HETATM   25  C   UNK N   1      36.362  11.147  15.288  0.00  0.00     0.148 A 
HETATM   26  C   UNK N   1      35.310   8.943  12.983  0.00  0.00     0.176 A 
HETATM   27  N   UNK N   1      37.175  12.687  13.685  0.00  0.00    -0.357 N 
ATOM     28  HN  UNK N   1      37.936  12.164  13.250  1.00  0.00     0.162 HD
HETATM   29  N   UNK N   1      34.851   9.838  12.098  0.00  0.00    -0.336 N 
ATOM     30  HN  UNK N   1      34.311  10.682  12.290  1.00  0.00     0.168 HD
HETATM   31  N   UNK N   1      35.307  10.656  14.626  0.00  0.00    -0.333 N 
ATOM     32  HN  UNK N   1      34.440  11.140  14.398  1.00  0.00     0.168 HD
HETATM   33  O   UNK N   1      32.710  11.333   7.454  0.00  0.00    -0.298 OA
HETATM   34  O   UNK N   1      33.700  13.845   2.944  0.00  0.00    -0.265 OA
HETATM   35  O   UNK N   1      35.569  14.142  13.991  0.00  0.00    -0.334 OA
HETATM   36  O   UNK N   1      35.961   7.962  12.385  0.00  0.00    -0.302 OA
HETATM   37  O   UNK N   1      37.295  10.233  15.427  0.00  0.00    -0.305 OA
HETATM   38  O   UNK N   1      34.218  14.237   5.077  0.00  0.00    -0.315 OA
ENDROOT
BRANCH  22  39
HETATM   39  C   UNK N   1      33.561  15.573   6.913  0.00  0.00     0.065 C 
BRANCH  39  40
HETATM   40  C   UNK N   1      33.788  16.833   6.075  0.00  0.00     0.127 C 
BRANCH  40  41
HETATM   41  C   UNK N   1      32.646  17.273   5.079  0.00  0.00     0.011 C 
HETATM   42  C   UNK N   1      32.979  17.292   3.593  0.00  0.00     0.012 C 
BRANCH  41  43
HETATM   43  C   UNK N   1      31.387  16.469   5.278  0.00  0.00     0.014 C 
BRANCH  43  44
HETATM   44  C   UNK N   1      30.740  16.160   3.955  0.00  0.00     0.079 C 
BRANCH  44  45
HETATM   45  C   UNK N   1      29.354  15.733   4.156  0.00  0.00     0.133 C 
HETATM   46  O   UNK N   1      29.098  14.906   5.018  0.00  0.00    -0.297 OA
BRANCH  45  47
HETATM   47  C   UNK N   1      28.287  16.402   3.341  0.00  0.00     0.081 C 
HETATM   48  C   UNK N   1      27.515  15.358   2.552  0.00  0.00     0.020 C 
BRANCH  47  49
HETATM   49  C   UNK N   1      27.441  17.288   4.316  0.00  0.00     0.150 C 
BRANCH  49  50
HETATM   50  C   UNK N   1      28.115  18.596   4.834  0.00  0.00     0.036 C 
HETATM   51  C   UNK N   1      27.600  19.857   4.153  0.00  0.00     0.017 C 
BRANCH  50  52
HETATM   52  C   UNK N   1      28.120  18.728   6.337  0.00  0.00    -0.003 C 
HETATM   53  C   UNK N   1      28.652  17.793   7.143  0.00  0.00     0.083 C 
BRANCH  53  54
HETATM   54  N   UNK N   1      28.754  17.962   8.549  0.00  0.00    -0.374 N 
HETATM   55  C   UNK N   1      27.894  17.189   9.405  0.00  0.00     0.151 C 
BRANCH  54  56
HETATM   56  C   UNK N   1      29.698  18.870   9.147  0.00  0.00     0.288 C 
BRANCH  56  57
HETATM   57  O   UNK N   1      29.779  18.615  10.517  0.00  0.00    -0.382 OA
HETATM   58  H   UNK N   1      30.329  17.885  10.842  0.00  0.00     0.211 HD
ENDBRANCH  56  57
ENDBRANCH  54  56
ENDBRANCH  53  54
ENDBRANCH  50  52
ENDBRANCH  49  50
BRANCH  49  59
HETATM   59  O   UNK N   1      26.215  17.553   3.711  0.00  0.00    -0.315 OA
BRANCH  59  60
HETATM   60  C   UNK N   1      24.982  17.279   4.209  0.00  0.00     0.255 C 
HETATM   61  C   UNK N   1      24.866  16.382   5.393  0.00  0.00     0.126 C 
HETATM   62  O   UNK N   1      23.979  17.796   3.743  0.00  0.00    -0.266 OA
ENDBRANCH  59  60
ENDBRANCH  49  59
ENDBRANCH  47  49
ENDBRANCH  45  47
ENDBRANCH  44  45
ENDBRANCH  43  44
ENDBRANCH  41  43
ENDBRANCH  40  41
BRANCH  40  63
HETATM   63  O   UNK N   1      34.523  17.840   6.765  0.00  0.00    -0.390 OA
HETATM   64  C   UNK N   1      33.852  18.296   7.910  0.00  0.00     0.202 C 
ENDBRANCH  40  63
ENDBRANCH  39  40
ENDBRANCH  22  39
BRANCH  21  65
HETATM   65  O   UNK N   1      35.160  15.201   9.140  0.00  0.00    -0.390 OA
HETATM   66  C   UNK N   1      34.063  15.328  10.016  0.00  0.00     0.202 C 
ENDBRANCH  21  65
BRANCH  17  67
HETATM   67  O   UNK N   1      33.369  10.765   3.029  0.00  0.00    -0.395 OA
HETATM   68  H   UNK N   1      33.404   9.877   2.642  0.00  0.00     0.210 HD
ENDBRANCH  17  67
TORSDOF 18
ENDMDL
MODEL 3
REMARK VINA RESULT:      -7.5      8.865     14.024
REMARK  18 active torsions:
REMARK  status: ('A' for Active; 'I' for Inactive)
REMARK    1  A    between atoms: C_17  and  C_16 
REMARK    2  A    between atoms: C_27  and  C_16 
REMARK    3  A    between atoms: C_38  and  C_17 
REMARK    4  A    between atoms: C_28  and  C_18 
REMARK    5  A    between atoms: N_53  and  C_19 
REMARK    6  A    between atoms: C_40  and  C_22 
REMARK    7  A    between atoms: C_41  and  C_22 
REMARK    8  A    between atoms: N_53  and  C_26 
REMARK    9  A    between atoms: O_54  and  C_26 
REMARK   10  A    between atoms: C_40  and  C_27 
REMARK   11  A    between atoms: C_44  and  C_28 
REMARK   12  A    between atoms: C_38  and  C_30 
REMARK   13  A    between atoms: C_44  and  C_30 
REMARK   14  A    between atoms: O_65  and  C_32 
REMARK   15  A    between atoms: C_34  and  O_57 
REMARK   16  A    between atoms: C_39  and  O_60 
REMARK   17  A    between atoms: C_40  and  O_61 
REMARK   18  A    between atoms: O_65  and  C_44 
ROOT
HETATM    1  C   UNK N   1      36.101   9.636   8.780  0.00  0.00     0.017 C 
HETATM    2  C   UNK N   1      36.621  14.165   6.670  0.00  0.00     0.015 C 
HETATM    3  C   UNK N   1      34.722   9.696   5.950  0.00  0.00     0.010 C 
HETATM    4  C   UNK N   1      37.228  13.490  10.874  0.00  0.00    -0.020 C 
HETATM    5  C   UNK N   1      33.706   9.301   7.027  0.00  0.00     0.078 C 
HETATM    6  C   UNK N   1      34.410  11.041   5.323  0.00  0.00     0.032 C 
HETATM    7  C   UNK N   1      36.856  13.411   9.401  0.00  0.00     0.059 C 
HETATM    8  C   UNK N   1      36.328  13.717  11.838  0.00  0.00     0.052 C 
HETATM    9  C   UNK N   1      33.682  10.198   9.463  0.00  0.00     0.088 C 
HETATM   10  C   UNK N   1      32.495  12.501   4.679  0.00  0.00     0.142 C 
HETATM   11  C   UNK N   1      35.919   8.161  11.278  0.00  0.00     0.169 A 
HETATM   12  C   UNK N   1      35.837  13.469  15.261  0.00  0.00     0.211 A 
HETATM   13  C   UNK N   1      36.930   9.090  15.038  0.00  0.00     0.178 A 
HETATM   14  C   UNK N   1      35.159  10.173   9.852  0.00  0.00     0.040 C 
HETATM   15  C   UNK N   1      35.369  13.642   7.355  0.00  0.00     0.040 C 
HETATM   16  C   UNK N   1      33.374  10.389   8.016  0.00  0.00     0.127 C 
HETATM   17  C   UNK N   1      33.081  11.094   4.573  0.00  0.00     0.127 C 
HETATM   18  C   UNK N   1      35.263   9.365  11.098  0.00  0.00     0.038 A 
HETATM   19  C   UNK N   1      36.815  12.508  15.076  0.00  0.00     0.183 A 
HETATM   20  C   UNK N   1      35.696   9.389  14.511  0.00  0.00     0.108 A 
HETATM   21  C   UNK N   1      35.438  13.823   8.918  0.00  0.00     0.130 C 
HETATM   22  C   UNK N   1      34.086  14.177   6.636  0.00  0.00     0.140 C 
HETATM   23  C   UNK N   1      36.587  13.650  13.282  0.00  0.00     0.138 A 
HETATM   24  C   UNK N   1      33.492  13.556   4.308  0.00  0.00     0.261 C 
HETATM   25  C   UNK N   1      36.477  11.134  15.445  0.00  0.00     0.148 A 
HETATM   26  C   UNK N   1      35.342   8.938  13.173  0.00  0.00     0.176 A 
HETATM   27  N   UNK N   1      37.298  12.646  13.819  0.00  0.00    -0.357 N 
ATOM     28  HN  UNK N   1      38.040  12.104  13.376  1.00  0.00     0.162 HD
HETATM   29  N   UNK N   1      34.888   9.837  12.289  0.00  0.00    -0.336 N 
ATOM     30  HN  UNK N   1      34.369  10.693  12.484  1.00  0.00     0.168 HD
HETATM   31  N   UNK N   1      35.402  10.661  14.804  0.00  0.00    -0.333 N 
ATOM     32  HN  UNK N   1      34.542  11.163  14.586  1.00  0.00     0.168 HD
HETATM   33  O   UNK N   1      32.705  11.346   7.670  0.00  0.00    -0.298 OA
HETATM   34  O   UNK N   1      33.676  13.807   3.127  0.00  0.00    -0.265 OA
HETATM   35  O   UNK N   1      35.728  14.137  14.140  0.00  0.00    -0.334 OA
HETATM   36  O   UNK N   1      35.962   7.940  12.571  0.00  0.00    -0.302 OA
HETATM   37  O   UNK N   1      37.393  10.201  15.576  0.00  0.00    -0.305 OA
HETATM   38  O   UNK N   1      34.236  14.202   5.249  0.00  0.00    -0.315 OA
ENDROOT
BRANCH  22  39
HETATM   39  C   UNK N   1      33.638  15.563   7.085  0.00  0.00     0.065 C 
BRANCH  39  40
HETATM   40  C   UNK N   1      33.826  16.804   6.210  0.00  0.00     0.127 C 
BRANCH  40  41
HETATM   41  C   UNK N   1      32.640  17.222   5.257  0.00  0.00     0.011 C 
HETATM   42  C   UNK N   1      32.911  17.226   3.758  0.00  0.00     0.012 C 
BRANCH  41  43
HETATM   43  C   UNK N   1      31.398  16.410   5.517  0.00  0.00     0.014 C 
BRANCH  43  44
HETATM   44  C   UNK N   1      30.216  17.310   5.758  0.00  0.00     0.079 C 
BRANCH  44  45
HETATM   45  C   UNK N   1      29.756  17.183   7.142  0.00  0.00     0.133 C 
HETATM   46  O   UNK N   1      30.572  16.998   8.033  0.00  0.00    -0.297 OA
BRANCH  45  47
HETATM   47  C   UNK N   1      28.294  17.372   7.418  0.00  0.00     0.081 C 
HETATM   48  C   UNK N   1      28.113  18.286   8.618  0.00  0.00     0.020 C 
BRANCH  47  49
HETATM   49  C   UNK N   1      27.626  17.851   6.085  0.00  0.00     0.150 C 
BRANCH  49  50
HETATM   50  C   UNK N   1      26.521  16.927   5.487  0.00  0.00     0.036 C 
HETATM   51  C   UNK N   1      26.205  15.714   6.354  0.00  0.00     0.017 C 
BRANCH  50  52
HETATM   52  C   UNK N   1      25.271  17.660   5.066  0.00  0.00    -0.003 C 
HETATM   53  C   UNK N   1      24.038  17.174   5.290  0.00  0.00     0.083 C 
BRANCH  53  54
HETATM   54  N   UNK N   1      22.859  17.907   4.992  0.00  0.00    -0.374 N 
HETATM   55  C   UNK N   1      21.773  17.886   5.934  0.00  0.00     0.151 C 
BRANCH  54  56
HETATM   56  C   UNK N   1      22.720  18.680   3.785  0.00  0.00     0.288 C 
BRANCH  56  57
HETATM   57  O   UNK N   1      21.364  18.873   3.516  0.00  0.00    -0.382 OA
HETATM   58  H   UNK N   1      20.695  18.543   4.136  0.00  0.00     0.211 HD
ENDBRANCH  56  57
ENDBRANCH  54  56
ENDBRANCH  53  54
ENDBRANCH  50  52
ENDBRANCH  49  50
BRANCH  49  59
HETATM   59  O   UNK N   1      27.156  19.148   6.274  0.00  0.00    -0.315 OA
BRANCH  59  60
HETATM   60  C   UNK N   1      27.568  20.268   5.626  0.00  0.00     0.255 C 
HETATM   61  C   UNK N   1      27.272  21.598   6.228  0.00  0.00     0.126 C 
HETATM   62  O   UNK N   1      28.219  20.203   4.596  0.00  0.00    -0.266 OA
ENDBRANCH  59  60
ENDBRANCH  49  59
ENDBRANCH  47  49
ENDBRANCH  45  47
ENDBRANCH  44  45
ENDBRANCH  43  44
ENDBRANCH  41  43
ENDBRANCH  40  41
BRANCH  40  63
HETATM   63  O   UNK N   1      34.591  17.826   6.843  0.00  0.00    -0.390 OA
HETATM   64  C   UNK N   1      33.962  18.323   7.995  0.00  0.00     0.202 C 
ENDBRANCH  40  63
ENDBRANCH  39  40
ENDBRANCH  22  39
BRANCH  21  65
HETATM   65  O   UNK N   1      35.264  15.172   9.290  0.00  0.00    -0.390 OA
HETATM   66  C   UNK N   1      34.184  15.328  10.182  0.00  0.00     0.202 C 
ENDBRANCH  21  65
BRANCH  17  67
HETATM   67  O   UNK N   1      33.281  10.735   3.239  0.00  0.00    -0.395 OA
HETATM   68  H   UNK N   1      32.613  10.636   2.543  0.00  0.00     0.210 HD
ENDBRANCH  17  67
TORSDOF 18
ENDMDL
MODEL 4
REMARK VINA RESULT:      -7.5      8.958     14.047
REMARK  18 active torsions:
REMARK  status: ('A' for Active; 'I' for Inactive)
REMARK    1  A    between atoms: C_17  and  C_16 
REMARK    2  A    between atoms: C_27  and  C_16 
REMARK    3  A    between atoms: C_38  and  C_17 
REMARK    4  A    between atoms: C_28  and  C_18 
REMARK    5  A    between atoms: N_53  and  C_19 
REMARK    6  A    between atoms: C_40  and  C_22 
REMARK    7  A    between atoms: C_41  and  C_22 
REMARK    8  A    between atoms: N_53  and  C_26 
REMARK    9  A    between atoms: O_54  and  C_26 
REMARK   10  A    between atoms: C_40  and  C_27 
REMARK   11  A    between atoms: C_44  and  C_28 
REMARK   12  A    between atoms: C_38  and  C_30 
REMARK   13  A    between atoms: C_44  and  C_30 
REMARK   14  A    between atoms: O_65  and  C_32 
REMARK   15  A    between atoms: C_34  and  O_57 
REMARK   16  A    between atoms: C_39  and  O_60 
REMARK   17  A    between atoms: C_40  and  O_61 
REMARK   18  A    between atoms: O_65  and  C_44 
ROOT
HETATM    1  C   UNK N   1      36.139   9.667   8.709  0.00  0.00     0.017 C 
HETATM    2  C   UNK N   1      36.738  14.225   6.686  0.00  0.00     0.015 C 
HETATM    3  C   UNK N   1      34.776   9.799   5.875  0.00  0.00     0.010 C 
HETATM    4  C   UNK N   1      37.314  13.464  10.880  0.00  0.00    -0.020 C 
HETATM    5  C   UNK N   1      33.749   9.400   6.940  0.00  0.00     0.078 C 
HETATM    6  C   UNK N   1      34.487  11.160   5.272  0.00  0.00     0.032 C 
HETATM    7  C   UNK N   1      36.948  13.417   9.404  0.00  0.00     0.059 C 
HETATM    8  C   UNK N   1      36.413  13.686  11.843  0.00  0.00     0.052 C 
HETATM    9  C   UNK N   1      33.726  10.253   9.392  0.00  0.00     0.088 C 
HETATM   10  C   UNK N   1      32.598  12.660   4.645  0.00  0.00     0.142 C 
HETATM   11  C   UNK N   1      35.923   8.148  11.179  0.00  0.00     0.169 A 
HETATM   12  C   UNK N   1      35.901  13.384  15.258  0.00  0.00     0.211 A 
HETATM   13  C   UNK N   1      36.929   8.994  14.960  0.00  0.00     0.178 A 
HETATM   14  C   UNK N   1      35.201  10.198   9.786  0.00  0.00     0.040 C 
HETATM   15  C   UNK N   1      35.475  13.708   7.355  0.00  0.00     0.040 C 
HETATM   16  C   UNK N   1      33.429  10.474   7.947  0.00  0.00     0.127 C 
HETATM   17  C   UNK N   1      33.163  11.246   4.515  0.00  0.00     0.127 C 
HETATM   18  C   UNK N   1      35.287   9.365  11.018  0.00  0.00     0.038 A 
HETATM   19  C   UNK N   1      36.865  12.412  15.061  0.00  0.00     0.183 A 
HETATM   20  C   UNK N   1      35.703   9.321  14.433  0.00  0.00     0.108 A 
HETATM   21  C   UNK N   1      35.539  13.860   8.922  0.00  0.00     0.130 C 
HETATM   22  C   UNK N   1      34.204  14.276   6.640  0.00  0.00     0.140 C 
HETATM   23  C   UNK N   1      36.663  13.590  13.287  0.00  0.00     0.138 A 
HETATM   24  C   UNK N   1      33.612  13.706   4.298  0.00  0.00     0.261 C 
HETATM   25  C   UNK N   1      36.505  11.036  15.403  0.00  0.00     0.148 A 
HETATM   26  C   UNK N   1      35.348   8.900  13.085  0.00  0.00     0.176 A 
HETATM   27  N   UNK N   1      37.356  12.565  13.809  0.00  0.00    -0.357 N 
ATOM     28  HN  UNK N   1      38.092  12.020  13.359  1.00  0.00     0.162 HD
HETATM   29  N   UNK N   1      34.913   9.822  12.216  0.00  0.00    -0.336 N 
ATOM     30  HN  UNK N   1      34.406  10.682  12.424  1.00  0.00     0.168 HD
HETATM   31  N   UNK N   1      35.426  10.592  14.748  0.00  0.00    -0.333 N 
ATOM     32  HN  UNK N   1      34.575  11.110  14.535  1.00  0.00     0.168 HD
HETATM   33  O   UNK N   1      32.776  11.447   7.615  0.00  0.00    -0.298 OA
HETATM   34  O   UNK N   1      33.806  13.976   3.123  0.00  0.00    -0.265 OA
HETATM   35  O   UNK N   1      35.807  14.074  14.150  0.00  0.00    -0.334 OA
HETATM   36  O   UNK N   1      35.957   7.903  12.469  0.00  0.00    -0.302 OA
HETATM   37  O   UNK N   1      37.407  10.088  15.521  0.00  0.00    -0.305 OA
HETATM   38  O   UNK N   1      34.361  14.324   5.254  0.00  0.00    -0.315 OA
ENDROOT
BRANCH  22  39
HETATM   39  C   UNK N   1      33.774  15.660   7.113  0.00  0.00     0.065 C 
BRANCH  39  40
HETATM   40  C   UNK N   1      33.879  16.896   6.217  0.00  0.00     0.127 C 
BRANCH  40  41
HETATM   41  C   UNK N   1      32.627  17.279   5.336  0.00  0.00     0.011 C 
HETATM   42  C   UNK N   1      32.816  17.318   3.825  0.00  0.00     0.012 C 
BRANCH  41  43
HETATM   43  C   UNK N   1      31.436  16.410   5.647  0.00  0.00     0.014 C 
BRANCH  43  44
HETATM   44  C   UNK N   1      30.203  17.250   5.846  0.00  0.00     0.079 C 
BRANCH  44  45
HETATM   45  C   UNK N   1      29.820  17.262   7.259  0.00  0.00     0.133 C 
HETATM   46  O   UNK N   1      30.684  17.170   8.117  0.00  0.00    -0.297 OA
BRANCH  45  47
HETATM   47  C   UNK N   1      28.373  17.475   7.593  0.00  0.00     0.081 C 
HETATM   48  C   UNK N   1      28.250  18.499   8.709  0.00  0.00     0.020 C 
BRANCH  47  49
HETATM   49  C   UNK N   1      27.632  17.824   6.259  0.00  0.00     0.150 C 
BRANCH  49  50
HETATM   50  C   UNK N   1      26.517  16.834   5.800  0.00  0.00     0.036 C 
HETATM   51  C   UNK N   1      25.559  17.428   4.776  0.00  0.00     0.017 C 
BRANCH  50  52
HETATM   52  C   UNK N   1      27.035  15.483   5.371  0.00  0.00    -0.003 C 
HETATM   53  C   UNK N   1      27.537  15.258   4.145  0.00  0.00     0.083 C 
BRANCH  53  54
HETATM   54  N   UNK N   1      28.122  14.019   3.771  0.00  0.00    -0.374 N 
HETATM   55  C   UNK N   1      27.867  13.501   2.454  0.00  0.00     0.151 C 
BRANCH  54  56
HETATM   56  C   UNK N   1      28.970  13.272   4.662  0.00  0.00     0.288 C 
BRANCH  56  57
HETATM   57  O   UNK N   1      28.724  11.908   4.496  0.00  0.00    -0.382 OA
HETATM   58  H   UNK N   1      29.382  11.347   4.056  0.00  0.00     0.211 HD
ENDBRANCH  56  57
ENDBRANCH  54  56
ENDBRANCH  53  54
ENDBRANCH  50  52
ENDBRANCH  49  50
BRANCH  49  59
HETATM   59  O   UNK N   1      27.147  19.125   6.356  0.00  0.00    -0.315 OA
BRANCH  59  60
HETATM   60  C   UNK N   1      27.586  20.214   5.675  0.00  0.00     0.255 C 
HETATM   61  C   UNK N   1      27.273  21.570   6.204  0.00  0.00     0.126 C 
HETATM   62  O   UNK N   1      28.276  20.101   4.674  0.00  0.00    -0.266 OA
ENDBRANCH  59  60
ENDBRANCH  49  59
ENDBRANCH  47  49
ENDBRANCH  45  47
ENDBRANCH  44  45
ENDBRANCH  43  44
ENDBRANCH  41  43
ENDBRANCH  40  41
BRANCH  40  63
HETATM   63  O   UNK N   1      34.659  17.940   6.791  0.00  0.00    -0.390 OA
HETATM   64  C   UNK N   1      34.183  18.324   8.054  0.00  0.00     0.202 C 
ENDBRANCH  40  63
ENDBRANCH  39  40
ENDBRANCH  22  39
BRANCH  21  65
HETATM   65  O   UNK N   1      35.383  15.204   9.317  0.00  0.00    -0.390 OA
HETATM   66  C   UNK N   1      34.308  15.359  10.215  0.00  0.00     0.202 C 
ENDBRANCH  21  65
BRANCH  17  67
HETATM   67  O   UNK N   1      33.364  10.909   3.177  0.00  0.00    -0.395 OA
HETATM   68  H   UNK N   1      33.006  11.352   2.392  0.00  0.00     0.210 HD
ENDBRANCH  17  67
TORSDOF 18
ENDMDL
MODEL 5
REMARK VINA RESULT:      -7.3      9.309     13.294
REMARK  18 active torsions:
REMARK  status: ('A' for Active; 'I' for Inactive)
REMARK    1  A    between atoms: C_17  and  C_16 
REMARK    2  A    between atoms: C_27  and  C_16 
REMARK    3  A    between atoms: C_38  and  C_17 
REMARK    4  A    between atoms: C_28  and  C_18 
REMARK    5  A    between atoms: N_53  and  C_19 
REMARK    6  A    between atoms: C_40  and  C_22 
REMARK    7  A    between atoms: C_41  and  C_22 
REMARK    8  A    between atoms: N_53  and  C_26 
REMARK    9  A    between atoms: O_54  and  C_26 
REMARK   10  A    between atoms: C_40  and  C_27 
REMARK   11  A    between atoms: C_44  and  C_28 
REMARK   12  A    between atoms: C_38  and  C_30 
REMARK   13  A    between atoms: C_44  and  C_30 
REMARK   14  A    between atoms: O_65  and  C_32 
REMARK   15  A    between atoms: C_34  and  O_57 
REMARK   16  A    between atoms: C_39  and  O_60 
REMARK   17  A    between atoms: C_40  and  O_61 
REMARK   18  A    between atoms: O_65  and  C_44 
ROOT
HETATM    1  C   UNK N   1      31.658  17.522   5.678  0.00  0.00     0.017 C 
HETATM    2  C   UNK N   1      35.616  14.443   5.392  0.00  0.00     0.015 C 
HETATM    3  C   UNK N   1      33.595  17.993   8.115  0.00  0.00     0.010 C 
HETATM    4  C   UNK N   1      32.007  13.784   3.146  0.00  0.00    -0.020 C 
HETATM    5  C   UNK N   1      32.192  17.633   8.614  0.00  0.00     0.078 C 
HETATM    6  C   UNK N   1      34.620  16.924   8.443  0.00  0.00     0.032 C 
HETATM    7  C   UNK N   1      33.078  14.240   4.125  0.00  0.00     0.059 C 
HETATM    8  C   UNK N   1      31.015  12.955   3.491  0.00  0.00     0.052 C 
HETATM    9  C   UNK N   1      30.558  15.995   7.437  0.00  0.00     0.088 C 
HETATM   10  C   UNK N   1      35.192  15.233  10.182  0.00  0.00     0.142 C 
HETATM   11  C   UNK N   1      28.855  17.896   5.000  0.00  0.00     0.169 A 
HETATM   12  C   UNK N   1      27.894  11.828   2.487  0.00  0.00     0.211 A 
HETATM   13  C   UNK N   1      26.468  16.113   2.327  0.00  0.00     0.178 A 
HETATM   14  C   UNK N   1      30.701  16.370   5.963  0.00  0.00     0.040 C 
HETATM   15  C   UNK N   1      34.406  14.254   6.291  0.00  0.00     0.040 C 
HETATM   16  C   UNK N   1      31.749  16.226   8.304  0.00  0.00     0.127 C 
HETATM   17  C   UNK N   1      34.839  16.700   9.937  0.00  0.00     0.127 C 
HETATM   18  C   UNK N   1      29.334  16.684   5.463  0.00  0.00     0.038 A 
HETATM   19  C   UNK N   1      27.933  13.058   1.856  0.00  0.00     0.183 A 
HETATM   20  C   UNK N   1      26.642  15.626   3.600  0.00  0.00     0.108 A 
HETATM   21  C   UNK N   1      33.207  13.577   5.525  0.00  0.00     0.130 C 
HETATM   22  C   UNK N   1      34.830  13.609   7.653  0.00  0.00     0.140 C 
HETATM   23  C   UNK N   1      29.866  12.600   2.648  0.00  0.00     0.138 A 
HETATM   24  C   UNK N   1      36.298  14.764   9.287  0.00  0.00     0.261 C 
HETATM   25  C   UNK N   1      26.900  14.027   2.220  0.00  0.00     0.148 A 
HETATM   26  C   UNK N   1      27.439  16.367   4.566  0.00  0.00     0.176 A 
HETATM   27  N   UNK N   1      29.198  13.531   1.949  0.00  0.00    -0.357 N 
ATOM     28  HN  UNK N   1      29.564  14.405   1.570  1.00  0.00     0.162 HD
HETATM   29  N   UNK N   1      28.432  15.733   5.204  0.00  0.00    -0.336 N 
ATOM     30  HN  UNK N   1      28.486  14.743   5.441  1.00  0.00     0.168 HD
HETATM   31  N   UNK N   1      26.873  14.310   3.527  0.00  0.00    -0.333 N 
ATOM     32  HN  UNK N   1      27.002  13.661   4.303  1.00  0.00     0.168 HD
HETATM   33  O   UNK N   1      32.251  15.284   8.892  0.00  0.00    -0.298 OA
HETATM   34  O   UNK N   1      37.454  15.012   9.593  0.00  0.00    -0.265 OA
HETATM   35  O   UNK N   1      29.092  11.593   2.960  0.00  0.00    -0.334 OA
HETATM   36  O   UNK N   1      27.693  17.657   4.438  0.00  0.00    -0.302 OA
HETATM   37  O   UNK N   1      26.668  15.103   1.502  0.00  0.00    -0.305 OA
HETATM   38  O   UNK N   1      36.045  14.116   8.115  0.00  0.00    -0.315 OA
ENDROOT
BRANCH  22  39
HETATM   39  C   UNK N   1      34.933  12.088   7.631  0.00  0.00     0.065 C 
BRANCH  39  40
HETATM   40  C   UNK N   1      34.413  11.220   8.778  0.00  0.00     0.127 C 
BRANCH  40  41
HETATM   41  C   UNK N   1      35.327  11.057  10.054  0.00  0.00     0.011 C 
HETATM   42  C   UNK N   1      36.836  11.082   9.845  0.00  0.00     0.012 C 
BRANCH  41  43
HETATM   43  C   UNK N   1      34.976  12.055  11.127  0.00  0.00     0.014 C 
BRANCH  43  44
HETATM   44  C   UNK N   1      34.832  11.372  12.461  0.00  0.00     0.079 C 
BRANCH  44  45
HETATM   45  C   UNK N   1      34.774  12.365  13.535  0.00  0.00     0.133 C 
HETATM   46  O   UNK N   1      34.901  13.550  13.266  0.00  0.00    -0.297 OA
BRANCH  45  47
HETATM   47  C   UNK N   1      34.473  11.882  14.923  0.00  0.00     0.081 C 
HETATM   48  C   UNK N   1      33.652  10.606  14.855  0.00  0.00     0.020 C 
BRANCH  47  49
HETATM   49  C   UNK N   1      35.836  11.780  15.687  0.00  0.00     0.150 C 
BRANCH  49  50
HETATM   50  C   UNK N   1      35.803  12.085  17.216  0.00  0.00     0.036 C 
HETATM   51  C   UNK N   1      34.960  13.301  17.578  0.00  0.00     0.017 C 
BRANCH  50  52
HETATM   52  C   UNK N   1      35.464  10.889  18.072  0.00  0.00    -0.003 C 
HETATM   53  C   UNK N   1      35.056  11.006  19.347  0.00  0.00     0.083 C 
BRANCH  53  54
HETATM   54  N   UNK N   1      34.635   9.893  20.122  0.00  0.00    -0.374 N 
HETATM   55  C   UNK N   1      33.843   8.870  19.493  0.00  0.00     0.151 C 
BRANCH  54  56
HETATM   56  C   UNK N   1      34.984   9.748  21.511  0.00  0.00     0.288 C 
BRANCH  56  57
HETATM   57  O   UNK N   1      36.196  10.398  21.752  0.00  0.00    -0.382 OA
HETATM   58  H   UNK N   1      36.522  10.495  22.660  0.00  0.00     0.211 HD
ENDBRANCH  56  57
ENDBRANCH  54  56
ENDBRANCH  53  54
ENDBRANCH  50  52
ENDBRANCH  49  50
BRANCH  49  59
HETATM   59  O   UNK N   1      36.387  10.527  15.430  0.00  0.00    -0.315 OA
BRANCH  59  60
HETATM   60  C   UNK N   1      37.604  10.267  14.888  0.00  0.00     0.255 C 
HETATM   61  C   UNK N   1      38.296   8.998  15.250  0.00  0.00     0.126 C 
HETATM   62  O   UNK N   1      38.112  11.020  14.073  0.00  0.00    -0.266 OA
ENDBRANCH  59  60
ENDBRANCH  49  59
ENDBRANCH  47  49
ENDBRANCH  45  47
ENDBRANCH  44  45
ENDBRANCH  43  44
ENDBRANCH  41  43
ENDBRANCH  40  41
BRANCH  40  63
HETATM   63  O   UNK N   1      33.002  11.305   8.951  0.00  0.00    -0.390 OA
HETATM   64  C   UNK N   1      32.455  10.110   9.444  0.00  0.00     0.202 C 
ENDBRANCH  40  63
ENDBRANCH  39  40
ENDBRANCH  22  39
BRANCH  21  65
HETATM   65  O   UNK N   1      33.447  12.206   5.300  0.00  0.00    -0.390 OA
HETATM   66  C   UNK N   1      32.350  11.416   5.698  0.00  0.00     0.202 C 
ENDBRANCH  21  65
BRANCH  17  67
HETATM   67  O   UNK N   1      35.854  17.541  10.395  0.00  0.00    -0.395 OA
HETATM   68  H   UNK N   1      35.897  18.508  10.336  0.00  0.00     0.210 HD
ENDBRANCH  17  67
TORSDOF 18
ENDMDL
MODEL 6
REMARK VINA RESULT:      -7.3      4.056      6.748
REMARK  18 active torsions:
REMARK  status: ('A' for Active; 'I' for Inactive)
REMARK    1  A    between atoms: C_17  and  C_16 
REMARK    2  A    between atoms: C_27  and  C_16 
REMARK    3  A    between atoms: C_38  and  C_17 
REMARK    4  A    between atoms: C_28  and  C_18 
REMARK    5  A    between atoms: N_53  and  C_19 
REMARK    6  A    between atoms: C_40  and  C_22 
REMARK    7  A    between atoms: C_41  and  C_22 
REMARK    8  A    between atoms: N_53  and  C_26 
REMARK    9  A    between atoms: O_54  and  C_26 
REMARK   10  A    between atoms: C_40  and  C_27 
REMARK   11  A    between atoms: C_44  and  C_28 
REMARK   12  A    between atoms: C_38  and  C_30 
REMARK   13  A    between atoms: C_44  and  C_30 
REMARK   14  A    between atoms: O_65  and  C_32 
REMARK   15  A    between atoms: C_34  and  O_57 
REMARK   16  A    between atoms: C_39  and  O_60 
REMARK   17  A    between atoms: C_40  and  O_61 
REMARK   18  A    between atoms: O_65  and  C_44 
ROOT
HETATM    1  C   UNK N   1      30.757  14.569   3.068  0.00  0.00     0.017 C 
HETATM    2  C   UNK N   1      25.844  14.406   2.034  0.00  0.00     0.015 C 
HETATM    3  C   UNK N   1      30.106  12.114   1.208  0.00  0.00     0.010 C 
HETATM    4  C   UNK N   1      27.445  16.720   5.286  0.00  0.00    -0.020 C 
HETATM    5  C   UNK N   1      30.784  11.639   2.497  0.00  0.00     0.078 C 
HETATM    6  C   UNK N   1      28.667  11.645   1.102  0.00  0.00     0.032 C 
HETATM    7  C   UNK N   1      27.198  15.747   4.143  0.00  0.00     0.059 C 
HETATM    8  C   UNK N   1      27.489  16.338   6.568  0.00  0.00     0.052 C 
HETATM    9  C   UNK N   1      30.477  12.719   4.837  0.00  0.00     0.088 C 
HETATM   10  C   UNK N   1      27.186   9.732   1.700  0.00  0.00     0.142 C 
HETATM   11  C   UNK N   1      32.777  15.391   4.990  0.00  0.00     0.169 A 
HETATM   12  C   UNK N   1      28.543  17.352   9.710  0.00  0.00     0.211 A 
HETATM   13  C   UNK N   1      32.698  17.975   8.046  0.00  0.00     0.178 A 
HETATM   14  C   UNK N   1      30.526  14.215   4.532  0.00  0.00     0.040 C 
HETATM   15  C   UNK N   1      26.567  13.541   3.052  0.00  0.00     0.040 C 
HETATM   16  C   UNK N   1      29.971  11.831   3.751  0.00  0.00     0.127 C 
HETATM   17  C   UNK N   1      28.502  10.129   1.033  0.00  0.00     0.127 C 
HETATM   18  C   UNK N   1      31.595  14.796   5.391  0.00  0.00     0.038 A 
HETATM   19  C   UNK N   1      29.390  18.095   8.908  0.00  0.00     0.183 A 
HETATM   20  C   UNK N   1      32.341  16.655   8.187  0.00  0.00     0.108 A 
HETATM   21  C   UNK N   1      26.749  14.287   4.429  0.00  0.00     0.130 C 
HETATM   22  C   UNK N   1      25.938  12.109   3.101  0.00  0.00     0.140 C 
HETATM   23  C   UNK N   1      27.876  17.188   7.701  0.00  0.00     0.138 A 
HETATM   24  C   UNK N   1      26.030  10.534   1.185  0.00  0.00     0.261 C 
HETATM   25  C   UNK N   1      30.826  17.867   9.063  0.00  0.00     0.148 A 
HETATM   26  C   UNK N   1      32.485  15.733   7.070  0.00  0.00     0.176 A 
HETATM   27  N   UNK N   1      28.944  17.998   7.634  0.00  0.00    -0.357 N 
ATOM     28  HN  UNK N   1      29.335  18.443   6.803  1.00  0.00     0.162 HD
HETATM   29  N   UNK N   1      31.428  14.999   6.700  0.00  0.00    -0.336 N 
ATOM     30  HN  UNK N   1      30.664  14.668   7.289  1.00  0.00     0.168 HD
HETATM   31  N   UNK N   1      31.186  16.593   8.860  0.00  0.00    -0.333 N 
ATOM     32  HN  UNK N   1      30.687  15.755   9.156  1.00  0.00     0.168 HD
HETATM   33  O   UNK N   1      28.991  11.137   3.956  0.00  0.00    -0.298 OA
HETATM   34  O   UNK N   1      25.504  10.208   0.132  0.00  0.00    -0.265 OA
HETATM   35  O   UNK N   1      27.640  16.813   8.932  0.00  0.00    -0.334 OA
HETATM   36  O   UNK N   1      33.289  15.973   6.050  0.00  0.00    -0.302 OA
HETATM   37  O   UNK N   1      31.722  18.691   8.568  0.00  0.00    -0.305 OA
HETATM   38  O   UNK N   1      25.586  11.649   1.832  0.00  0.00    -0.315 OA
ENDROOT
BRANCH  22  39
HETATM   39  C   UNK N   1      24.715  11.982   4.003  0.00  0.00     0.065 C 
BRANCH  39  40
HETATM   40  C   UNK N   1      23.307  11.772   3.442  0.00  0.00     0.127 C 
BRANCH  40  41
HETATM   41  C   UNK N   1      22.589  13.006   2.769  0.00  0.00     0.011 C 
HETATM   42  C   UNK N   1      21.619  12.719   1.631  0.00  0.00     0.012 C 
BRANCH  41  43
HETATM   43  C   UNK N   1      21.892  13.872   3.786  0.00  0.00     0.014 C 
BRANCH  43  44
HETATM   44  C   UNK N   1      21.259  13.028   4.859  0.00  0.00     0.079 C 
BRANCH  44  45
HETATM   45  C   UNK N   1      20.511  13.871   5.793  0.00  0.00     0.133 C 
HETATM   46  O   UNK N   1      20.175  13.417   6.876  0.00  0.00    -0.297 OA
BRANCH  45  47
HETATM   47  C   UNK N   1      20.260  15.298   5.405  0.00  0.00     0.081 C 
HETATM   48  C   UNK N   1      18.812  15.467   4.979  0.00  0.00     0.020 C 
BRANCH  47  49
HETATM   49  C   UNK N   1      20.733  16.195   6.598  0.00  0.00     0.150 C 
BRANCH  49  50
HETATM   50  C   UNK N   1      21.845  17.243   6.286  0.00  0.00     0.036 C 
HETATM   51  C   UNK N   1      23.161  16.621   5.836  0.00  0.00     0.017 C 
BRANCH  50  52
HETATM   52  C   UNK N   1      21.401  18.352   5.363  0.00  0.00    -0.003 C 
HETATM   53  C   UNK N   1      21.840  18.456   4.097  0.00  0.00     0.083 C 
BRANCH  53  54
HETATM   54  N   UNK N   1      21.345  19.433   3.192  0.00  0.00    -0.374 N 
HETATM   55  C   UNK N   1      19.970  19.360   2.777  0.00  0.00     0.151 C 
BRANCH  54  56
HETATM   56  C   UNK N   1      22.170  20.499   2.687  0.00  0.00     0.288 C 
BRANCH  56  57
HETATM   57  O   UNK N   1      21.438  21.688   2.687  0.00  0.00    -0.382 OA
HETATM   58  H   UNK N   1      20.873  21.909   3.443  0.00  0.00     0.211 HD
ENDBRANCH  56  57
ENDBRANCH  54  56
ENDBRANCH  53  54
ENDBRANCH  50  52
ENDBRANCH  49  50
BRANCH  49  59
HETATM   59  O   UNK N   1      19.611  16.798   7.162  0.00  0.00    -0.315 OA
BRANCH  59  60
HETATM   60  C   UNK N   1      19.265  16.814   8.474  0.00  0.00     0.255 C 
HETATM   61  C   UNK N   1      19.377  18.090   9.233  0.00  0.00     0.126 C 
HETATM   62  O   UNK N   1      18.813  15.822   9.024  0.00  0.00    -0.266 OA
ENDBRANCH  59  60
ENDBRANCH  49  59
ENDBRANCH  47  49
ENDBRANCH  45  47
ENDBRANCH  44  45
ENDBRANCH  43  44
ENDBRANCH  41  43
ENDBRANCH  40  41
BRANCH  40  63
HETATM   63  O   UNK N   1      23.114  10.477   2.884  0.00  0.00    -0.390 OA
HETATM   64  C   UNK N   1      23.103   9.473   3.864  0.00  0.00     0.202 C 
ENDBRANCH  40  63
ENDBRANCH  39  40
ENDBRANCH  22  39
BRANCH  21  65
HETATM   65  O   UNK N   1      25.532  14.371   5.136  0.00  0.00    -0.390 OA
HETATM   66  C   UNK N   1      25.623  13.753   6.399  0.00  0.00     0.202 C 
ENDBRANCH  21  65
BRANCH  17  67
HETATM   67  O   UNK N   1      28.533   9.713  -0.298  0.00  0.00    -0.395 OA
HETATM   68  H   UNK N   1      27.798   9.375  -0.833  0.00  0.00     0.210 HD
ENDBRANCH  17  67
TORSDOF 18
ENDMDL
MODEL 7
REMARK VINA RESULT:      -7.3      8.787     14.132
REMARK  18 active torsions:
REMARK  status: ('A' for Active; 'I' for Inactive)
REMARK    1  A    between atoms: C_17  and  C_16 
REMARK    2  A    between atoms: C_27  and  C_16 
REMARK    3  A    between atoms: C_38  and  C_17 
REMARK    4  A    between atoms: C_28  and  C_18 
REMARK    5  A    between atoms: N_53  and  C_19 
REMARK    6  A    between atoms: C_40  and  C_22 
REMARK    7  A    between atoms: C_41  and  C_22 
REMARK    8  A    between atoms: N_53  and  C_26 
REMARK    9  A    between atoms: O_54  and  C_26 
REMARK   10  A    between atoms: C_40  and  C_27 
REMARK   11  A    between atoms: C_44  and  C_28 
REMARK   12  A    between atoms: C_38  and  C_30 
REMARK   13  A    between atoms: C_44  and  C_30 
REMARK   14  A    between atoms: O_65  and  C_32 
REMARK   15  A    between atoms: C_34  and  O_57 
REMARK   16  A    between atoms: C_39  and  O_60 
REMARK   17  A    between atoms: C_40  and  O_61 
REMARK   18  A    between atoms: O_65  and  C_44 
ROOT
HETATM    1  C   UNK N   1      36.024   9.656   8.962  0.00  0.00     0.017 C 
HETATM    2  C   UNK N   1      36.666  14.183   6.883  0.00  0.00     0.015 C 
HETATM    3  C   UNK N   1      34.624   9.781   6.144  0.00  0.00     0.010 C 
HETATM    4  C   UNK N   1      37.286  13.456  11.077  0.00  0.00    -0.020 C 
HETATM    5  C   UNK N   1      33.606   9.408   7.227  0.00  0.00     0.078 C 
HETATM    6  C   UNK N   1      34.348  11.140   5.531  0.00  0.00     0.032 C 
HETATM    7  C   UNK N   1      36.900  13.400   9.606  0.00  0.00     0.059 C 
HETATM    8  C   UNK N   1      36.402  13.702  12.050  0.00  0.00     0.052 C 
HETATM    9  C   UNK N   1      33.629  10.286   9.670  0.00  0.00     0.088 C 
HETATM   10  C   UNK N   1      32.474  12.663   4.915  0.00  0.00     0.142 C 
HETATM   11  C   UNK N   1      35.817   8.166  11.450  0.00  0.00     0.169 A 
HETATM   12  C   UNK N   1      35.931  13.442  15.475  0.00  0.00     0.211 A 
HETATM   13  C   UNK N   1      36.887   9.034  15.208  0.00  0.00     0.178 A 
HETATM   14  C   UNK N   1      35.108  10.212  10.046  0.00  0.00     0.040 C 
HETATM   15  C   UNK N   1      35.404  13.693   7.574  0.00  0.00     0.040 C 
HETATM   16  C   UNK N   1      33.316  10.498   8.227  0.00  0.00     0.127 C 
HETATM   17  C   UNK N   1      33.016  11.239   4.792  0.00  0.00     0.127 C 
HETATM   18  C   UNK N   1      35.197   9.391  11.285  0.00  0.00     0.038 A 
HETATM   19  C   UNK N   1      36.878  12.454  15.274  0.00  0.00     0.183 A 
HETATM   20  C   UNK N   1      35.659   9.375  14.694  0.00  0.00     0.108 A 
HETATM   21  C   UNK N   1      35.492  13.860   9.139  0.00  0.00     0.130 C 
HETATM   22  C   UNK N   1      34.133  14.274   6.870  0.00  0.00     0.140 C 
HETATM   23  C   UNK N   1      36.670  13.616  13.491  0.00  0.00     0.138 A 
HETATM   24  C   UNK N   1      33.500  13.690   4.543  0.00  0.00     0.261 C 
HETATM   25  C   UNK N   1      36.501  11.087  15.635  0.00  0.00     0.148 A 
HETATM   26  C   UNK N   1      35.280   8.946  13.356  0.00  0.00     0.176 A 
HETATM   27  N   UNK N   1      37.354  12.586  14.014  0.00  0.00    -0.357 N 
ATOM     28  HN  UNK N   1      38.076  12.025  13.560  1.00  0.00     0.162 HD
HETATM   29  N   UNK N   1      34.847   9.865  12.483  0.00  0.00    -0.336 N 
ATOM     30  HN  UNK N   1      34.356  10.736  12.689  1.00  0.00     0.168 HD
HETATM   31  N   UNK N   1      35.406  10.653  15.000  0.00  0.00    -0.333 N 
ATOM     32  HN  UNK N   1      34.560  11.182  14.793  1.00  0.00     0.168 HD
HETATM   33  O   UNK N   1      32.673  11.478   7.894  0.00  0.00    -0.298 OA
HETATM   34  O   UNK N   1      33.683  13.944   3.362  0.00  0.00    -0.265 OA
HETATM   35  O   UNK N   1      35.834  14.122  14.360  0.00  0.00    -0.334 OA
HETATM   36  O   UNK N   1      35.865   7.933  12.741  0.00  0.00    -0.302 OA
HETATM   37  O   UNK N   1      37.389  10.126  15.751  0.00  0.00    -0.305 OA
HETATM   38  O   UNK N   1      34.272  14.305   5.482  0.00  0.00    -0.315 OA
ENDROOT
BRANCH  22  39
HETATM   39  C   UNK N   1      33.731  15.669   7.335  0.00  0.00     0.065 C 
BRANCH  39  40
HETATM   40  C   UNK N   1      33.755  16.878   6.397  0.00  0.00     0.127 C 
BRANCH  40  41
HETATM   41  C   UNK N   1      32.414  17.271   5.664  0.00  0.00     0.011 C 
HETATM   42  C   UNK N   1      32.446  17.369   4.145  0.00  0.00     0.012 C 
BRANCH  41  43
HETATM   43  C   UNK N   1      31.272  16.372   6.062  0.00  0.00     0.014 C 
BRANCH  43  44
HETATM   44  C   UNK N   1      29.951  17.042   5.798  0.00  0.00     0.079 C 
BRANCH  44  45
HETATM   45  C   UNK N   1      29.070  16.146   5.047  0.00  0.00     0.133 C 
HETATM   46  O   UNK N   1      29.117  14.943   5.254  0.00  0.00    -0.297 OA
BRANCH  45  47
HETATM   47  C   UNK N   1      28.078  16.762   4.106  0.00  0.00     0.081 C 
HETATM   48  C   UNK N   1      27.864  15.845   2.914  0.00  0.00     0.020 C 
BRANCH  47  49
HETATM   49  C   UNK N   1      26.799  17.113   4.938  0.00  0.00     0.150 C 
BRANCH  49  50
HETATM   50  C   UNK N   1      26.135  18.495   4.650  0.00  0.00     0.036 C 
HETATM   51  C   UNK N   1      27.001  19.424   3.808  0.00  0.00     0.017 C 
BRANCH  50  52
HETATM   52  C   UNK N   1      24.727  18.398   4.115  0.00  0.00    -0.003 C 
HETATM   53  C   UNK N   1      23.941  19.476   3.954  0.00  0.00     0.083 C 
BRANCH  53  54
HETATM   54  N   UNK N   1      22.656  19.403   3.353  0.00  0.00    -0.374 N 
HETATM   55  C   UNK N   1      21.851  18.232   3.575  0.00  0.00     0.151 C 
BRANCH  54  56
HETATM   56  C   UNK N   1      22.127  20.467   2.540  0.00  0.00     0.288 C 
BRANCH  56  57
HETATM   57  O   UNK N   1      22.669  21.682   2.963  0.00  0.00    -0.382 OA
HETATM   58  H   UNK N   1      22.527  21.986   3.873  0.00  0.00     0.211 HD
ENDBRANCH  56  57
ENDBRANCH  54  56
ENDBRANCH  53  54
ENDBRANCH  50  52
ENDBRANCH  49  50
BRANCH  49  59
HETATM   59  O   UNK N   1      25.887  16.071   4.796  0.00  0.00    -0.315 OA
BRANCH  59  60
HETATM   60  C   UNK N   1      25.327  15.334   5.789  0.00  0.00     0.255 C 
HETATM   61  C   UNK N   1      26.007  14.084   6.229  0.00  0.00     0.126 C 
HETATM   62  O   UNK N   1      24.315  15.704   6.362  0.00  0.00    -0.266 OA
ENDBRANCH  59  60
ENDBRANCH  49  59
ENDBRANCH  47  49
ENDBRANCH  45  47
ENDBRANCH  44  45
ENDBRANCH  43  44
ENDBRANCH  41  43
ENDBRANCH  40  41
BRANCH  40  63
HETATM   63  O   UNK N   1      34.624  17.915   6.842  0.00  0.00    -0.390 OA
HETATM   64  C   UNK N   1      34.327  18.331   8.149  0.00  0.00     0.202 C 
ENDBRANCH  40  63
ENDBRANCH  39  40
ENDBRANCH  22  39
BRANCH  21  65
HETATM   65  O   UNK N   1      35.362  15.210   9.522  0.00  0.00    -0.390 OA
HETATM   66  C   UNK N   1      34.285  15.395  10.412  0.00  0.00     0.202 C 
ENDBRANCH  21  65
BRANCH  17  67
HETATM   67  O   UNK N   1      33.194  10.886   3.454  0.00  0.00    -0.395 OA
HETATM   68  H   UNK N   1      32.636  11.123   2.697  0.00  0.00     0.210 HD
ENDBRANCH  17  67
TORSDOF 18
ENDMDL
MODEL 8
REMARK VINA RESULT:      -7.3      8.708     13.882
REMARK  18 active torsions:
REMARK  status: ('A' for Active; 'I' for Inactive)
REMARK    1  A    between atoms: C_17  and  C_16 
REMARK    2  A    between atoms: C_27  and  C_16 
REMARK    3  A    between atoms: C_38  and  C_17 
REMARK    4  A    between atoms: C_28  and  C_18 
REMARK    5  A    between atoms: N_53  and  C_19 
REMARK    6  A    between atoms: C_40  and  C_22 
REMARK    7  A    between atoms: C_41  and  C_22 
REMARK    8  A    between atoms: N_53  and  C_26 
REMARK    9  A    between atoms: O_54  and  C_26 
REMARK   10  A    between atoms: C_40  and  C_27 
REMARK   11  A    between atoms: C_44  and  C_28 
REMARK   12  A    between atoms: C_38  and  C_30 
REMARK   13  A    between atoms: C_44  and  C_30 
REMARK   14  A    between atoms: O_65  and  C_32 
REMARK   15  A    between atoms: C_34  and  O_57 
REMARK   16  A    between atoms: C_39  and  O_60 
REMARK   17  A    between atoms: C_40  and  O_61 
REMARK   18  A    between atoms: O_65  and  C_44 
ROOT
HETATM    1  C   UNK N   1      36.150   9.800   8.363  0.00  0.00     0.017 C 
HETATM    2  C   UNK N   1      36.511  14.399   6.376  0.00  0.00     0.015 C 
HETATM    3  C   UNK N   1      34.801   9.878   5.520  0.00  0.00     0.010 C 
HETATM    4  C   UNK N   1      37.099  13.640  10.568  0.00  0.00    -0.020 C 
HETATM    5  C   UNK N   1      33.791   9.415   6.575  0.00  0.00     0.078 C 
HETATM    6  C   UNK N   1      34.441  11.225   4.924  0.00  0.00     0.032 C 
HETATM    7  C   UNK N   1      36.747  13.584   9.089  0.00  0.00     0.059 C 
HETATM    8  C   UNK N   1      36.181  13.806  11.526  0.00  0.00     0.052 C 
HETATM    9  C   UNK N   1      33.704  10.247   9.032  0.00  0.00     0.088 C 
HETATM   10  C   UNK N   1      32.477  12.624   4.295  0.00  0.00     0.142 C 
HETATM   11  C   UNK N   1      36.001   8.254  10.821  0.00  0.00     0.169 A 
HETATM   12  C   UNK N   1      35.663  13.450  14.936  0.00  0.00     0.211 A 
HETATM   13  C   UNK N   1      36.934   9.126  14.615  0.00  0.00     0.178 A 
HETATM   14  C   UNK N   1      35.176  10.270   9.437  0.00  0.00     0.040 C 
HETATM   15  C   UNK N   1      35.274  13.808   7.032  0.00  0.00     0.040 C 
HETATM   16  C   UNK N   1      33.404  10.463   7.587  0.00  0.00     0.127 C 
HETATM   17  C   UNK N   1      33.120  11.244   4.159  0.00  0.00     0.127 C 
HETATM   18  C   UNK N   1      35.300   9.435  10.664  0.00  0.00     0.038 A 
HETATM   19  C   UNK N   1      36.681  12.535  14.739  0.00  0.00     0.183 A 
HETATM   20  C   UNK N   1      35.695   9.389  14.081  0.00  0.00     0.108 A 
HETATM   21  C   UNK N   1      35.318  13.952   8.600  0.00  0.00     0.130 C 
HETATM   22  C   UNK N   1      33.978  14.311   6.312  0.00  0.00     0.140 C 
HETATM   23  C   UNK N   1      36.426  13.713  12.972  0.00  0.00     0.138 A 
HETATM   24  C   UNK N   1      33.434  13.727   3.962  0.00  0.00     0.261 C 
HETATM   25  C   UNK N   1      36.395  11.139  15.069  0.00  0.00     0.148 A 
HETATM   26  C   UNK N   1      35.373   8.959  12.728  0.00  0.00     0.176 A 
HETATM   27  N   UNK N   1      37.171  12.724  13.491  0.00  0.00    -0.357 N 
ATOM     28  HN  UNK N   1      37.939  12.223  13.043  1.00  0.00     0.162 HD
HETATM   29  N   UNK N   1      34.893   9.861  11.862  0.00  0.00    -0.336 N 
ATOM     30  HN  UNK N   1      34.338  10.691  12.073  1.00  0.00     0.168 HD
HETATM   31  N   UNK N   1      35.346  10.640  14.403  0.00  0.00    -0.333 N 
ATOM     32  HN  UNK N   1      34.469  11.113  14.188  1.00  0.00     0.168 HD
HETATM   33  O   UNK N   1      32.701  11.401   7.257  0.00  0.00    -0.298 OA
HETATM   34  O   UNK N   1      33.621  14.015   2.790  0.00  0.00    -0.265 OA
HETATM   35  O   UNK N   1      35.539  14.142  13.832  0.00  0.00    -0.334 OA
HETATM   36  O   UNK N   1      36.040   8.002  12.109  0.00  0.00    -0.302 OA
HETATM   37  O   UNK N   1      37.346  10.240  15.186  0.00  0.00    -0.305 OA
HETATM   38  O   UNK N   1      34.142  14.377   4.927  0.00  0.00    -0.315 OA
ENDROOT
BRANCH  22  39
HETATM   39  C   UNK N   1      33.469  15.666   6.791  0.00  0.00     0.065 C 
BRANCH  39  40
HETATM   40  C   UNK N   1      33.726  16.955   6.009  0.00  0.00     0.127 C 
BRANCH  40  41
HETATM   41  C   UNK N   1      32.562  17.510   5.098  0.00  0.00     0.011 C 
HETATM   42  C   UNK N   1      32.676  17.282   3.596  0.00  0.00     0.012 C 
BRANCH  41  43
HETATM   43  C   UNK N   1      31.211  17.024   5.555  0.00  0.00     0.014 C 
BRANCH  43  44
HETATM   44  C   UNK N   1      30.487  16.333   4.432  0.00  0.00     0.079 C 
BRANCH  44  45
HETATM   45  C   UNK N   1      29.861  15.101   4.914  0.00  0.00     0.133 C 
HETATM   46  O   UNK N   1      30.209  14.629   5.986  0.00  0.00    -0.297 OA
BRANCH  45  47
HETATM   47  C   UNK N   1      28.746  14.514   4.100  0.00  0.00     0.081 C 
HETATM   48  C   UNK N   1      28.738  13.003   4.258  0.00  0.00     0.020 C 
BRANCH  47  49
HETATM   49  C   UNK N   1      27.429  15.253   4.510  0.00  0.00     0.150 C 
BRANCH  49  50
HETATM   50  C   UNK N   1      26.899  16.336   3.521  0.00  0.00     0.036 C 
HETATM   51  C   UNK N   1      25.542  15.999   2.917  0.00  0.00     0.017 C 
BRANCH  50  52
HETATM   52  C   UNK N   1      26.937  17.741   4.072  0.00  0.00    -0.003 C 
HETATM   53  C   UNK N   1      27.313  18.011   5.333  0.00  0.00     0.083 C 
BRANCH  53  54
HETATM   54  N   UNK N   1      27.453  19.337   5.824  0.00  0.00    -0.374 N 
HETATM   55  C   UNK N   1      27.145  20.436   4.948  0.00  0.00     0.151 C 
BRANCH  54  56
HETATM   56  C   UNK N   1      27.881  19.617   7.169  0.00  0.00     0.288 C 
BRANCH  56  57
HETATM   57  O   UNK N   1      26.797  20.097   7.906  0.00  0.00    -0.382 OA
HETATM   58  H   UNK N   1      25.910  20.109   7.513  0.00  0.00     0.211 HD
ENDBRANCH  56  57
ENDBRANCH  54  56
ENDBRANCH  53  54
ENDBRANCH  50  52
ENDBRANCH  49  50
BRANCH  49  59
HETATM   59  O   UNK N   1      26.456  14.293   4.781  0.00  0.00    -0.315 OA
BRANCH  59  60
HETATM   60  C   UNK N   1      25.842  14.067   5.969  0.00  0.00     0.255 C 
HETATM   61  C   UNK N   1      25.160  15.200   6.655  0.00  0.00     0.126 C 
HETATM   62  O   UNK N   1      25.789  12.948   6.455  0.00  0.00    -0.266 OA
ENDBRANCH  59  60
ENDBRANCH  49  59
ENDBRANCH  47  49
ENDBRANCH  45  47
ENDBRANCH  44  45
ENDBRANCH  43  44
ENDBRANCH  41  43
ENDBRANCH  40  41
BRANCH  40  63
HETATM   63  O   UNK N   1      34.551  17.882   6.709  0.00  0.00    -0.390 OA
HETATM   64  C   UNK N   1      33.941  18.354   7.882  0.00  0.00     0.202 C 
ENDBRANCH  40  63
ENDBRANCH  39  40
ENDBRANCH  22  39
BRANCH  21  65
HETATM   65  O   UNK N   1      35.086  15.283   9.004  0.00  0.00    -0.390 OA
HETATM   66  C   UNK N   1      34.000  15.371   9.897  0.00  0.00     0.202 C 
ENDBRANCH  21  65
BRANCH  17  67
HETATM   67  O   UNK N   1      33.348  10.928   2.819  0.00  0.00    -0.395 OA
HETATM   68  H   UNK N   1      32.716  10.573   2.176  0.00  0.00     0.210 HD
ENDBRANCH  17  67
TORSDOF 18
ENDMDL
MODEL 9
REMARK VINA RESULT:      -7.2      4.019      6.112
REMARK  18 active torsions:
REMARK  status: ('A' for Active; 'I' for Inactive)
REMARK    1  A    between atoms: C_17  and  C_16 
REMARK    2  A    between atoms: C_27  and  C_16 
REMARK    3  A    between atoms: C_38  and  C_17 
REMARK    4  A    between atoms: C_28  and  C_18 
REMARK    5  A    between atoms: N_53  and  C_19 
REMARK    6  A    between atoms: C_40  and  C_22 
REMARK    7  A    between atoms: C_41  and  C_22 
REMARK    8  A    between atoms: N_53  and  C_26 
REMARK    9  A    between atoms: O_54  and  C_26 
REMARK   10  A    between atoms: C_40  and  C_27 
REMARK   11  A    between atoms: C_44  and  C_28 
REMARK   12  A    between atoms: C_38  and  C_30 
REMARK   13  A    between atoms: C_44  and  C_30 
REMARK   14  A    between atoms: O_65  and  C_32 
REMARK   15  A    between atoms: C_34  and  O_57 
REMARK   16  A    between atoms: C_39  and  O_60 
REMARK   17  A    between atoms: C_40  and  O_61 
REMARK   18  A    between atoms: O_65  and  C_44 
ROOT
HETATM    1  C   UNK N   1      30.619  14.315   3.097  0.00  0.00     0.017 C 
HETATM    2  C   UNK N   1      25.815  15.047   1.825  0.00  0.00     0.015 C 
HETATM    3  C   UNK N   1      29.580  11.938   1.313  0.00  0.00     0.010 C 
HETATM    4  C   UNK N   1      27.702  17.175   5.052  0.00  0.00    -0.020 C 
HETATM    5  C   UNK N   1      30.099  11.409   2.654  0.00  0.00     0.078 C 
HETATM    6  C   UNK N   1      28.083  11.750   1.155  0.00  0.00     0.032 C 
HETATM    7  C   UNK N   1      27.317  16.210   3.941  0.00  0.00     0.059 C 
HETATM    8  C   UNK N   1      27.617  16.858   6.349  0.00  0.00     0.052 C 
HETATM    9  C   UNK N   1      29.912  12.647   4.927  0.00  0.00     0.088 C 
HETATM   10  C   UNK N   1      26.234  10.192   1.759  0.00  0.00     0.142 C 
HETATM   11  C   UNK N   1      32.680  14.830   5.082  0.00  0.00     0.169 A 
HETATM   12  C   UNK N   1      28.719  17.811   9.494  0.00  0.00     0.211 A 
HETATM   13  C   UNK N   1      32.980  17.535   8.016  0.00  0.00     0.178 A 
HETATM   14  C   UNK N   1      30.264  14.088   4.561  0.00  0.00     0.040 C 
HETATM   15  C   UNK N   1      26.314  14.113   2.915  0.00  0.00     0.040 C 
HETATM   16  C   UNK N   1      29.288  11.818   3.856  0.00  0.00     0.127 C 
HETATM   17  C   UNK N   1      27.629  10.293   1.142  0.00  0.00     0.127 C 
HETATM   18  C   UNK N   1      31.389  14.496   5.447  0.00  0.00     0.038 A 
HETATM   19  C   UNK N   1      29.727  18.335   8.705  0.00  0.00     0.183 A 
HETATM   20  C   UNK N   1      32.368  16.319   8.196  0.00  0.00     0.108 A 
HETATM   21  C   UNK N   1      26.581  14.880   4.265  0.00  0.00     0.130 C 
HETATM   22  C   UNK N   1      25.416  12.834   2.993  0.00  0.00     0.140 C 
HETATM   23  C   UNK N   1      28.115  17.675   7.463  0.00  0.00     0.138 A 
HETATM   24  C   UNK N   1      25.278  11.174   1.153  0.00  0.00     0.261 C 
HETATM   25  C   UNK N   1      31.083  17.842   8.941  0.00  0.00     0.148 A 
HETATM   26  C   UNK N   1      32.376  15.329   7.128  0.00  0.00     0.176 A 
HETATM   27  N   UNK N   1      29.323  18.260   7.415  0.00  0.00    -0.357 N 
ATOM     28  HN  UNK N   1      29.827  18.578   6.586  1.00  0.00     0.162 HD
HETATM   29  N   UNK N   1      31.211  14.795   6.737  0.00  0.00    -0.336 N 
ATOM     30  HN  UNK N   1      30.374  14.647   7.300  1.00  0.00     0.168 HD
HETATM   31  N   UNK N   1      31.196  16.515   8.812  0.00  0.00    -0.333 N 
ATOM     32  HN  UNK N   1      30.531  15.805   9.117  1.00  0.00     0.168 HD
HETATM   33  O   UNK N   1      28.184  11.338   4.040  0.00  0.00    -0.298 OA
HETATM   34  O   UNK N   1      24.743  10.901   0.090  0.00  0.00    -0.265 OA
HETATM   35  O   UNK N   1      27.761  17.417   8.695  0.00  0.00    -0.334 OA
HETATM   36  O   UNK N   1      33.252  15.357   6.140  0.00  0.00    -0.302 OA
HETATM   37  O   UNK N   1      32.142  18.453   8.458  0.00  0.00    -0.305 OA
HETATM   38  O   UNK N   1      25.034  12.385   1.728  0.00  0.00    -0.315 OA
ENDROOT
BRANCH  22  39
HETATM   39  C   UNK N   1      24.156  12.992   3.837  0.00  0.00     0.065 C 
BRANCH  39  40
HETATM   40  C   UNK N   1      22.754  12.911   3.230  0.00  0.00     0.127 C 
BRANCH  40  41
HETATM   41  C   UNK N   1      22.358  13.983   2.141  0.00  0.00     0.011 C 
HETATM   42  C   UNK N   1      21.026  13.799   1.426  0.00  0.00     0.012 C 
BRANCH  41  43
HETATM   43  C   UNK N   1      22.420  15.386   2.685  0.00  0.00     0.014 C 
BRANCH  43  44
HETATM   44  C   UNK N   1      21.036  15.951   2.858  0.00  0.00     0.079 C 
BRANCH  44  45
HETATM   45  C   UNK N   1      20.985  16.815   4.038  0.00  0.00     0.133 C 
HETATM   46  O   UNK N   1      20.282  17.815   4.022  0.00  0.00    -0.297 OA
BRANCH  45  47
HETATM   47  C   UNK N   1      21.742  16.384   5.259  0.00  0.00     0.081 C 
HETATM   48  C   UNK N   1      22.789  17.429   5.608  0.00  0.00     0.020 C 
BRANCH  47  49
HETATM   49  C   UNK N   1      20.690  16.069   6.374  0.00  0.00     0.150 C 
BRANCH  49  50
HETATM   50  C   UNK N   1      20.484  14.565   6.734  0.00  0.00     0.036 C 
HETATM   51  C   UNK N   1      19.985  13.721   5.568  0.00  0.00     0.017 C 
BRANCH  50  52
HETATM   52  C   UNK N   1      21.668  13.932   7.423  0.00  0.00    -0.003 C 
HETATM   53  C   UNK N   1      21.639  13.562   8.715  0.00  0.00     0.083 C 
BRANCH  53  54
HETATM   54  N   UNK N   1      22.712  12.870   9.338  0.00  0.00    -0.374 N 
HETATM   55  C   UNK N   1      22.678  12.678  10.763  0.00  0.00     0.151 C 
BRANCH  54  56
HETATM   56  C   UNK N   1      23.824  12.345   8.590  0.00  0.00     0.288 C 
BRANCH  56  57
HETATM   57  O   UNK N   1      23.690  10.960   8.477  0.00  0.00    -0.382 OA
HETATM   58  H   UNK N   1      23.850  10.393   9.247  0.00  0.00     0.211 HD
ENDBRANCH  56  57
ENDBRANCH  54  56
ENDBRANCH  53  54
ENDBRANCH  50  52
ENDBRANCH  49  50
BRANCH  49  59
HETATM   59  O   UNK N   1      21.010  16.822   7.501  0.00  0.00    -0.315 OA
BRANCH  59  60
HETATM   60  C   UNK N   1      20.208  17.705   8.147  0.00  0.00     0.255 C 
HETATM   61  C   UNK N   1      19.046  17.189   8.923  0.00  0.00     0.126 C 
HETATM   62  O   UNK N   1      20.452  18.901   8.151  0.00  0.00    -0.266 OA
ENDBRANCH  59  60
ENDBRANCH  49  59
ENDBRANCH  47  49
ENDBRANCH  45  47
ENDBRANCH  44  45
ENDBRANCH  43  44
ENDBRANCH  41  43
ENDBRANCH  40  41
BRANCH  40  63
HETATM   63  O   UNK N   1      22.283  11.575   3.082  0.00  0.00    -0.390 OA
HETATM   64  C   UNK N   1      22.573  10.784   4.204  0.00  0.00     0.202 C 
ENDBRANCH  40  63
ENDBRANCH  39  40
ENDBRANCH  22  39
BRANCH  21  65
HETATM   65  O   UNK N   1      25.376  15.234   4.905  0.00  0.00    -0.390 OA
HETATM   66  C   UNK N   1      25.311  14.712   6.213  0.00  0.00     0.202 C 
ENDBRANCH  21  65
BRANCH  17  67
HETATM   67  O   UNK N   1      27.633   9.811  -0.167  0.00  0.00    -0.395 OA
HETATM   68  H   UNK N   1      26.869   9.584  -0.719  0.00  0.00     0.210 HD
ENDBRANCH  17  67
TORSDOF 18
ENDMDL
