REMARK  6 active torsions:
REMARK  status: ('A' for Active; 'I' for Inactive)
REMARK    1  A    between atoms: C_4  and  C_1 
REMARK    2  A    between atoms: O_17  and  C_1 
REMARK    3  A    between atoms: C_6  and  O_18 
REMARK    4  A    between atoms: C_7  and  O_19 
REMARK    5  A    between atoms: C_9  and  O_20 
REMARK    6  A    between atoms: C_10  and  N_16 
ROOT
HETATM    1  C   UNK N   1       5.152   0.508  -0.615  0.00  0.00     0.179 A 
HETATM    2  C   UNK N   1       0.894  -0.382   0.288  0.00  0.00     0.187 A 
HETATM    3  C   UNK N   1       2.932  -1.018   0.090  0.00  0.00     0.103 A 
HETATM    4  C   UNK N   1       2.860   0.289  -0.234  0.00  0.00     0.139 A 
HETATM    5  C   UNK N   1       4.225  -1.767   0.092  0.00  0.00     0.273 A 
HETATM    6  N   UNK N   1       3.983   1.062  -0.596  0.00  0.00    -0.337 N 
ATOM      7  HN  UNK N   1       3.875   2.046  -0.839  1.00  0.00     0.168 HD
HETATM    8  N   UNK N   1       5.324  -0.880  -0.283  0.00  0.00    -0.355 N 
HETATM    9  N   UNK N   1       1.705  -1.468   0.416  0.00  0.00    -0.349 N 
ATOM     10  HN  UNK N   1       1.441  -2.413   0.696  1.00  0.00     0.166 HD
HETATM   11  N   UNK N   1       1.595   0.709  -0.112  0.00  0.00    -0.297 N 
HETATM   12  H   UNK N   1       6.235  -1.254  -0.308  0.00  0.00     0.163 HD
ENDROOT
BRANCH  11  13
HETATM   13  C   UNK N   1       1.113   2.073  -0.360  0.00  0.00     0.262 C 
HETATM   14  C   UNK N   1      -0.298   2.334   0.146  0.00  0.00     0.198 C 
HETATM   15  C   UNK N   1      -0.317   3.845   0.059  0.00  0.00     0.182 C 
HETATM   16  C   UNK N   1       1.171   4.214   0.264  0.00  0.00     0.179 C 
HETATM   17  O   UNK N   1       1.906   3.009   0.330  0.00  0.00    -0.353 OA
BRANCH  14  18
HETATM   18  O   UNK N   1      -0.380   1.942   1.488  0.00  0.00    -0.388 OA
HETATM   19  H   UNK N   1      -0.644   1.856   2.418  0.00  0.00     0.210 HD
ENDBRANCH  14  18
BRANCH  15  20
HETATM   20  O   UNK N   1      -1.191   4.412   0.994  0.00  0.00    -0.390 OA
HETATM   21  H   UNK N   1      -1.153   5.133   1.642  0.00  0.00     0.210 HD
ENDBRANCH  15  20
BRANCH  16  22
HETATM   22  C   UNK N   1       1.454   5.065   1.495  0.00  0.00     0.198 C 
BRANCH  22  23
HETATM   23  O   UNK N   1       0.965   6.360   1.301  0.00  0.00    -0.398 OA
HETATM   24  H   UNK N   1       1.574   7.103   1.166  0.00  0.00     0.209 HD
ENDBRANCH  22  23
ENDBRANCH  16  22
ENDBRANCH  11  13
BRANCH   5  25
HETATM   25  O   UNK N   1       4.157  -2.826  -0.813  0.00  0.00    -0.371 OA
HETATM   26  H   UNK N   1       3.495  -3.153  -1.443  0.00  0.00     0.212 HD
ENDBRANCH   5  25
TORSDOF 6
