REMARK  8 active torsions:
REMARK  status: ('A' for Active; 'I' for Inactive)
REMARK    1  A    between atoms: C_5  and  N_8 
REMARK    2  A    between atoms: C_11  and  C_37 
REMARK    3  A    between atoms: C_13  and  N_14 
REMARK       I    between atoms: N_14  and  C_15 
REMARK       I    between atoms: C_15  and  N_17 
REMARK    4  A    between atoms: N_17  and  C_18 
REMARK    5  A    between atoms: C_21  and  O_22 
REMARK    6  A    between atoms: O_22  and  C_23 
REMARK    7  A    between atoms: C_23  and  C_24 
REMARK    8  A    between atoms: C_24  and  N_25 
ROOT
HETATM    1  N   UNK N   1       0.955   1.885   0.359  0.00  0.00    -0.293 N 
HETATM    2  C   UNK N   1       0.013   1.937  -0.620  0.00  0.00     0.326 C 
HETATM    3  O   UNK N   1      -0.018   2.861  -1.417  0.00  0.00    -0.247 OA
HETATM    4  N   UNK N   1      -0.850   0.907  -0.770  0.00  0.00    -0.308 N 
HETATM    5  H   UNK N   1       0.854   1.196   1.055  0.00  0.00     0.172 HD
HETATM    6  H   UNK N   1      -1.645   1.039  -1.335  0.00  0.00     0.170 HD
ENDROOT
BRANCH   1   7
HETATM    7  C   UNK N   1       2.068   2.749   0.447  0.00  0.00     0.133 A 
HETATM    8  C   UNK N   1       3.348   2.262   0.453  0.00  0.00     0.077 A 
HETATM    9  C   UNK N   1       4.130   3.389   0.338  0.00  0.00     0.037 A 
HETATM   10  N   UNK N   1       3.347   4.492   0.282  0.00  0.00    -0.295 N 
HETATM   11  N   UNK N   1       2.081   4.099   0.355  0.00  0.00    -0.240 N 
ATOM     12  HN  UNK N   1       3.672   5.455   0.198  1.00  0.00     0.187 HD
BRANCH   9  13
HETATM   13  C   UNK N   1       5.628   3.364   0.212  0.00  0.00    -0.007 C 
HETATM   14  C   UNK N   1       6.241   2.725   1.444  0.00  0.00     0.021 C 
HETATM   15  C   UNK N   1       6.011   2.539  -1.006  0.00  0.00     0.021 C 
HETATM   16  C   UNK N   1       6.196   4.759   0.046  0.00  0.00     0.021 C 
ENDBRANCH   9  13
BRANCH  11  17
HETATM   17  C   UNK N   1       0.972   5.023   0.319  0.00  0.00     0.058 A 
HETATM   18  C   UNK N   1       1.182   6.351  -0.081  0.00  0.00     0.032 A 
HETATM   19  C   UNK N   1       0.108   7.244  -0.165  0.00  0.00     0.009 A 
HETATM   20  C   UNK N   1      -1.183   6.821   0.165  0.00  0.00    -0.062 A 
HETATM   21  C   UNK N   1      -2.327   7.762   0.050  0.00  0.00     0.048 C 
HETATM   22  C   UNK N   1      -1.397   5.512   0.599  0.00  0.00     0.009 A 
HETATM   23  C   UNK N   1      -0.326   4.620   0.680  0.00  0.00     0.032 A 
ENDBRANCH  11  17
ENDBRANCH   1   7
BRANCH   4  24
HETATM   24  C   UNK N   1      -0.660  -0.360  -0.149  0.00  0.00     0.047 A 
HETATM   25  C   UNK N   1      -1.753  -0.963   0.464  0.00  0.00     0.033 A 
HETATM   26  C   UNK N   1      -1.634  -2.217   1.049  0.00  0.00     0.040 A 
HETATM   27  C   UNK N   1      -0.430  -2.922   1.011  0.00  0.00     0.080 A 
HETATM   28  C   UNK N   1       0.709  -2.325   0.414  0.00  0.00     0.010 A 
HETATM   29  C   UNK N   1       0.593  -1.042  -0.178  0.00  0.00     0.004 A 
HETATM   30  C   UNK N   1       1.953  -2.981   0.394  0.00  0.00     0.015 A 
HETATM   31  C   UNK N   1       1.719  -0.485  -0.812  0.00  0.00     0.014 A 
HETATM   32  C   UNK N   1       2.946  -1.147  -0.818  0.00  0.00     0.001 A 
HETATM   33  C   UNK N   1       3.066  -2.391  -0.206  0.00  0.00     0.001 A 
BRANCH  27  34
HETATM   34  O   UNK N   1      -0.431  -4.181   1.516  0.00  0.00    -0.349 OA
BRANCH  34  35
HETATM   35  C   UNK N   1       0.282  -5.233   0.977  0.00  0.00     0.206 C 
BRANCH  35  36
HETATM   36  C   UNK N   1      -0.233  -5.597  -0.433  0.00  0.00     0.299 C 
BRANCH  36  37
HETATM   37  N   UNK N   1      -1.663  -5.937  -0.497  0.00  0.00     0.094 N 
HETATM   38  C   UNK N   1      -2.045  -6.857   0.587  0.00  0.00     0.298 C 
HETATM   39  C   UNK N   1      -3.570  -6.954   0.747  0.00  0.00     0.198 C 
HETATM   40  O   UNK N   1      -4.227  -6.341  -0.332  0.00  0.00    -0.388 OA
HETATM   41  C   UNK N   1      -3.944  -4.974  -0.209  0.00  0.00     0.198 C 
HETATM   42  C   UNK N   1      -2.472  -4.710  -0.549  0.00  0.00     0.298 C 
ENDBRANCH  36  37
ENDBRANCH  35  36
ENDBRANCH  34  35
ENDBRANCH  27  34
ENDBRANCH   4  24
TORSDOF 8
