MODEL 1
REMARK VINA RESULT:      -7.7      0.000      0.000
REMARK  20 active torsions:
REMARK  status: ('A' for Active; 'I' for Inactive)
REMARK    1  A    between atoms: C_10  and  C_4 
REMARK    2  A    between atoms: O_43  and  C_4 
REMARK    3  A    between atoms: C_11  and  C_5 
REMARK    4  A    between atoms: O_44  and  C_5 
REMARK    5  A    between atoms: C_17  and  C_8 
REMARK    6  A    between atoms: C_19  and  C_9 
REMARK    7  A    between atoms: C_13  and  O_34 
REMARK    8  A    between atoms: C_14  and  O_35 
REMARK    9  A    between atoms: C_15  and  O_36 
REMARK   10  A    between atoms: C_16  and  O_37 
REMARK   11  A    between atoms: N_22  and  C_18 
REMARK   12  A    between atoms: N_23  and  C_19 
REMARK   13  A    between atoms: O_38  and  C_19 
REMARK   14  A    between atoms: C_21  and  N_33 
REMARK   15  A    between atoms: P_48  and  O_39 
REMARK   16  A    between atoms: P_49  and  O_41 
REMARK   17  A    between atoms: P_48  and  O_43 
REMARK   18  A    between atoms: P_49  and  O_44 
REMARK   19  A    between atoms: P_48  and  O_47 
REMARK   20  A    between atoms: P_49  and  O_47 
ROOT
HETATM    1  O   UNK N   1      33.185  13.774   8.651  0.00  0.00    -0.631 OA
HETATM    2  P   UNK N   1      34.236  14.494   9.535  0.00  0.00     0.401 P 
ENDROOT
BRANCH   2   3
HETATM    3  O   UNK N   1      33.378  15.103  10.921  0.00  0.00    -0.307 OA
HETATM    4  H   UNK N   1      33.346  14.837  11.853  0.00  0.00     0.222 HD
ENDBRANCH   2   3
BRANCH   2   5
HETATM    5  O   UNK N   1      34.966  15.740   8.540  0.00  0.00    -0.294 OA
BRANCH   5   6
HETATM    6  C   UNK N   1      34.658  16.990   9.106  0.00  0.00     0.215 C 
BRANCH   6   7
HETATM    7  C   UNK N   1      34.010  17.907   8.066  0.00  0.00     0.180 C 
HETATM    8  C   UNK N   1      32.471  17.948   8.118  0.00  0.00     0.182 C 
HETATM    9  C   UNK N   1      32.092  17.222   6.865  0.00  0.00     0.198 C 
HETATM   10  C   UNK N   1      33.233  17.682   5.974  0.00  0.00     0.262 C 
HETATM   11  O   UNK N   1      34.397  17.526   6.753  0.00  0.00    -0.353 OA
BRANCH   8  12
HETATM   12  O   UNK N   1      31.890  17.385   9.260  0.00  0.00    -0.390 OA
HETATM   13  H   UNK N   1      31.262  17.639   9.953  0.00  0.00     0.210 HD
ENDBRANCH   8  12
BRANCH   9  14
HETATM   14  O   UNK N   1      32.179  15.837   7.057  0.00  0.00    -0.388 OA
HETATM   15  H   UNK N   1      31.937  14.918   7.246  0.00  0.00     0.210 HD
ENDBRANCH   9  14
BRANCH  10  16
HETATM   16  N   UNK N   1      33.280  16.900   4.738  0.00  0.00    -0.297 N 
HETATM   17  C   UNK N   1      32.694  17.179   3.543  0.00  0.00     0.188 A 
HETATM   18  N   UNK N   1      32.979  16.218   2.617  0.00  0.00    -0.346 N 
HETATM   19  C   UNK N   1      33.756  15.338   3.279  0.00  0.00     0.122 A 
ATOM     20  HN  UNK N   1      32.673  16.175   1.645  1.00  0.00     0.167 HD
HETATM   21  C   UNK N   1      34.352  14.167   2.841  0.00  0.00     0.131 A 
HETATM   22  C   UNK N   1      33.928  15.747   4.548  0.00  0.00     0.142 A 
HETATM   23  N   UNK N   1      35.105  13.458   3.736  0.00  0.00    -0.337 N 
HETATM   24  C   UNK N   1      35.262  13.894   5.030  0.00  0.00     0.183 A 
ATOM     25  HN  UNK N   1      35.556  12.592   3.439  1.00  0.00     0.168 HD
HETATM   26  N   UNK N   1      34.669  15.054   5.447  0.00  0.00    -0.336 N 
ATOM     27  HN  UNK N   1      34.781  15.387   6.404  1.00  0.00     0.168 HD
BRANCH  21  28
HETATM   28  N   UNK N   1      34.201  13.715   1.515  0.00  0.00    -0.383 N 
HETATM   29  H   UNK N   1      34.361  14.286   0.729  0.00  0.00     0.157 HD
HETATM   30  H   UNK N   1      33.920  12.783   1.367  0.00  0.00     0.157 HD
ENDBRANCH  21  28
ENDBRANCH  10  16
ENDBRANCH   6   7
ENDBRANCH   5   6
ENDBRANCH   2   5
BRANCH   2  31
HETATM   31  O   UNK N   1      35.392  13.291  10.009  0.00  0.00    -0.195 OA
BRANCH  31  32
HETATM   32  P   UNK N   1      36.370  14.071  11.212  0.00  0.00     0.401 P 
HETATM   33  O   UNK N   1      37.466  13.042  11.614  0.00  0.00    -0.631 OA
BRANCH  32  34
HETATM   34  O   UNK N   1      37.187  15.444  10.531  0.00  0.00    -0.307 OA
HETATM   35  H   UNK N   1      37.967  15.961  10.278  0.00  0.00     0.222 HD
ENDBRANCH  32  34
BRANCH  32  36
HETATM   36  O   UNK N   1      35.414  14.521  12.612  0.00  0.00    -0.294 OA
BRANCH  36  37
HETATM   37  C   UNK N   1      36.000  13.897  13.701  0.00  0.00     0.215 C 
BRANCH  37  38
HETATM   38  C   UNK N   1      35.003  13.064  14.518  0.00  0.00     0.178 C 
HETATM   39  C   UNK N   1      35.730  12.250  15.618  0.00  0.00     0.180 C 
HETATM   40  C   UNK N   1      35.457  10.802  15.214  0.00  0.00     0.183 C 
HETATM   41  C   UNK N   1      35.347  11.024  13.719  0.00  0.00     0.188 C 
HETATM   42  O   UNK N   1      34.482  12.127  13.613  0.00  0.00    -0.368 OA
BRANCH  39  43
HETATM   43  O   UNK N   1      35.272  12.543  16.906  0.00  0.00    -0.390 OA
HETATM   44  H   UNK N   1      34.441  12.340  17.362  0.00  0.00     0.210 HD
ENDBRANCH  39  43
BRANCH  40  45
HETATM   45  O   UNK N   1      34.217  10.384  15.714  0.00  0.00    -0.390 OA
HETATM   46  H   UNK N   1      33.268  10.224  15.836  0.00  0.00     0.210 HD
ENDBRANCH  40  45
BRANCH  41  47
HETATM   47  C   UNK N   1      34.872   9.958  12.788  0.00  0.00    -0.011 A 
HETATM   48  C   UNK N   1      33.945  10.353  11.825  0.00  0.00     0.028 A 
HETATM   49  C   UNK N   1      33.426   9.448  10.915  0.00  0.00     0.030 A 
HETATM   50  C   UNK N   1      33.871   8.120  10.968  0.00  0.00     0.103 A 
HETATM   51  N   UNK N   1      34.786   7.740  11.908  0.00  0.00    -0.374 N 
HETATM   52  C   UNK N   1      35.287   8.624  12.820  0.00  0.00     0.097 A 
ATOM     53  HN  UNK N   1      35.104   6.771  11.928  1.00  0.00     0.164 HD
BRANCH  49  54
HETATM   54  C   UNK N   1      32.415   9.914   9.946  0.00  0.00     0.145 C 
BRANCH  54  55
HETATM   55  N   UNK N   1      32.410  11.129   9.536  0.00  0.00    -0.379 N 
HETATM   56  H   UNK N   1      33.238  11.545   9.202  0.00  0.00     0.158 HD
ATOM     57  HN  UNK N   1      31.545  11.667   9.557  1.00  0.00     0.158 HD
ENDBRANCH  54  55
BRANCH  54  58
HETATM   58  O   UNK N   1      31.492   9.051   9.470  0.00  0.00    -0.346 OA
HETATM   59  H   UNK N   1      30.573   9.184   9.594  0.00  0.00     0.219 HD
ENDBRANCH  54  58
ENDBRANCH  49  54
ENDBRANCH  41  47
ENDBRANCH  37  38
ENDBRANCH  36  37
ENDBRANCH  32  36
ENDBRANCH  31  32
ENDBRANCH   2  31
TORSDOF 20
ENDMDL
MODEL 2
REMARK VINA RESULT:      -7.5      2.371      4.152
REMARK  20 active torsions:
REMARK  status: ('A' for Active; 'I' for Inactive)
REMARK    1  A    between atoms: C_10  and  C_4 
REMARK    2  A    between atoms: O_43  and  C_4 
REMARK    3  A    between atoms: C_11  and  C_5 
REMARK    4  A    between atoms: O_44  and  C_5 
REMARK    5  A    between atoms: C_17  and  C_8 
REMARK    6  A    between atoms: C_19  and  C_9 
REMARK    7  A    between atoms: C_13  and  O_34 
REMARK    8  A    between atoms: C_14  and  O_35 
REMARK    9  A    between atoms: C_15  and  O_36 
REMARK   10  A    between atoms: C_16  and  O_37 
REMARK   11  A    between atoms: N_22  and  C_18 
REMARK   12  A    between atoms: N_23  and  C_19 
REMARK   13  A    between atoms: O_38  and  C_19 
REMARK   14  A    between atoms: C_21  and  N_33 
REMARK   15  A    between atoms: P_48  and  O_39 
REMARK   16  A    between atoms: P_49  and  O_41 
REMARK   17  A    between atoms: P_48  and  O_43 
REMARK   18  A    between atoms: P_49  and  O_44 
REMARK   19  A    between atoms: P_48  and  O_47 
REMARK   20  A    between atoms: P_49  and  O_47 
ROOT
HETATM    1  O   UNK N   1      34.577  14.976  11.553  0.00  0.00    -0.631 OA
HETATM    2  P   UNK N   1      35.473  15.177  10.304  0.00  0.00     0.401 P 
ENDROOT
BRANCH   2   3
HETATM    3  O   UNK N   1      36.833  16.131  10.824  0.00  0.00    -0.307 OA
HETATM    4  H   UNK N   1      37.679  15.911  11.244  0.00  0.00     0.222 HD
ENDBRANCH   2   3
BRANCH   2   5
HETATM    5  O   UNK N   1      34.479  15.952   9.086  0.00  0.00    -0.294 OA
BRANCH   5   6
HETATM    6  C   UNK N   1      34.687  17.341   9.167  0.00  0.00     0.215 C 
BRANCH   6   7
HETATM    7  C   UNK N   1      34.031  18.052   7.982  0.00  0.00     0.180 C 
HETATM    8  C   UNK N   1      32.492  17.998   7.972  0.00  0.00     0.182 C 
HETATM    9  C   UNK N   1      32.215  17.075   6.826  0.00  0.00     0.198 C 
HETATM   10  C   UNK N   1      33.364  17.478   5.918  0.00  0.00     0.262 C 
HETATM   11  O   UNK N   1      34.500  17.514   6.753  0.00  0.00    -0.353 OA
BRANCH   8  12
HETATM   12  O   UNK N   1      31.896  17.566   9.163  0.00  0.00    -0.390 OA
HETATM   13  H   UNK N   1      31.626  16.732   9.575  0.00  0.00     0.210 HD
ENDBRANCH   8  12
BRANCH   9  14
HETATM   14  O   UNK N   1      32.378  15.742   7.221  0.00  0.00    -0.388 OA
HETATM   15  H   UNK N   1      32.386  14.936   7.761  0.00  0.00     0.210 HD
ENDBRANCH   9  14
BRANCH  10  16
HETATM   16  N   UNK N   1      33.514  16.532   4.812  0.00  0.00    -0.297 N 
HETATM   17  C   UNK N   1      32.974  16.601   3.567  0.00  0.00     0.188 A 
HETATM   18  N   UNK N   1      33.356  15.536   2.803  0.00  0.00    -0.346 N 
HETATM   19  C   UNK N   1      34.146  14.809   3.617  0.00  0.00     0.122 A 
ATOM     20  HN  UNK N   1      33.101  15.337   1.836  1.00  0.00     0.167 HD
HETATM   21  C   UNK N   1      34.826  13.626   3.379  0.00  0.00     0.131 A 
HETATM   22  C   UNK N   1      34.233  15.405   4.819  0.00  0.00     0.142 A 
HETATM   23  N   UNK N   1      35.572  13.099   4.398  0.00  0.00    -0.337 N 
HETATM   24  C   UNK N   1      35.641  13.725   5.620  0.00  0.00     0.183 A 
ATOM     25  HN  UNK N   1      36.084  12.229   4.249  1.00  0.00     0.168 HD
HETATM   26  N   UNK N   1      34.966  14.894   5.839  0.00  0.00    -0.336 N 
ATOM     27  HN  UNK N   1      35.012  15.367   6.741  1.00  0.00     0.168 HD
BRANCH  21  28
HETATM   28  N   UNK N   1      34.765  12.981   2.128  0.00  0.00    -0.383 N 
HETATM   29  H   UNK N   1      33.941  12.916   1.594  0.00  0.00     0.157 HD
HETATM   30  H   UNK N   1      35.589  12.576   1.770  0.00  0.00     0.157 HD
ENDBRANCH  21  28
ENDBRANCH  10  16
ENDBRANCH   6   7
ENDBRANCH   5   6
ENDBRANCH   2   5
BRANCH   2  31
HETATM   31  O   UNK N   1      35.988  13.598   9.805  0.00  0.00    -0.195 OA
BRANCH  31  32
HETATM   32  P   UNK N   1      37.292  13.200  10.880  0.00  0.00     0.401 P 
HETATM   33  O   UNK N   1      38.579  13.794  10.239  0.00  0.00    -0.631 OA
BRANCH  32  34
HETATM   34  O   UNK N   1      37.074  13.989  12.411  0.00  0.00    -0.307 OA
HETATM   35  H   UNK N   1      36.655  14.616  13.020  0.00  0.00     0.222 HD
ENDBRANCH  32  34
BRANCH  32  36
HETATM   36  O   UNK N   1      37.450  11.463  11.067  0.00  0.00    -0.294 OA
BRANCH  36  37
HETATM   37  C   UNK N   1      37.333  11.205  12.423  0.00  0.00     0.215 C 
BRANCH  37  38
HETATM   38  C   UNK N   1      36.015  10.508  12.785  0.00  0.00     0.178 C 
HETATM   39  C   UNK N   1      34.816  11.480  12.645  0.00  0.00     0.180 C 
HETATM   40  C   UNK N   1      34.283  11.582  14.074  0.00  0.00     0.183 C 
HETATM   41  C   UNK N   1      35.593  11.340  14.797  0.00  0.00     0.188 C 
HETATM   42  O   UNK N   1      36.123  10.210  14.152  0.00  0.00    -0.368 OA
BRANCH  39  43
HETATM   43  O   UNK N   1      33.849  11.028  11.743  0.00  0.00    -0.390 OA
HETATM   44  H   UNK N   1      33.592  11.332  10.859  0.00  0.00     0.210 HD
ENDBRANCH  39  43
BRANCH  40  45
HETATM   45  O   UNK N   1      33.405  10.524  14.340  0.00  0.00    -0.390 OA
HETATM   46  H   UNK N   1      32.620   9.998  14.556  0.00  0.00     0.210 HD
ENDBRANCH  40  45
BRANCH  41  47
HETATM   47  C   UNK N   1      35.660  11.119  16.272  0.00  0.00    -0.011 A 
HETATM   48  C   UNK N   1      35.350  12.217  17.072  0.00  0.00     0.028 A 
HETATM   49  C   UNK N   1      35.389  12.132  18.453  0.00  0.00     0.030 A 
HETATM   50  C   UNK N   1      35.731  10.904  19.037  0.00  0.00     0.103 A 
HETATM   51  N   UNK N   1      36.025   9.829  18.248  0.00  0.00    -0.374 N 
HETATM   52  C   UNK N   1      36.006   9.911  16.885  0.00  0.00     0.097 A 
ATOM     53  HN  UNK N   1      36.265   8.940  18.689  1.00  0.00     0.164 HD
BRANCH  49  54
HETATM   54  C   UNK N   1      35.093  13.340  19.249  0.00  0.00     0.145 C 
BRANCH  54  55
HETATM   55  N   UNK N   1      34.648  13.241  20.448  0.00  0.00    -0.379 N 
HETATM   56  H   UNK N   1      34.448  14.049  20.973  0.00  0.00     0.158 HD
ATOM     57  HN  UNK N   1      34.501  12.319  20.859  1.00  0.00     0.158 HD
ENDBRANCH  54  55
BRANCH  54  58
HETATM   58  O   UNK N   1      35.305  14.563  18.720  0.00  0.00    -0.346 OA
HETATM   59  H   UNK N   1      35.862  14.698  17.980  0.00  0.00     0.219 HD
ENDBRANCH  54  58
ENDBRANCH  49  54
ENDBRANCH  41  47
ENDBRANCH  37  38
ENDBRANCH  36  37
ENDBRANCH  32  36
ENDBRANCH  31  32
ENDBRANCH   2  31
TORSDOF 20
ENDMDL
MODEL 3
REMARK VINA RESULT:      -7.4      4.220      6.025
REMARK  20 active torsions:
REMARK  status: ('A' for Active; 'I' for Inactive)
REMARK    1  A    between atoms: C_10  and  C_4 
REMARK    2  A    between atoms: O_43  and  C_4 
REMARK    3  A    between atoms: C_11  and  C_5 
REMARK    4  A    between atoms: O_44  and  C_5 
REMARK    5  A    between atoms: C_17  and  C_8 
REMARK    6  A    between atoms: C_19  and  C_9 
REMARK    7  A    between atoms: C_13  and  O_34 
REMARK    8  A    between atoms: C_14  and  O_35 
REMARK    9  A    between atoms: C_15  and  O_36 
REMARK   10  A    between atoms: C_16  and  O_37 
REMARK   11  A    between atoms: N_22  and  C_18 
REMARK   12  A    between atoms: N_23  and  C_19 
REMARK   13  A    between atoms: O_38  and  C_19 
REMARK   14  A    between atoms: C_21  and  N_33 
REMARK   15  A    between atoms: P_48  and  O_39 
REMARK   16  A    between atoms: P_49  and  O_41 
REMARK   17  A    between atoms: P_48  and  O_43 
REMARK   18  A    between atoms: P_49  and  O_44 
REMARK   19  A    between atoms: P_48  and  O_47 
REMARK   20  A    between atoms: P_49  and  O_47 
ROOT
HETATM    1  O   UNK N   1      32.688  13.522   8.427  0.00  0.00    -0.631 OA
HETATM    2  P   UNK N   1      32.987  15.017   8.711  0.00  0.00     0.401 P 
ENDROOT
BRANCH   2   3
HETATM    3  O   UNK N   1      32.500  15.311  10.356  0.00  0.00    -0.307 OA
HETATM    4  H   UNK N   1      31.644  15.499  10.773  0.00  0.00     0.222 HD
ENDBRANCH   2   3
BRANCH   2   5
HETATM    5  O   UNK N   1      32.096  15.947   7.522  0.00  0.00    -0.294 OA
BRANCH   5   6
HETATM    6  C   UNK N   1      30.778  16.107   7.987  0.00  0.00     0.215 C 
BRANCH   6   7
HETATM    7  C   UNK N   1      30.487  17.581   8.281  0.00  0.00     0.180 C 
HETATM    8  C   UNK N   1      29.687  17.831   9.573  0.00  0.00     0.182 C 
HETATM    9  C   UNK N   1      28.359  18.274   9.043  0.00  0.00     0.198 C 
HETATM   10  C   UNK N   1      28.837  19.027   7.813  0.00  0.00     0.262 C 
HETATM   11  O   UNK N   1      29.780  18.175   7.201  0.00  0.00    -0.353 OA
BRANCH   8  12
HETATM   12  O   UNK N   1      29.581  16.736  10.438  0.00  0.00    -0.390 OA
HETATM   13  H   UNK N   1      29.929  15.835  10.510  0.00  0.00     0.210 HD
ENDBRANCH   8  12
BRANCH   9  14
HETATM   14  O   UNK N   1      27.598  17.168   8.646  0.00  0.00    -0.388 OA
HETATM   15  H   UNK N   1      27.297  16.384   8.160  0.00  0.00     0.210 HD
ENDBRANCH   9  14
BRANCH  10  16
HETATM   16  N   UNK N   1      27.717  19.348   6.928  0.00  0.00    -0.297 N 
HETATM   17  C   UNK N   1      26.922  20.450   6.943  0.00  0.00     0.188 A 
HETATM   18  N   UNK N   1      25.991  20.400   5.947  0.00  0.00    -0.346 N 
HETATM   19  C   UNK N   1      26.237  19.234   5.318  0.00  0.00     0.122 A 
ATOM     20  HN  UNK N   1      25.272  21.090   5.727  1.00  0.00     0.167 HD
HETATM   21  C   UNK N   1      25.613  18.660   4.223  0.00  0.00     0.131 A 
HETATM   22  C   UNK N   1      27.266  18.606   5.912  0.00  0.00     0.142 A 
HETATM   23  N   UNK N   1      26.076  17.451   3.782  0.00  0.00    -0.337 N 
HETATM   24  C   UNK N   1      27.127  16.826   4.409  0.00  0.00     0.183 A 
ATOM     25  HN  UNK N   1      25.635  17.007   2.976  1.00  0.00     0.168 HD
HETATM   26  N   UNK N   1      27.735  17.407   5.488  0.00  0.00    -0.336 N 
ATOM     27  HN  UNK N   1      28.517  16.952   5.959  1.00  0.00     0.168 HD
BRANCH  21  28
HETATM   28  N   UNK N   1      24.538  19.297   3.571  0.00  0.00    -0.383 N 
HETATM   29  H   UNK N   1      23.608  19.248   3.889  0.00  0.00     0.157 HD
HETATM   30  H   UNK N   1      24.728  19.817   2.756  0.00  0.00     0.157 HD
ENDBRANCH  21  28
ENDBRANCH  10  16
ENDBRANCH   6   7
ENDBRANCH   5   6
ENDBRANCH   2   5
BRANCH   2  31
HETATM   31  O   UNK N   1      34.701  15.221   8.535  0.00  0.00    -0.195 OA
BRANCH  31  32
HETATM   32  P   UNK N   1      35.303  15.308  10.160  0.00  0.00     0.401 P 
HETATM   33  O   UNK N   1      36.853  15.383  10.045  0.00  0.00    -0.631 OA
BRANCH  32  34
HETATM   34  O   UNK N   1      34.777  16.777  10.922  0.00  0.00    -0.307 OA
HETATM   35  H   UNK N   1      34.890  17.685  11.242  0.00  0.00     0.222 HD
ENDBRANCH  32  34
BRANCH  32  36
HETATM   36  O   UNK N   1      34.829  13.897  11.087  0.00  0.00    -0.294 OA
BRANCH  36  37
HETATM   37  C   UNK N   1      34.948  14.249  12.422  0.00  0.00     0.215 C 
BRANCH  37  38
HETATM   38  C   UNK N   1      36.339  13.947  12.996  0.00  0.00     0.178 C 
HETATM   39  C   UNK N   1      36.967  12.710  12.306  0.00  0.00     0.180 C 
HETATM   40  C   UNK N   1      37.103  11.707  13.451  0.00  0.00     0.183 C 
HETATM   41  C   UNK N   1      35.932  12.188  14.283  0.00  0.00     0.188 C 
HETATM   42  O   UNK N   1      36.111  13.581  14.331  0.00  0.00    -0.368 OA
BRANCH  39  43
HETATM   43  O   UNK N   1      38.191  12.990  11.691  0.00  0.00    -0.390 OA
HETATM   44  H   UNK N   1      39.106  12.930  12.006  0.00  0.00     0.210 HD
ENDBRANCH  39  43
BRANCH  40  45
HETATM   45  O   UNK N   1      38.294  11.930  14.153  0.00  0.00    -0.390 OA
HETATM   46  H   UNK N   1      39.195  12.190  14.399  0.00  0.00     0.210 HD
ENDBRANCH  40  45
BRANCH  41  47
HETATM   47  C   UNK N   1      35.684  11.694  15.671  0.00  0.00    -0.011 A 
HETATM   48  C   UNK N   1      35.519  12.673  16.649  0.00  0.00     0.028 A 
HETATM   49  C   UNK N   1      35.295  12.333  17.972  0.00  0.00     0.030 A 
HETATM   50  C   UNK N   1      35.216  10.974  18.308  0.00  0.00     0.103 A 
HETATM   51  N   UNK N   1      35.369  10.020  17.343  0.00  0.00    -0.374 N 
HETATM   52  C   UNK N   1      35.609  10.348  16.040  0.00  0.00     0.097 A 
ATOM     53  HN  UNK N   1      35.302   9.035  17.603  1.00  0.00     0.164 HD
BRANCH  49  54
HETATM   54  C   UNK N   1      35.171  13.411  18.973  0.00  0.00     0.145 C 
BRANCH  54  55
HETATM   55  N   UNK N   1      35.297  14.640  18.631  0.00  0.00    -0.379 N 
HETATM   56  H   UNK N   1      35.055  14.932  17.722  0.00  0.00     0.158 HD
ATOM     57  HN  UNK N   1      35.649  15.320  19.304  1.00  0.00     0.158 HD
ENDBRANCH  54  55
BRANCH  54  58
HETATM   58  O   UNK N   1      34.906  13.106  20.261  0.00  0.00    -0.346 OA
HETATM   59  H   UNK N   1      34.841  12.222  20.562  0.00  0.00     0.219 HD
ENDBRANCH  54  58
ENDBRANCH  49  54
ENDBRANCH  41  47
ENDBRANCH  37  38
ENDBRANCH  36  37
ENDBRANCH  32  36
ENDBRANCH  31  32
ENDBRANCH   2  31
TORSDOF 20
ENDMDL
MODEL 4
REMARK VINA RESULT:      -7.3      3.382      5.597
REMARK  20 active torsions:
REMARK  status: ('A' for Active; 'I' for Inactive)
REMARK    1  A    between atoms: C_10  and  C_4 
REMARK    2  A    between atoms: O_43  and  C_4 
REMARK    3  A    between atoms: C_11  and  C_5 
REMARK    4  A    between atoms: O_44  and  C_5 
REMARK    5  A    between atoms: C_17  and  C_8 
REMARK    6  A    between atoms: C_19  and  C_9 
REMARK    7  A    between atoms: C_13  and  O_34 
REMARK    8  A    between atoms: C_14  and  O_35 
REMARK    9  A    between atoms: C_15  and  O_36 
REMARK   10  A    between atoms: C_16  and  O_37 
REMARK   11  A    between atoms: N_22  and  C_18 
REMARK   12  A    between atoms: N_23  and  C_19 
REMARK   13  A    between atoms: O_38  and  C_19 
REMARK   14  A    between atoms: C_21  and  N_33 
REMARK   15  A    between atoms: P_48  and  O_39 
REMARK   16  A    between atoms: P_49  and  O_41 
REMARK   17  A    between atoms: P_48  and  O_43 
REMARK   18  A    between atoms: P_49  and  O_44 
REMARK   19  A    between atoms: P_48  and  O_47 
REMARK   20  A    between atoms: P_49  and  O_47 
ROOT
HETATM    1  O   UNK N   1      33.214  12.811   9.087  0.00  0.00    -0.631 OA
HETATM    2  P   UNK N   1      32.946  14.323   8.868  0.00  0.00     0.401 P 
ENDROOT
BRANCH   2   3
HETATM    3  O   UNK N   1      32.346  14.940  10.381  0.00  0.00    -0.307 OA
HETATM    4  H   UNK N   1      32.203  14.540  11.253  0.00  0.00     0.222 HD
ENDBRANCH   2   3
BRANCH   2   5
HETATM    5  O   UNK N   1      31.806  14.448   7.542  0.00  0.00    -0.294 OA
BRANCH   5   6
HETATM    6  C   UNK N   1      32.423  13.943   6.383  0.00  0.00     0.215 C 
BRANCH   6   7
HETATM    7  C   UNK N   1      31.928  14.687   5.142  0.00  0.00     0.180 C 
HETATM    8  C   UNK N   1      32.891  15.767   4.614  0.00  0.00     0.182 C 
HETATM    9  C   UNK N   1      32.165  17.032   4.951  0.00  0.00     0.198 C 
HETATM   10  C   UNK N   1      30.741  16.548   4.739  0.00  0.00     0.262 C 
HETATM   11  O   UNK N   1      30.672  15.302   5.396  0.00  0.00    -0.353 OA
BRANCH   8  12
HETATM   12  O   UNK N   1      34.185  15.734   5.148  0.00  0.00    -0.390 OA
HETATM   13  H   UNK N   1      34.884  16.361   5.389  0.00  0.00     0.210 HD
ENDBRANCH   8  12
BRANCH   9  14
HETATM   14  O   UNK N   1      32.350  17.358   6.301  0.00  0.00    -0.388 OA
HETATM   15  H   UNK N   1      32.312  17.829   7.148  0.00  0.00     0.210 HD
ENDBRANCH   9  14
BRANCH  10  16
HETATM   16  N   UNK N   1      29.775  17.512   5.269  0.00  0.00    -0.297 N 
HETATM   17  C   UNK N   1      29.021  18.410   4.582  0.00  0.00     0.188 A 
HETATM   18  N   UNK N   1      28.222  19.129   5.424  0.00  0.00    -0.346 N 
HETATM   19  C   UNK N   1      28.510  18.647   6.649  0.00  0.00     0.122 A 
ATOM     20  HN  UNK N   1      27.559  19.865   5.180  1.00  0.00     0.167 HD
HETATM   21  C   UNK N   1      27.996  18.993   7.888  0.00  0.00     0.131 A 
HETATM   22  C   UNK N   1      29.443  17.685   6.552  0.00  0.00     0.142 A 
HETATM   23  N   UNK N   1      28.470  18.328   8.985  0.00  0.00    -0.337 N 
HETATM   24  C   UNK N   1      29.428  17.351   8.861  0.00  0.00     0.183 A 
ATOM     25  HN  UNK N   1      28.108  18.562   9.910  1.00  0.00     0.168 HD
HETATM   26  N   UNK N   1      29.924  17.019   7.630  0.00  0.00    -0.336 N 
ATOM     27  HN  UNK N   1      30.634  16.294   7.527  1.00  0.00     0.168 HD
BRANCH  21  28
HETATM   28  N   UNK N   1      27.009  19.989   8.023  0.00  0.00    -0.383 N 
HETATM   29  H   UNK N   1      26.724  20.351   8.893  0.00  0.00     0.157 HD
HETATM   30  H   UNK N   1      26.584  20.340   7.207  0.00  0.00     0.157 HD
ENDBRANCH  21  28
ENDBRANCH  10  16
ENDBRANCH   6   7
ENDBRANCH   5   6
ENDBRANCH   2   5
BRANCH   2  31
HETATM   31  O   UNK N   1      34.473  15.045   8.474  0.00  0.00    -0.195 OA
BRANCH  31  32
HETATM   32  P   UNK N   1      35.257  15.279  10.005  0.00  0.00     0.401 P 
HETATM   33  O   UNK N   1      36.783  15.323   9.708  0.00  0.00    -0.631 OA
BRANCH  32  34
HETATM   34  O   UNK N   1      34.824  16.821  10.676  0.00  0.00    -0.307 OA
HETATM   35  H   UNK N   1      34.881  17.541  11.324  0.00  0.00     0.222 HD
ENDBRANCH  32  34
BRANCH  32  36
HETATM   36  O   UNK N   1      34.889  13.969  11.112  0.00  0.00    -0.294 OA
BRANCH  36  37
HETATM   37  C   UNK N   1      35.106  14.464  12.387  0.00  0.00     0.215 C 
BRANCH  37  38
HETATM   38  C   UNK N   1      36.470  14.057  12.960  0.00  0.00     0.178 C 
HETATM   39  C   UNK N   1      37.035  12.818  12.220  0.00  0.00     0.180 C 
HETATM   40  C   UNK N   1      37.099  11.758  13.319  0.00  0.00     0.183 C 
HETATM   41  C   UNK N   1      35.947  12.267  14.162  0.00  0.00     0.188 C 
HETATM   42  O   UNK N   1      36.205  13.644  14.275  0.00  0.00    -0.368 OA
BRANCH  39  43
HETATM   43  O   UNK N   1      38.280  13.055  11.631  0.00  0.00    -0.390 OA
HETATM   44  H   UNK N   1      38.537  13.516  10.817  0.00  0.00     0.210 HD
ENDBRANCH  39  43
BRANCH  40  45
HETATM   45  O   UNK N   1      38.292  11.880  14.042  0.00  0.00    -0.390 OA
HETATM   46  H   UNK N   1      39.219  12.012  14.293  0.00  0.00     0.210 HD
ENDBRANCH  40  45
BRANCH  41  47
HETATM   47  C   UNK N   1      35.654  11.726  15.522  0.00  0.00    -0.011 A 
HETATM   48  C   UNK N   1      35.537  12.667  16.544  0.00  0.00     0.028 A 
HETATM   49  C   UNK N   1      35.279  12.281  17.848  0.00  0.00     0.030 A 
HETATM   50  C   UNK N   1      35.115  10.915  18.119  0.00  0.00     0.103 A 
HETATM   51  N   UNK N   1      35.221   9.999  17.112  0.00  0.00    -0.374 N 
HETATM   52  C   UNK N   1      35.495  10.372  15.828  0.00  0.00     0.097 A 
ATOM     53  HN  UNK N   1      35.093   9.009  17.326  1.00  0.00     0.164 HD
BRANCH  49  54
HETATM   54  C   UNK N   1      35.208  13.318  18.896  0.00  0.00     0.145 C 
BRANCH  54  55
HETATM   55  N   UNK N   1      35.122  12.993  20.134  0.00  0.00    -0.379 N 
HETATM   56  H   UNK N   1      34.503  12.283  20.420  0.00  0.00     0.158 HD
ATOM     57  HN  UNK N   1      35.699  13.472  20.824  1.00  0.00     0.158 HD
ENDBRANCH  54  55
BRANCH  54  58
HETATM   58  O   UNK N   1      35.249  14.623  18.556  0.00  0.00    -0.346 OA
HETATM   59  H   UNK N   1      35.899  14.968  17.976  0.00  0.00     0.219 HD
ENDBRANCH  54  58
ENDBRANCH  49  54
ENDBRANCH  41  47
ENDBRANCH  37  38
ENDBRANCH  36  37
ENDBRANCH  32  36
ENDBRANCH  31  32
ENDBRANCH   2  31
TORSDOF 20
ENDMDL
MODEL 5
REMARK VINA RESULT:      -7.2      8.079     11.817
REMARK  20 active torsions:
REMARK  status: ('A' for Active; 'I' for Inactive)
REMARK    1  A    between atoms: C_10  and  C_4 
REMARK    2  A    between atoms: O_43  and  C_4 
REMARK    3  A    between atoms: C_11  and  C_5 
REMARK    4  A    between atoms: O_44  and  C_5 
REMARK    5  A    between atoms: C_17  and  C_8 
REMARK    6  A    between atoms: C_19  and  C_9 
REMARK    7  A    between atoms: C_13  and  O_34 
REMARK    8  A    between atoms: C_14  and  O_35 
REMARK    9  A    between atoms: C_15  and  O_36 
REMARK   10  A    between atoms: C_16  and  O_37 
REMARK   11  A    between atoms: N_22  and  C_18 
REMARK   12  A    between atoms: N_23  and  C_19 
REMARK   13  A    between atoms: O_38  and  C_19 
REMARK   14  A    between atoms: C_21  and  N_33 
REMARK   15  A    between atoms: P_48  and  O_39 
REMARK   16  A    between atoms: P_49  and  O_41 
REMARK   17  A    between atoms: P_48  and  O_43 
REMARK   18  A    between atoms: P_49  and  O_44 
REMARK   19  A    between atoms: P_48  and  O_47 
REMARK   20  A    between atoms: P_49  and  O_47 
ROOT
HETATM    1  O   UNK N   1      26.389  15.941   7.191  0.00  0.00    -0.631 OA
HETATM    2  P   UNK N   1      26.335  16.242   5.671  0.00  0.00     0.401 P 
ENDROOT
BRANCH   2   3
HETATM    3  O   UNK N   1      26.608  17.952   5.498  0.00  0.00    -0.307 OA
HETATM    4  H   UNK N   1      26.564  18.560   4.744  0.00  0.00     0.222 HD
ENDBRANCH   2   3
BRANCH   2   5
HETATM    5  O   UNK N   1      24.764  15.706   5.104  0.00  0.00    -0.294 OA
BRANCH   5   6
HETATM    6  C   UNK N   1      24.208  14.863   6.083  0.00  0.00     0.215 C 
BRANCH   6   7
HETATM    7  C   UNK N   1      22.688  14.787   5.926  0.00  0.00     0.180 C 
HETATM    8  C   UNK N   1      22.206  13.849   4.802  0.00  0.00     0.182 C 
HETATM    9  C   UNK N   1      21.681  14.815   3.786  0.00  0.00     0.198 C 
HETATM   10  C   UNK N   1      21.130  15.870   4.729  0.00  0.00     0.262 C 
HETATM   11  O   UNK N   1      22.144  16.077   5.687  0.00  0.00    -0.353 OA
BRANCH   8  12
HETATM   12  O   UNK N   1      23.178  12.991   4.274  0.00  0.00    -0.390 OA
HETATM   13  H   UNK N   1      24.069  13.052   3.898  0.00  0.00     0.210 HD
ENDBRANCH   8  12
BRANCH   9  14
HETATM   14  O   UNK N   1      22.734  15.360   3.041  0.00  0.00    -0.388 OA
HETATM   15  H   UNK N   1      23.251  15.961   2.482  0.00  0.00     0.210 HD
ENDBRANCH   9  14
BRANCH  10  16
HETATM   16  N   UNK N   1      20.788  17.094   4.004  0.00  0.00    -0.297 N 
HETATM   17  C   UNK N   1      19.590  17.450   3.471  0.00  0.00     0.188 A 
HETATM   18  N   UNK N   1      19.656  18.679   2.882  0.00  0.00    -0.346 N 
HETATM   19  C   UNK N   1      20.933  19.069   3.068  0.00  0.00     0.122 A 
ATOM     20  HN  UNK N   1      18.909  19.187   2.409  1.00  0.00     0.167 HD
HETATM   21  C   UNK N   1      21.574  20.238   2.692  0.00  0.00     0.131 A 
HETATM   22  C   UNK N   1      21.607  18.116   3.734  0.00  0.00     0.142 A 
HETATM   23  N   UNK N   1      22.895  20.377   3.018  0.00  0.00    -0.337 N 
HETATM   24  C   UNK N   1      23.565  19.386   3.696  0.00  0.00     0.183 A 
ATOM     25  HN  UNK N   1      23.391  21.229   2.754  1.00  0.00     0.168 HD
HETATM   26  N   UNK N   1      22.917  18.238   4.062  0.00  0.00    -0.336 N 
ATOM     27  HN  UNK N   1      23.404  17.498   4.567  1.00  0.00     0.168 HD
BRANCH  21  28
HETATM   28  N   UNK N   1      20.894  21.261   2.003  0.00  0.00    -0.383 N 
HETATM   29  H   UNK N   1      19.953  21.189   1.722  0.00  0.00     0.157 HD
HETATM   30  H   UNK N   1      21.384  22.088   1.791  0.00  0.00     0.157 HD
ENDBRANCH  21  28
ENDBRANCH  10  16
ENDBRANCH   6   7
ENDBRANCH   5   6
ENDBRANCH   2   5
BRANCH   2  31
HETATM   31  O   UNK N   1      27.624  15.339   4.941  0.00  0.00    -0.195 OA
BRANCH  31  32
HETATM   32  P   UNK N   1      27.309  15.421   3.236  0.00  0.00     0.401 P 
HETATM   33  O   UNK N   1      26.613  14.082   2.858  0.00  0.00    -0.631 OA
BRANCH  32  34
HETATM   34  O   UNK N   1      26.182  16.696   2.891  0.00  0.00    -0.307 OA
HETATM   35  H   UNK N   1      25.298  17.090   2.830  0.00  0.00     0.222 HD
ENDBRANCH  32  34
BRANCH  32  36
HETATM   36  O   UNK N   1      28.796  15.613   2.326  0.00  0.00    -0.294 OA
BRANCH  36  37
HETATM   37  C   UNK N   1      29.828  15.315   3.200  0.00  0.00     0.215 C 
BRANCH  37  38
HETATM   38  C   UNK N   1      30.879  16.431   3.282  0.00  0.00     0.178 C 
HETATM   39  C   UNK N   1      32.303  15.842   3.440  0.00  0.00     0.180 C 
HETATM   40  C   UNK N   1      32.742  16.358   4.810  0.00  0.00     0.183 C 
HETATM   41  C   UNK N   1      31.369  16.442   5.445  0.00  0.00     0.188 C 
HETATM   42  O   UNK N   1      30.598  17.110   4.478  0.00  0.00    -0.368 OA
BRANCH  39  43
HETATM   43  O   UNK N   1      33.171  16.233   2.416  0.00  0.00    -0.390 OA
HETATM   44  H   UNK N   1      33.024  16.430   1.479  0.00  0.00     0.210 HD
ENDBRANCH  39  43
BRANCH  40  45
HETATM   45  O   UNK N   1      33.279  17.646   4.694  0.00  0.00    -0.390 OA
HETATM   46  H   UNK N   1      33.722  18.490   4.873  0.00  0.00     0.210 HD
ENDBRANCH  40  45
BRANCH  41  47
HETATM   47  C   UNK N   1      31.141  17.097   6.768  0.00  0.00    -0.011 A 
HETATM   48  C   UNK N   1      29.833  17.492   7.039  0.00  0.00     0.028 A 
HETATM   49  C   UNK N   1      29.505  18.119   8.229  0.00  0.00     0.030 A 
HETATM   50  C   UNK N   1      30.521  18.333   9.172  0.00  0.00     0.103 A 
HETATM   51  N   UNK N   1      31.799  17.936   8.904  0.00  0.00    -0.374 N 
HETATM   52  C   UNK N   1      32.132  17.333   7.725  0.00  0.00     0.097 A 
ATOM     53  HN  UNK N   1      32.525  18.093   9.604  1.00  0.00     0.164 HD
BRANCH  49  54
HETATM   54  C   UNK N   1      28.111  18.555   8.444  0.00  0.00     0.145 C 
BRANCH  54  55
HETATM   55  N   UNK N   1      27.593  19.475   7.717  0.00  0.00    -0.379 N 
HETATM   56  H   UNK N   1      26.710  19.849   7.942  0.00  0.00     0.158 HD
ATOM     57  HN  UNK N   1      28.098  19.821   6.902  1.00  0.00     0.158 HD
ENDBRANCH  54  55
BRANCH  54  58
HETATM   58  O   UNK N   1      27.365  17.970   9.405  0.00  0.00    -0.346 OA
HETATM   59  H   UNK N   1      26.486  18.237   9.587  0.00  0.00     0.219 HD
ENDBRANCH  54  58
ENDBRANCH  49  54
ENDBRANCH  41  47
ENDBRANCH  37  38
ENDBRANCH  36  37
ENDBRANCH  32  36
ENDBRANCH  31  32
ENDBRANCH   2  31
TORSDOF 20
ENDMDL
MODEL 6
REMARK VINA RESULT:      -7.2      4.306     10.241
REMARK  20 active torsions:
REMARK  status: ('A' for Active; 'I' for Inactive)
REMARK    1  A    between atoms: C_10  and  C_4 
REMARK    2  A    between atoms: O_43  and  C_4 
REMARK    3  A    between atoms: C_11  and  C_5 
REMARK    4  A    between atoms: O_44  and  C_5 
REMARK    5  A    between atoms: C_17  and  C_8 
REMARK    6  A    between atoms: C_19  and  C_9 
REMARK    7  A    between atoms: C_13  and  O_34 
REMARK    8  A    between atoms: C_14  and  O_35 
REMARK    9  A    between atoms: C_15  and  O_36 
REMARK   10  A    between atoms: C_16  and  O_37 
REMARK   11  A    between atoms: N_22  and  C_18 
REMARK   12  A    between atoms: N_23  and  C_19 
REMARK   13  A    between atoms: O_38  and  C_19 
REMARK   14  A    between atoms: C_21  and  N_33 
REMARK   15  A    between atoms: P_48  and  O_39 
REMARK   16  A    between atoms: P_49  and  O_41 
REMARK   17  A    between atoms: P_48  and  O_43 
REMARK   18  A    between atoms: P_49  and  O_44 
REMARK   19  A    between atoms: P_48  and  O_47 
REMARK   20  A    between atoms: P_49  and  O_47 
ROOT
HETATM    1  O   UNK N   1      34.582  17.960   6.802  0.00  0.00    -0.631 OA
HETATM    2  P   UNK N   1      33.200  17.320   7.094  0.00  0.00     0.401 P 
ENDROOT
BRANCH   2   3
HETATM    3  O   UNK N   1      32.505  18.232   8.404  0.00  0.00    -0.307 OA
HETATM    4  H   UNK N   1      31.925  19.008   8.440  0.00  0.00     0.222 HD
ENDBRANCH   2   3
BRANCH   2   5
HETATM    5  O   UNK N   1      33.493  15.633   7.472  0.00  0.00    -0.294 OA
BRANCH   5   6
HETATM    6  C   UNK N   1      34.665  15.553   8.244  0.00  0.00     0.215 C 
BRANCH   6   7
HETATM    7  C   UNK N   1      34.323  15.447   9.732  0.00  0.00     0.180 C 
HETATM    8  C   UNK N   1      34.886  16.588  10.601  0.00  0.00     0.182 C 
HETATM    9  C   UNK N   1      35.949  15.889  11.391  0.00  0.00     0.198 C 
HETATM   10  C   UNK N   1      35.273  14.538  11.549  0.00  0.00     0.262 C 
HETATM   11  O   UNK N   1      34.786  14.215  10.266  0.00  0.00    -0.353 OA
BRANCH   8  12
HETATM   12  O   UNK N   1      35.379  17.694   9.900  0.00  0.00    -0.390 OA
HETATM   13  H   UNK N   1      35.301  18.084   9.016  0.00  0.00     0.210 HD
ENDBRANCH   8  12
BRANCH   9  14
HETATM   14  O   UNK N   1      37.111  15.742  10.623  0.00  0.00    -0.388 OA
HETATM   15  H   UNK N   1      37.776  15.863   9.927  0.00  0.00     0.210 HD
ENDBRANCH   9  14
BRANCH  10  16
HETATM   16  N   UNK N   1      36.213  13.538  12.057  0.00  0.00    -0.297 N 
HETATM   17  C   UNK N   1      37.259  12.961  11.409  0.00  0.00     0.188 A 
HETATM   18  N   UNK N   1      37.918  12.082  12.219  0.00  0.00    -0.346 N 
HETATM   19  C   UNK N   1      37.244  12.135  13.385  0.00  0.00     0.122 A 
ATOM     20  HN  UNK N   1      38.735  11.515  11.993  1.00  0.00     0.167 HD
HETATM   21  C   UNK N   1      37.466  11.464  14.576  0.00  0.00     0.131 A 
HETATM   22  C   UNK N   1      36.223  13.002  13.281  0.00  0.00     0.142 A 
HETATM   23  N   UNK N   1      36.618  11.714  15.620  0.00  0.00    -0.337 N 
HETATM   24  C   UNK N   1      35.577  12.602  15.488  0.00  0.00     0.183 A 
ATOM     25  HN  UNK N   1      36.760  11.234  16.509  1.00  0.00     0.168 HD
HETATM   26  N   UNK N   1      35.372  13.259  14.305  0.00  0.00    -0.336 N 
ATOM     27  HN  UNK N   1      34.604  13.921  14.198  1.00  0.00     0.168 HD
BRANCH  21  28
HETATM   28  N   UNK N   1      38.535  10.557  14.721  0.00  0.00    -0.383 N 
HETATM   29  H   UNK N   1      38.411   9.582  14.775  0.00  0.00     0.157 HD
HETATM   30  H   UNK N   1      39.450  10.917  14.772  0.00  0.00     0.157 HD
ENDBRANCH  21  28
ENDBRANCH  10  16
ENDBRANCH   6   7
ENDBRANCH   5   6
ENDBRANCH   2   5
BRANCH   2  31
HETATM   31  O   UNK N   1      32.255  17.502   5.651  0.00  0.00    -0.195 OA
BRANCH  31  32
HETATM   32  P   UNK N   1      32.796  16.225   4.607  0.00  0.00     0.401 P 
HETATM   33  O   UNK N   1      32.740  16.795   3.161  0.00  0.00    -0.631 OA
BRANCH  32  34
HETATM   34  O   UNK N   1      34.456  15.837   4.937  0.00  0.00    -0.307 OA
HETATM   35  H   UNK N   1      35.186  15.517   5.489  0.00  0.00     0.222 HD
ENDBRANCH  32  34
BRANCH  32  36
HETATM   36  O   UNK N   1      31.765  14.813   4.746  0.00  0.00    -0.294 OA
BRANCH  36  37
HETATM   37  C   UNK N   1      31.064  14.724   3.554  0.00  0.00     0.215 C 
BRANCH  37  38
HETATM   38  C   UNK N   1      29.552  14.563   3.763  0.00  0.00     0.178 C 
HETATM   39  C   UNK N   1      28.773  14.927   2.475  0.00  0.00     0.180 C 
HETATM   40  C   UNK N   1      27.943  16.137   2.902  0.00  0.00     0.183 C 
HETATM   41  C   UNK N   1      28.889  16.670   3.959  0.00  0.00     0.188 C 
HETATM   42  O   UNK N   1      29.210  15.532   4.718  0.00  0.00    -0.368 OA
BRANCH  39  43
HETATM   43  O   UNK N   1      27.983  13.876   2.000  0.00  0.00    -0.390 OA
HETATM   44  H   UNK N   1      27.530  13.147   2.452  0.00  0.00     0.210 HD
ENDBRANCH  39  43
BRANCH  40  45
HETATM   45  O   UNK N   1      26.754  15.718   3.513  0.00  0.00    -0.390 OA
HETATM   46  H   UNK N   1      25.904  15.291   3.702  0.00  0.00     0.210 HD
ENDBRANCH  40  45
BRANCH  41  47
HETATM   47  C   UNK N   1      28.504  17.770   4.892  0.00  0.00    -0.011 A 
HETATM   48  C   UNK N   1      28.677  17.510   6.251  0.00  0.00     0.028 A 
HETATM   49  C   UNK N   1      28.343  18.451   7.209  0.00  0.00     0.030 A 
HETATM   50  C   UNK N   1      27.842  19.690   6.782  0.00  0.00     0.103 A 
HETATM   51  N   UNK N   1      27.684  19.942   5.449  0.00  0.00    -0.374 N 
HETATM   52  C   UNK N   1      27.994  19.011   4.500  0.00  0.00     0.097 A 
ATOM     53  HN  UNK N   1      27.325  20.851   5.155  1.00  0.00     0.164 HD
BRANCH  49  54
HETATM   54  C   UNK N   1      28.507  18.105   8.635  0.00  0.00     0.145 C 
BRANCH  54  55
HETATM   55  N   UNK N   1      29.655  17.777   9.101  0.00  0.00    -0.379 N 
HETATM   56  H   UNK N   1      30.240  18.457   9.507  0.00  0.00     0.158 HD
ATOM     57  HN  UNK N   1      29.964  16.807   9.051  1.00  0.00     0.158 HD
ENDBRANCH  54  55
BRANCH  54  58
HETATM   58  O   UNK N   1      27.443  18.147   9.463  0.00  0.00    -0.346 OA
HETATM   59  H   UNK N   1      27.442  17.722  10.298  0.00  0.00     0.219 HD
ENDBRANCH  54  58
ENDBRANCH  49  54
ENDBRANCH  41  47
ENDBRANCH  37  38
ENDBRANCH  36  37
ENDBRANCH  32  36
ENDBRANCH  31  32
ENDBRANCH   2  31
TORSDOF 20
ENDMDL
MODEL 7
REMARK VINA RESULT:      -7.1     11.006     13.855
REMARK  20 active torsions:
REMARK  status: ('A' for Active; 'I' for Inactive)
REMARK    1  A    between atoms: C_10  and  C_4 
REMARK    2  A    between atoms: O_43  and  C_4 
REMARK    3  A    between atoms: C_11  and  C_5 
REMARK    4  A    between atoms: O_44  and  C_5 
REMARK    5  A    between atoms: C_17  and  C_8 
REMARK    6  A    between atoms: C_19  and  C_9 
REMARK    7  A    between atoms: C_13  and  O_34 
REMARK    8  A    between atoms: C_14  and  O_35 
REMARK    9  A    between atoms: C_15  and  O_36 
REMARK   10  A    between atoms: C_16  and  O_37 
REMARK   11  A    between atoms: N_22  and  C_18 
REMARK   12  A    between atoms: N_23  and  C_19 
REMARK   13  A    between atoms: O_38  and  C_19 
REMARK   14  A    between atoms: C_21  and  N_33 
REMARK   15  A    between atoms: P_48  and  O_39 
REMARK   16  A    between atoms: P_49  and  O_41 
REMARK   17  A    between atoms: P_48  and  O_43 
REMARK   18  A    between atoms: P_49  and  O_44 
REMARK   19  A    between atoms: P_48  and  O_47 
REMARK   20  A    between atoms: P_49  and  O_47 
ROOT
HETATM    1  O   UNK N   1      19.662  14.386   0.817  0.00  0.00    -0.631 OA
HETATM    2  P   UNK N   1      20.518  15.472   1.518  0.00  0.00     0.401 P 
ENDROOT
BRANCH   2   3
HETATM    3  O   UNK N   1      20.243  16.953   0.647  0.00  0.00    -0.307 OA
HETATM    4  H   UNK N   1      19.563  17.643   0.704  0.00  0.00     0.222 HD
ENDBRANCH   2   3
BRANCH   2   5
HETATM    5  O   UNK N   1      22.179  14.913   1.475  0.00  0.00    -0.294 OA
BRANCH   5   6
HETATM    6  C   UNK N   1      22.234  13.761   0.670  0.00  0.00     0.215 C 
BRANCH   6   7
HETATM    7  C   UNK N   1      22.945  12.624   1.407  0.00  0.00     0.180 C 
HETATM    8  C   UNK N   1      22.037  11.794   2.335  0.00  0.00     0.182 C 
HETATM    9  C   UNK N   1      22.518  12.199   3.694  0.00  0.00     0.198 C 
HETATM   10  C   UNK N   1      23.992  12.380   3.377  0.00  0.00     0.262 C 
HETATM   11  O   UNK N   1      24.025  13.128   2.182  0.00  0.00    -0.353 OA
BRANCH   8  12
HETATM   12  O   UNK N   1      20.662  11.997   2.171  0.00  0.00    -0.390 OA
HETATM   13  H   UNK N   1      19.887  12.181   2.723  0.00  0.00     0.210 HD
ENDBRANCH   8  12
BRANCH   9  14
HETATM   14  O   UNK N   1      21.965  13.432   4.061  0.00  0.00    -0.388 OA
HETATM   15  H   UNK N   1      21.328  14.111   4.332  0.00  0.00     0.210 HD
ENDBRANCH   9  14
BRANCH  10  16
HETATM   16  N   UNK N   1      24.686  13.052   4.475  0.00  0.00    -0.297 N 
HETATM   17  C   UNK N   1      25.382  12.491   5.499  0.00  0.00     0.188 A 
HETATM   18  N   UNK N   1      25.903  13.446   6.323  0.00  0.00    -0.346 N 
HETATM   19  C   UNK N   1      25.506  14.611   5.776  0.00  0.00     0.122 A 
ATOM     20  HN  UNK N   1      26.466  13.308   7.163  1.00  0.00     0.167 HD
HETATM   21  C   UNK N   1      25.749  15.915   6.176  0.00  0.00     0.131 A 
HETATM   22  C   UNK N   1      24.774  14.371   4.675  0.00  0.00     0.142 A 
HETATM   23  N   UNK N   1      25.221  16.926   5.421  0.00  0.00    -0.337 N 
HETATM   24  C   UNK N   1      24.470  16.654   4.302  0.00  0.00     0.183 A 
ATOM     25  HN  UNK N   1      25.385  17.895   5.693  1.00  0.00     0.168 HD
HETATM   26  N   UNK N   1      24.242  15.361   3.918  0.00  0.00    -0.336 N 
ATOM     27  HN  UNK N   1      23.688  15.149   3.088  1.00  0.00     0.168 HD
BRANCH  21  28
HETATM   28  N   UNK N   1      26.521  16.202   7.319  0.00  0.00    -0.383 N 
HETATM   29  H   UNK N   1      26.331  15.824   8.208  0.00  0.00     0.157 HD
HETATM   30  H   UNK N   1      27.289  16.811   7.223  0.00  0.00     0.157 HD
ENDBRANCH  21  28
ENDBRANCH  10  16
ENDBRANCH   6   7
ENDBRANCH   5   6
ENDBRANCH   2   5
BRANCH   2  31
HETATM   31  O   UNK N   1      19.925  15.598   3.143  0.00  0.00    -0.195 OA
BRANCH  31  32
HETATM   32  P   UNK N   1      20.142  17.269   3.563  0.00  0.00     0.401 P 
HETATM   33  O   UNK N   1      21.483  17.708   2.909  0.00  0.00    -0.631 OA
BRANCH  32  34
HETATM   34  O   UNK N   1      18.888  18.237   2.853  0.00  0.00    -0.307 OA
HETATM   35  H   UNK N   1      18.531  19.034   2.431  0.00  0.00     0.222 HD
ENDBRANCH  32  34
BRANCH  32  36
HETATM   36  O   UNK N   1      20.213  17.481   5.302  0.00  0.00    -0.294 OA
BRANCH  36  37
HETATM   37  C   UNK N   1      20.816  16.341   5.809  0.00  0.00     0.215 C 
BRANCH  37  38
HETATM   38  C   UNK N   1      19.892  15.541   6.736  0.00  0.00     0.178 C 
HETATM   39  C   UNK N   1      19.761  16.229   8.119  0.00  0.00     0.180 C 
HETATM   40  C   UNK N   1      20.367  15.203   9.075  0.00  0.00     0.183 C 
HETATM   41  C   UNK N   1      21.343  14.570   8.104  0.00  0.00     0.188 C 
HETATM   42  O   UNK N   1      20.561  14.328   6.961  0.00  0.00    -0.368 OA
BRANCH  39  43
HETATM   43  O   UNK N   1      18.441  16.552   8.445  0.00  0.00    -0.390 OA
HETATM   44  H   UNK N   1      17.725  16.036   8.847  0.00  0.00     0.210 HD
ENDBRANCH  39  43
BRANCH  40  45
HETATM   45  O   UNK N   1      19.402  14.257   9.446  0.00  0.00    -0.390 OA
HETATM   46  H   UNK N   1      18.849  13.639   9.949  0.00  0.00     0.210 HD
ENDBRANCH  40  45
BRANCH  41  47
HETATM   47  C   UNK N   1      22.100  13.325   8.432  0.00  0.00    -0.011 A 
HETATM   48  C   UNK N   1      22.511  13.188   9.756  0.00  0.00     0.028 A 
HETATM   49  C   UNK N   1      23.229  12.081  10.173  0.00  0.00     0.030 A 
HETATM   50  C   UNK N   1      23.521  11.082   9.233  0.00  0.00     0.103 A 
HETATM   51  N   UNK N   1      23.109  11.218   7.939  0.00  0.00    -0.374 N 
HETATM   52  C   UNK N   1      22.415  12.317   7.517  0.00  0.00     0.097 A 
ATOM     53  HN  UNK N   1      23.323  10.479   7.269  1.00  0.00     0.164 HD
BRANCH  49  54
HETATM   54  C   UNK N   1      23.675  12.009  11.579  0.00  0.00     0.145 C 
BRANCH  54  55
HETATM   55  N   UNK N   1      22.875  11.616  12.500  0.00  0.00    -0.379 N 
HETATM   56  H   UNK N   1      21.908  11.559  12.329  0.00  0.00     0.158 HD
ATOM     57  HN  UNK N   1      23.244  11.360  13.415  1.00  0.00     0.158 HD
ENDBRANCH  54  55
BRANCH  54  58
HETATM   58  O   UNK N   1      24.942  12.346  11.900  0.00  0.00    -0.346 OA
HETATM   59  H   UNK N   1      25.656  12.232  11.305  0.00  0.00     0.219 HD
ENDBRANCH  54  58
ENDBRANCH  49  54
ENDBRANCH  41  47
ENDBRANCH  37  38
ENDBRANCH  36  37
ENDBRANCH  32  36
ENDBRANCH  31  32
ENDBRANCH   2  31
TORSDOF 20
ENDMDL
MODEL 8
REMARK VINA RESULT:      -7.1      8.415     11.413
REMARK  20 active torsions:
REMARK  status: ('A' for Active; 'I' for Inactive)
REMARK    1  A    between atoms: C_10  and  C_4 
REMARK    2  A    between atoms: O_43  and  C_4 
REMARK    3  A    between atoms: C_11  and  C_5 
REMARK    4  A    between atoms: O_44  and  C_5 
REMARK    5  A    between atoms: C_17  and  C_8 
REMARK    6  A    between atoms: C_19  and  C_9 
REMARK    7  A    between atoms: C_13  and  O_34 
REMARK    8  A    between atoms: C_14  and  O_35 
REMARK    9  A    between atoms: C_15  and  O_36 
REMARK   10  A    between atoms: C_16  and  O_37 
REMARK   11  A    between atoms: N_22  and  C_18 
REMARK   12  A    between atoms: N_23  and  C_19 
REMARK   13  A    between atoms: O_38  and  C_19 
REMARK   14  A    between atoms: C_21  and  N_33 
REMARK   15  A    between atoms: P_48  and  O_39 
REMARK   16  A    between atoms: P_49  and  O_41 
REMARK   17  A    between atoms: P_48  and  O_43 
REMARK   18  A    between atoms: P_49  and  O_44 
REMARK   19  A    between atoms: P_48  and  O_47 
REMARK   20  A    between atoms: P_49  and  O_47 
ROOT
HETATM    1  O   UNK N   1      24.197  15.698   3.162  0.00  0.00    -0.631 OA
HETATM    2  P   UNK N   1      25.343  16.307   4.011  0.00  0.00     0.401 P 
ENDROOT
BRANCH   2   3
HETATM    3  O   UNK N   1      26.661  15.174   3.940  0.00  0.00    -0.307 OA
HETATM    4  H   UNK N   1      27.147  14.675   4.615  0.00  0.00     0.222 HD
ENDBRANCH   2   3
BRANCH   2   5
HETATM    5  O   UNK N   1      24.701  16.560   5.622  0.00  0.00    -0.294 OA
BRANCH   5   6
HETATM    6  C   UNK N   1      23.963  15.419   5.986  0.00  0.00     0.215 C 
BRANCH   6   7
HETATM    7  C   UNK N   1      22.505  15.789   6.268  0.00  0.00     0.180 C 
HETATM    8  C   UNK N   1      21.487  14.682   5.938  0.00  0.00     0.182 C 
HETATM    9  C   UNK N   1      20.790  15.240   4.737  0.00  0.00     0.198 C 
HETATM   10  C   UNK N   1      20.818  16.711   5.112  0.00  0.00     0.262 C 
HETATM   11  O   UNK N   1      22.137  16.957   5.547  0.00  0.00    -0.353 OA
BRANCH   8  12
HETATM   12  O   UNK N   1      22.031  13.414   5.701  0.00  0.00    -0.390 OA
HETATM   13  H   UNK N   1      22.131  12.797   4.960  0.00  0.00     0.210 HD
ENDBRANCH   8  12
BRANCH   9  14
HETATM   14  O   UNK N   1      21.561  15.038   3.585  0.00  0.00    -0.388 OA
HETATM   15  H   UNK N   1      22.231  14.691   2.976  0.00  0.00     0.210 HD
ENDBRANCH   9  14
BRANCH  10  16
HETATM   16  N   UNK N   1      20.440  17.550   3.974  0.00  0.00    -0.297 N 
HETATM   17  C   UNK N   1      19.303  17.498   3.232  0.00  0.00     0.188 A 
HETATM   18  N   UNK N   1      19.303  18.457   2.261  0.00  0.00    -0.346 N 
HETATM   19  C   UNK N   1      20.477  19.099   2.427  0.00  0.00     0.122 A 
ATOM     20  HN  UNK N   1      18.579  18.645   1.567  1.00  0.00     0.167 HD
HETATM   21  C   UNK N   1      21.015  20.170   1.733  0.00  0.00     0.131 A 
HETATM   22  C   UNK N   1      21.155  18.549   3.449  0.00  0.00     0.142 A 
HETATM   23  N   UNK N   1      22.242  20.633   2.121  0.00  0.00    -0.337 N 
HETATM   24  C   UNK N   1      22.919  20.051   3.166  0.00  0.00     0.183 A 
ATOM     25  HN  UNK N   1      22.661  21.422   1.628  1.00  0.00     0.168 HD
HETATM   26  N   UNK N   1      22.373  18.995   3.844  0.00  0.00    -0.336 N 
ATOM     27  HN  UNK N   1      22.866  18.558   4.622  1.00  0.00     0.168 HD
BRANCH  21  28
HETATM   28  N   UNK N   1      20.325  20.776   0.664  0.00  0.00    -0.383 N 
HETATM   29  H   UNK N   1      19.702  21.528   0.782  0.00  0.00     0.157 HD
HETATM   30  H   UNK N   1      20.474  20.428  -0.246  0.00  0.00     0.157 HD
ENDBRANCH  21  28
ENDBRANCH  10  16
ENDBRANCH   6   7
ENDBRANCH   5   6
ENDBRANCH   2   5
BRANCH   2  31
HETATM   31  O   UNK N   1      25.780  17.804   3.250  0.00  0.00    -0.195 OA
BRANCH  31  32
HETATM   32  P   UNK N   1      26.757  18.626   4.427  0.00  0.00     0.401 P 
HETATM   33  O   UNK N   1      27.407  19.829   3.685  0.00  0.00    -0.631 OA
BRANCH  32  34
HETATM   34  O   UNK N   1      25.760  19.282   5.687  0.00  0.00    -0.307 OA
HETATM   35  H   UNK N   1      25.546  19.508   6.606  0.00  0.00     0.222 HD
ENDBRANCH  32  34
BRANCH  32  36
HETATM   36  O   UNK N   1      27.997  17.567   5.072  0.00  0.00    -0.294 OA
BRANCH  36  37
HETATM   37  C   UNK N   1      28.625  18.274   6.084  0.00  0.00     0.215 C 
BRANCH  37  38
HETATM   38  C   UNK N   1      28.587  17.543   7.433  0.00  0.00     0.178 C 
HETATM   39  C   UNK N   1      28.491  18.550   8.607  0.00  0.00     0.180 C 
HETATM   40  C   UNK N   1      29.795  18.318   9.370  0.00  0.00     0.183 C 
HETATM   41  C   UNK N   1      30.644  17.877   8.194  0.00  0.00     0.188 C 
HETATM   42  O   UNK N   1      29.841  16.922   7.547  0.00  0.00    -0.368 OA
BRANCH  39  43
HETATM   43  O   UNK N   1      27.361  18.351   9.405  0.00  0.00    -0.390 OA
HETATM   44  H   UNK N   1      27.258  18.150  10.348  0.00  0.00     0.210 HD
ENDBRANCH  39  43
BRANCH  40  45
HETATM   45  O   UNK N   1      29.651  17.249  10.264  0.00  0.00    -0.390 OA
HETATM   46  H   UNK N   1      29.352  16.441  10.708  0.00  0.00     0.210 HD
ENDBRANCH  40  45
BRANCH  41  47
HETATM   47  C   UNK N   1      32.012  17.306   8.368  0.00  0.00    -0.011 A 
HETATM   48  C   UNK N   1      32.079  15.935   8.604  0.00  0.00     0.028 A 
HETATM   49  C   UNK N   1      33.293  15.298   8.792  0.00  0.00     0.030 A 
HETATM   50  C   UNK N   1      34.466  16.062   8.719  0.00  0.00     0.103 A 
HETATM   51  N   UNK N   1      34.395  17.405   8.479  0.00  0.00    -0.374 N 
HETATM   52  C   UNK N   1      33.199  18.042   8.311  0.00  0.00     0.097 A 
ATOM     53  HN  UNK N   1      35.259  17.945   8.422  1.00  0.00     0.164 HD
BRANCH  49  54
HETATM   54  C   UNK N   1      33.301  13.850   9.082  0.00  0.00     0.145 C 
BRANCH  54  55
HETATM   55  N   UNK N   1      32.780  13.015   8.260  0.00  0.00    -0.379 N 
HETATM   56  H   UNK N   1      33.251  12.181   8.031  0.00  0.00     0.158 HD
ATOM     57  HN  UNK N   1      31.873  13.216   7.841  1.00  0.00     0.158 HD
ENDBRANCH  54  55
BRANCH  54  58
HETATM   58  O   UNK N   1      33.874  13.394  10.215  0.00  0.00    -0.346 OA
HETATM   59  H   UNK N   1      33.979  13.932  10.974  0.00  0.00     0.219 HD
ENDBRANCH  54  58
ENDBRANCH  49  54
ENDBRANCH  41  47
ENDBRANCH  37  38
ENDBRANCH  36  37
ENDBRANCH  32  36
ENDBRANCH  31  32
ENDBRANCH   2  31
TORSDOF 20
ENDMDL
MODEL 9
REMARK VINA RESULT:      -7.1      9.137     12.914
REMARK  20 active torsions:
REMARK  status: ('A' for Active; 'I' for Inactive)
REMARK    1  A    between atoms: C_10  and  C_4 
REMARK    2  A    between atoms: O_43  and  C_4 
REMARK    3  A    between atoms: C_11  and  C_5 
REMARK    4  A    between atoms: O_44  and  C_5 
REMARK    5  A    between atoms: C_17  and  C_8 
REMARK    6  A    between atoms: C_19  and  C_9 
REMARK    7  A    between atoms: C_13  and  O_34 
REMARK    8  A    between atoms: C_14  and  O_35 
REMARK    9  A    between atoms: C_15  and  O_36 
REMARK   10  A    between atoms: C_16  and  O_37 
REMARK   11  A    between atoms: N_22  and  C_18 
REMARK   12  A    between atoms: N_23  and  C_19 
REMARK   13  A    between atoms: O_38  and  C_19 
REMARK   14  A    between atoms: C_21  and  N_33 
REMARK   15  A    between atoms: P_48  and  O_39 
REMARK   16  A    between atoms: P_49  and  O_41 
REMARK   17  A    between atoms: P_48  and  O_43 
REMARK   18  A    between atoms: P_49  and  O_44 
REMARK   19  A    between atoms: P_48  and  O_47 
REMARK   20  A    between atoms: P_49  and  O_47 
ROOT
HETATM    1  O   UNK N   1      23.907  13.999   7.526  0.00  0.00    -0.631 OA
HETATM    2  P   UNK N   1      24.314  14.797   6.260  0.00  0.00     0.401 P 
ENDROOT
BRANCH   2   3
HETATM    3  O   UNK N   1      25.404  16.044   6.795  0.00  0.00    -0.307 OA
HETATM    4  H   UNK N   1      25.275  16.961   7.086  0.00  0.00     0.222 HD
ENDBRANCH   2   3
BRANCH   2   5
HETATM    5  O   UNK N   1      22.832  15.400   5.543  0.00  0.00    -0.294 OA
BRANCH   5   6
HETATM    6  C   UNK N   1      21.776  14.564   5.949  0.00  0.00     0.215 C 
BRANCH   6   7
HETATM    7  C   UNK N   1      20.862  14.239   4.765  0.00  0.00     0.180 C 
HETATM    8  C   UNK N   1      21.534  13.432   3.639  0.00  0.00     0.182 C 
HETATM    9  C   UNK N   1      21.632  14.443   2.539  0.00  0.00     0.198 C 
HETATM   10  C   UNK N   1      20.347  15.206   2.808  0.00  0.00     0.262 C 
HETATM   11  O   UNK N   1      20.333  15.431   4.200  0.00  0.00    -0.353 OA
BRANCH   8  12
HETATM   12  O   UNK N   1      22.775  12.867   3.959  0.00  0.00    -0.390 OA
HETATM   13  H   UNK N   1      23.671  13.166   4.177  0.00  0.00     0.210 HD
ENDBRANCH   8  12
BRANCH   9  14
HETATM   14  O   UNK N   1      22.729  15.289   2.748  0.00  0.00    -0.388 OA
HETATM   15  H   UNK N   1      23.639  15.612   2.830  0.00  0.00     0.210 HD
ENDBRANCH   9  14
BRANCH  10  16
HETATM   16  N   UNK N   1      20.306  16.452   2.041  0.00  0.00    -0.297 N 
HETATM   17  C   UNK N   1      19.977  16.625   0.734  0.00  0.00     0.188 A 
HETATM   18  N   UNK N   1      20.039  17.941   0.379  0.00  0.00    -0.346 N 
HETATM   19  C   UNK N   1      20.420  18.572   1.507  0.00  0.00     0.122 A 
ATOM     20  HN  UNK N   1      19.843  18.353  -0.533  1.00  0.00     0.167 HD
HETATM   21  C   UNK N   1      20.635  19.919   1.748  0.00  0.00     0.131 A 
HETATM   22  C   UNK N   1      20.583  17.677   2.497  0.00  0.00     0.142 A 
HETATM   23  N   UNK N   1      21.017  20.292   3.007  0.00  0.00    -0.337 N 
HETATM   24  C   UNK N   1      21.183  19.357   4.002  0.00  0.00     0.183 A 
ATOM     25  HN  UNK N   1      21.181  21.278   3.212  1.00  0.00     0.168 HD
HETATM   26  N   UNK N   1      20.963  18.031   3.749  0.00  0.00    -0.336 N 
ATOM     27  HN  UNK N   1      21.082  17.330   4.480  1.00  0.00     0.168 HD
BRANCH  21  28
HETATM   28  N   UNK N   1      20.462  20.884   0.736  0.00  0.00    -0.383 N 
HETATM   29  H   UNK N   1      21.060  21.657   0.619  0.00  0.00     0.157 HD
HETATM   30  H   UNK N   1      19.703  20.781   0.116  0.00  0.00     0.157 HD
ENDBRANCH  21  28
ENDBRANCH  10  16
ENDBRANCH   6   7
ENDBRANCH   5   6
ENDBRANCH   2   5
BRANCH   2  31
HETATM   31  O   UNK N   1      25.129  13.681   5.212  0.00  0.00    -0.195 OA
BRANCH  31  32
HETATM   32  P   UNK N   1      26.185  14.669   4.252  0.00  0.00     0.401 P 
HETATM   33  O   UNK N   1      27.429  14.962   5.140  0.00  0.00    -0.631 OA
BRANCH  32  34
HETATM   34  O   UNK N   1      26.745  13.786   2.866  0.00  0.00    -0.307 OA
HETATM   35  H   UNK N   1      27.062  12.996   2.402  0.00  0.00     0.222 HD
ENDBRANCH  32  34
BRANCH  32  36
HETATM   36  O   UNK N   1      25.401  16.167   3.787  0.00  0.00    -0.294 OA
BRANCH  36  37
HETATM   37  C   UNK N   1      26.416  17.075   3.532  0.00  0.00     0.215 C 
BRANCH  37  38
HETATM   38  C   UNK N   1      26.200  18.422   4.236  0.00  0.00     0.178 C 
HETATM   39  C   UNK N   1      27.147  19.505   3.662  0.00  0.00     0.180 C 
HETATM   40  C   UNK N   1      28.021  19.872   4.861  0.00  0.00     0.183 C 
HETATM   41  C   UNK N   1      27.970  18.533   5.567  0.00  0.00     0.188 C 
HETATM   42  O   UNK N   1      26.603  18.209   5.563  0.00  0.00    -0.368 OA
BRANCH  39  43
HETATM   43  O   UNK N   1      26.463  20.607   3.140  0.00  0.00    -0.390 OA
HETATM   44  H   UNK N   1      26.010  20.750   2.294  0.00  0.00     0.210 HD
ENDBRANCH  39  43
BRANCH  40  45
HETATM   45  O   UNK N   1      27.382  20.837   5.650  0.00  0.00    -0.390 OA
HETATM   46  H   UNK N   1      26.819  21.564   5.958  0.00  0.00     0.210 HD
ENDBRANCH  40  45
BRANCH  41  47
HETATM   47  C   UNK N   1      28.498  18.340   6.951  0.00  0.00    -0.011 A 
HETATM   48  C   UNK N   1      29.731  17.699   7.053  0.00  0.00     0.028 A 
HETATM   49  C   UNK N   1      30.313  17.457   8.285  0.00  0.00     0.030 A 
HETATM   50  C   UNK N   1      29.642  17.890   9.437  0.00  0.00     0.103 A 
HETATM   51  N   UNK N   1      28.438  18.525   9.331  0.00  0.00    -0.374 N 
HETATM   52  C   UNK N   1      27.850  18.751   8.119  0.00  0.00     0.097 A 
ATOM     53  HN  UNK N   1      27.966  18.840  10.178  1.00  0.00     0.164 HD
BRANCH  49  54
HETATM   54  C   UNK N   1      31.601  16.735   8.335  0.00  0.00     0.145 C 
BRANCH  54  55
HETATM   55  N   UNK N   1      31.817  15.729   7.571  0.00  0.00    -0.379 N 
HETATM   56  H   UNK N   1      31.066  15.198   7.221  0.00  0.00     0.158 HD
ATOM     57  HN  UNK N   1      32.774  15.478   7.324  1.00  0.00     0.158 HD
ENDBRANCH  54  55
BRANCH  54  58
HETATM   58  O   UNK N   1      32.568  17.145   9.181  0.00  0.00    -0.346 OA
HETATM   59  H   UNK N   1      32.531  16.980  10.103  0.00  0.00     0.219 HD
ENDBRANCH  54  58
ENDBRANCH  49  54
ENDBRANCH  41  47
ENDBRANCH  37  38
ENDBRANCH  36  37
ENDBRANCH  32  36
ENDBRANCH  31  32
ENDBRANCH   2  31
TORSDOF 20
ENDMDL
