REMARK  2 active torsions:
REMARK  status: ('A' for Active; 'I' for Inactive)
REMARK    1  A    between atoms: O_1  and  C_2 
REMARK    2  A    between atoms: C_4  and  C_2 
ROOT
HETATM    1  C   UNK N   1       0.535   1.175  -0.000  0.00  0.00     0.218 A 
HETATM    2  C   UNK N   1       1.822   0.410   0.000  0.00  0.00     0.045 A 
HETATM    3  C   UNK N   1       1.336  -1.006  -0.000  0.00  0.00     0.029 A 
HETATM    4  C   UNK N   1      -0.187  -0.933   0.000  0.00  0.00     0.169 A 
HETATM    5  O   UNK N   1      -0.628   0.403   0.000  0.00  0.00    -0.375 OA
ENDROOT
BRANCH   1   6
HETATM    6  C   UNK N   1       0.425   2.662   0.000  0.00  0.00     0.170 C 
HETATM    7  O   UNK N   1       1.430   3.352   0.000  0.00  0.00    -0.648 OA
BRANCH   6   8
HETATM    8  O   UNK N   1      -0.789   3.243   0.000  0.00  0.00    -0.774 OA
HETATM    9  H   UNK N   1      -0.861   4.177   0.000  0.00  0.00     0.167 HD
ENDBRANCH   6   8
ENDBRANCH   1   6
TORSDOF 2
