MODEL 1
REMARK VINA RESULT:      -4.2      0.000      0.000
REMARK  1 active torsions:
REMARK  status: ('A' for Active; 'I' for Inactive)
REMARK    1  A    between atoms: O_1  and  C_2 
ROOT
HETATM    1  C   UNK N   1      25.642  27.538  -3.958  0.00  0.00     0.065 A 
HETATM    2  C   UNK N   1      26.369  26.476  -3.411  0.00  0.00     0.038 A 
HETATM    3  C   UNK N   1      26.532  25.293  -4.138  0.00  0.00     0.021 A 
HETATM    4  C   UNK N   1      25.968  25.174  -5.412  0.00  0.00     0.006 A 
HETATM    5  I   UNK N   1      26.213  23.398  -6.503  0.00  0.00    -0.045 I 
HETATM    6  C   UNK N   1      25.240  26.235  -5.959  0.00  0.00     0.021 A 
HETATM    7  C   UNK N   1      25.078  27.417  -5.231  0.00  0.00     0.038 A 
ENDROOT
BRANCH   1   8
HETATM    8  O   UNK N   1      25.485  28.673  -3.259  0.00  0.00    -0.361 OA
HETATM    9  H   UNK N   1      25.865  29.471  -3.572  0.00  0.00     0.217 HD
ENDBRANCH   1   8
TORSDOF 1
ENDMDL
MODEL 2
REMARK VINA RESULT:      -4.1     27.220     28.109
REMARK  1 active torsions:
REMARK  status: ('A' for Active; 'I' for Inactive)
REMARK    1  A    between atoms: O_1  and  C_2 
ROOT
HETATM    1  C   UNK N   1      35.393  12.584  19.047  0.00  0.00     0.065 A 
HETATM    2  C   UNK N   1      35.397  11.218  18.748  0.00  0.00     0.038 A 
HETATM    3  C   UNK N   1      35.115  10.787  17.449  0.00  0.00     0.021 A 
HETATM    4  C   UNK N   1      34.830  11.723  16.450  0.00  0.00     0.006 A 
HETATM    5  I   UNK N   1      34.407  11.075  14.498  0.00  0.00    -0.045 I 
HETATM    6  C   UNK N   1      34.825  13.089  16.749  0.00  0.00     0.021 A 
HETATM    7  C   UNK N   1      35.107  13.519  18.048  0.00  0.00     0.038 A 
ENDROOT
BRANCH   1   8
HETATM    8  O   UNK N   1      35.663  12.998  20.295  0.00  0.00    -0.361 OA
HETATM    9  H   UNK N   1      35.709  12.376  20.995  0.00  0.00     0.217 HD
ENDBRANCH   1   8
TORSDOF 1
ENDMDL
MODEL 3
REMARK VINA RESULT:      -4.1     20.358     21.029
REMARK  1 active torsions:
REMARK  status: ('A' for Active; 'I' for Inactive)
REMARK    1  A    between atoms: O_1  and  C_2 
ROOT
HETATM    1  C   UNK N   1      23.586  12.150  11.909  0.00  0.00     0.065 A 
HETATM    2  C   UNK N   1      24.599  12.110  10.945  0.00  0.00     0.038 A 
HETATM    3  C   UNK N   1      24.270  12.075   9.587  0.00  0.00     0.021 A 
HETATM    4  C   UNK N   1      22.928  12.081   9.194  0.00  0.00     0.006 A 
HETATM    5  I   UNK N   1      22.434  12.029   7.155  0.00  0.00    -0.045 I 
HETATM    6  C   UNK N   1      21.915  12.121  10.158  0.00  0.00     0.021 A 
HETATM    7  C   UNK N   1      22.245  12.156  11.515  0.00  0.00     0.038 A 
ENDROOT
BRANCH   1   8
HETATM    8  O   UNK N   1      23.903  12.183  13.212  0.00  0.00    -0.361 OA
HETATM    9  H   UNK N   1      23.345  11.767  13.841  0.00  0.00     0.217 HD
ENDBRANCH   1   8
TORSDOF 1
ENDMDL
MODEL 4
REMARK VINA RESULT:      -4.1     20.331     21.025
REMARK  1 active torsions:
REMARK  status: ('A' for Active; 'I' for Inactive)
REMARK    1  A    between atoms: O_1  and  C_2 
ROOT
HETATM    1  C   UNK N   1      23.600  12.156  11.875  0.00  0.00     0.065 A 
HETATM    2  C   UNK N   1      22.251  12.156  11.510  0.00  0.00     0.038 A 
HETATM    3  C   UNK N   1      21.892  12.133  10.159  0.00  0.00     0.021 A 
HETATM    4  C   UNK N   1      22.885  12.111   9.174  0.00  0.00     0.006 A 
HETATM    5  I   UNK N   1      22.347  12.077   7.146  0.00  0.00    -0.045 I 
HETATM    6  C   UNK N   1      24.235  12.111   9.539  0.00  0.00     0.021 A 
HETATM    7  C   UNK N   1      24.592  12.133  10.890  0.00  0.00     0.038 A 
ENDROOT
BRANCH   1   8
HETATM    8  O   UNK N   1      23.944  12.177  13.172  0.00  0.00    -0.361 OA
HETATM    9  H   UNK N   1      24.839  12.053  13.422  0.00  0.00     0.217 HD
ENDBRANCH   1   8
TORSDOF 1
ENDMDL
MODEL 5
REMARK VINA RESULT:      -4.1     15.764     16.189
REMARK  1 active torsions:
REMARK  status: ('A' for Active; 'I' for Inactive)
REMARK    1  A    between atoms: O_1  and  C_2 
ROOT
HETATM    1  C   UNK N   1      28.592  18.036   8.818  0.00  0.00     0.065 A 
HETATM    2  C   UNK N   1      28.663  17.302   7.630  0.00  0.00     0.038 A 
HETATM    3  C   UNK N   1      29.905  17.041   7.043  0.00  0.00     0.021 A 
HETATM    4  C   UNK N   1      31.074  17.516   7.644  0.00  0.00     0.006 A 
HETATM    5  I   UNK N   1      32.938  17.124   6.762  0.00  0.00    -0.045 I 
HETATM    6  C   UNK N   1      31.004  18.251   8.832  0.00  0.00     0.021 A 
HETATM    7  C   UNK N   1      29.763  18.511   9.418  0.00  0.00     0.038 A 
ENDROOT
BRANCH   1   8
HETATM    8  O   UNK N   1      27.400  18.286   9.381  0.00  0.00    -0.361 OA
HETATM    9  H   UNK N   1      26.752  18.772   8.909  0.00  0.00     0.217 HD
ENDBRANCH   1   8
TORSDOF 1
ENDMDL
MODEL 6
REMARK VINA RESULT:      -4.0     20.191     20.941
REMARK  1 active torsions:
REMARK  status: ('A' for Active; 'I' for Inactive)
REMARK    1  A    between atoms: O_1  and  C_2 
ROOT
HETATM    1  C   UNK N   1      23.001  11.883  11.928  0.00  0.00     0.065 A 
HETATM    2  C   UNK N   1      24.358  11.968  11.600  0.00  0.00     0.038 A 
HETATM    3  C   UNK N   1      24.745  12.459  10.350  0.00  0.00     0.021 A 
HETATM    4  C   UNK N   1      23.774  12.864   9.429  0.00  0.00     0.006 A 
HETATM    5  I   UNK N   1      24.355  13.601   7.551  0.00  0.00    -0.045 I 
HETATM    6  C   UNK N   1      22.417  12.778   9.756  0.00  0.00     0.021 A 
HETATM    7  C   UNK N   1      22.031  12.288  11.006  0.00  0.00     0.038 A 
ENDROOT
BRANCH   1   8
HETATM    8  O   UNK N   1      22.630  11.411  13.129  0.00  0.00    -0.361 OA
HETATM    9  H   UNK N   1      23.265  11.320  13.813  0.00  0.00     0.217 HD
ENDBRANCH   1   8
TORSDOF 1
ENDMDL
MODEL 7
REMARK VINA RESULT:      -3.8     15.789     16.378
REMARK  1 active torsions:
REMARK  status: ('A' for Active; 'I' for Inactive)
REMARK    1  A    between atoms: O_1  and  C_2 
ROOT
HETATM    1  C   UNK N   1      33.185  17.603   6.781  0.00  0.00     0.065 A 
HETATM    2  C   UNK N   1      32.097  17.147   6.032  0.00  0.00     0.038 A 
HETATM    3  C   UNK N   1      30.812  17.166   6.583  0.00  0.00     0.021 A 
HETATM    4  C   UNK N   1      30.618  17.642   7.884  0.00  0.00     0.006 A 
HETATM    5  I   UNK N   1      28.689  17.671   8.711  0.00  0.00    -0.045 I 
HETATM    6  C   UNK N   1      31.707  18.098   8.633  0.00  0.00     0.021 A 
HETATM    7  C   UNK N   1      32.990  18.079   8.082  0.00  0.00     0.038 A 
ENDROOT
BRANCH   1   8
HETATM    8  O   UNK N   1      34.418  17.585   6.252  0.00  0.00    -0.361 OA
HETATM    9  H   UNK N   1      34.539  17.763   5.340  0.00  0.00     0.217 HD
ENDBRANCH   1   8
TORSDOF 1
ENDMDL
MODEL 8
REMARK VINA RESULT:      -3.8     19.030     19.889
REMARK  1 active torsions:
REMARK  status: ('A' for Active; 'I' for Inactive)
REMARK    1  A    between atoms: O_1  and  C_2 
ROOT
HETATM    1  C   UNK N   1      44.652  22.060   3.685  0.00  0.00     0.065 A 
HETATM    2  C   UNK N   1      43.799  23.076   3.243  0.00  0.00     0.038 A 
HETATM    3  C   UNK N   1      42.542  22.755   2.722  0.00  0.00     0.021 A 
HETATM    4  C   UNK N   1      42.140  21.418   2.643  0.00  0.00     0.006 A 
HETATM    5  I   UNK N   1      40.253  20.936   1.860  0.00  0.00    -0.045 I 
HETATM    6  C   UNK N   1      42.993  20.402   3.085  0.00  0.00     0.021 A 
HETATM    7  C   UNK N   1      44.249  20.723   3.605  0.00  0.00     0.038 A 
ENDROOT
BRANCH   1   8
HETATM    8  O   UNK N   1      45.859  22.368   4.185  0.00  0.00    -0.361 OA
HETATM    9  H   UNK N   1      46.518  22.732   3.627  0.00  0.00     0.217 HD
ENDBRANCH   1   8
TORSDOF 1
ENDMDL
MODEL 9
REMARK VINA RESULT:      -3.8      3.099      3.901
REMARK  1 active torsions:
REMARK  status: ('A' for Active; 'I' for Inactive)
REMARK    1  A    between atoms: O_1  and  C_2 
ROOT
HETATM    1  C   UNK N   1      25.597  25.118  -5.227  0.00  0.00     0.065 A 
HETATM    2  C   UNK N   1      25.181  26.237  -5.955  0.00  0.00     0.038 A 
HETATM    3  C   UNK N   1      25.503  27.521  -5.506  0.00  0.00     0.021 A 
HETATM    4  C   UNK N   1      26.241  27.684  -4.329  0.00  0.00     0.006 A 
HETATM    5  I   UNK N   1      26.724  29.612  -3.655  0.00  0.00    -0.045 I 
HETATM    6  C   UNK N   1      26.656  26.565  -3.601  0.00  0.00     0.021 A 
HETATM    7  C   UNK N   1      26.334  25.282  -4.051  0.00  0.00     0.038 A 
ENDROOT
BRANCH   1   8
HETATM    8  O   UNK N   1      25.288  23.885  -5.658  0.00  0.00    -0.361 OA
HETATM    9  H   UNK N   1      24.411  23.564  -5.571  0.00  0.00     0.217 HD
ENDBRANCH   1   8
TORSDOF 1
ENDMDL
