MODEL 1
REMARK VINA RESULT:      -5.2      0.000      0.000
REMARK  5 active torsions:
REMARK  status: ('A' for Active; 'I' for Inactive)
REMARK    1  A    between atoms: C_6  and  C_1 
REMARK    2  A    between atoms: O_9  and  C_1 
REMARK    3  A    between atoms: C_2  and  O_10 
REMARK    4  A    between atoms: C_3  and  O_11 
REMARK    5  A    between atoms: C_4  and  O_12 
ROOT
HETATM    1  C   UNK N   1      33.325  14.857   9.462  0.00  0.00     0.186 C 
HETATM    2  C   UNK N   1      33.882  15.146  10.862  0.00  0.00     0.209 C 
HETATM    3  C   UNK N   1      33.152  16.177   8.694  0.00  0.00     0.219 C 
HETATM    4  C   UNK N   1      35.166  15.980  10.733  0.00  0.00     0.342 C 
HETATM    5  C   UNK N   1      34.501  16.938   8.703  0.00  0.00     0.257 C 
HETATM    6  F   UNK N   1      35.633  16.287  11.998  0.00  0.00    -0.217 F 
HETATM    7  F   UNK N   1      35.476  16.210   8.030  0.00  0.00    -0.206 F 
HETATM    8  O   UNK N   1      34.910  17.193  10.040  0.00  0.00    -0.309 OA
ENDROOT
BRANCH   5   9
HETATM    9  C   UNK N   1      34.372  18.283   7.991  0.00  0.00     0.240 C 
BRANCH   9  10
HETATM   10  O   UNK N   1      35.287  19.206   8.500  0.00  0.00    -0.395 OA
HETATM   11  H   UNK N   1      35.809  19.169   9.316  0.00  0.00     0.209 HD
ENDBRANCH   9  10
ENDBRANCH   5   9
BRANCH   3  12
HETATM   12  O   UNK N   1      32.163  16.956   9.307  0.00  0.00    -0.387 OA
HETATM   13  H   UNK N   1      31.639  17.559   9.857  0.00  0.00     0.210 HD
ENDBRANCH   3  12
BRANCH   1  14
HETATM   14  O   UNK N   1      32.106  14.181   9.552  0.00  0.00    -0.390 OA
HETATM   15  H   UNK N   1      31.560  14.024   8.766  0.00  0.00     0.210 HD
ENDBRANCH   1  14
BRANCH   2  16
HETATM   16  O   UNK N   1      34.157  13.946  11.526  0.00  0.00    -0.388 OA
HETATM   17  H   UNK N   1      34.768  13.836  12.271  0.00  0.00     0.210 HD
ENDBRANCH   2  16
TORSDOF 5
ENDMDL
MODEL 2
REMARK VINA RESULT:      -5.2      2.425      3.748
REMARK  5 active torsions:
REMARK  status: ('A' for Active; 'I' for Inactive)
REMARK    1  A    between atoms: C_6  and  C_1 
REMARK    2  A    between atoms: O_9  and  C_1 
REMARK    3  A    between atoms: C_2  and  O_10 
REMARK    4  A    between atoms: C_3  and  O_11 
REMARK    5  A    between atoms: C_4  and  O_12 
ROOT
HETATM    1  C   UNK N   1      34.122  18.233   8.446  0.00  0.00     0.186 C 
HETATM    2  C   UNK N   1      34.496  16.920   9.146  0.00  0.00     0.209 C 
HETATM    3  C   UNK N   1      33.604  17.933   7.031  0.00  0.00     0.219 C 
HETATM    4  C   UNK N   1      33.296  15.962   9.099  0.00  0.00     0.342 C 
HETATM    5  C   UNK N   1      32.447  16.908   7.133  0.00  0.00     0.257 C 
HETATM    6  F   UNK N   1      33.655  14.759   9.679  0.00  0.00    -0.217 F 
HETATM    7  F   UNK N   1      31.379  17.447   7.842  0.00  0.00    -0.206 F 
HETATM    8  O   UNK N   1      32.902  15.716   7.757  0.00  0.00    -0.309 OA
ENDROOT
BRANCH   5   9
HETATM    9  C   UNK N   1      31.924  16.538   5.747  0.00  0.00     0.240 C 
BRANCH   9  10
HETATM   10  O   UNK N   1      32.176  17.559   4.830  0.00  0.00    -0.395 OA
HETATM   11  H   UNK N   1      32.233  18.517   4.975  0.00  0.00     0.209 HD
ENDBRANCH   9  10
ENDBRANCH   5   9
BRANCH   3  12
HETATM   12  O   UNK N   1      34.638  17.405   6.248  0.00  0.00    -0.387 OA
HETATM   13  H   UNK N   1      35.220  16.874   5.682  0.00  0.00     0.210 HD
ENDBRANCH   3  12
BRANCH   1  14
HETATM   14  O   UNK N   1      35.226  19.088   8.389  0.00  0.00    -0.390 OA
HETATM   15  H   UNK N   1      36.030  18.838   7.908  0.00  0.00     0.210 HD
ENDBRANCH   1  14
BRANCH   2  16
HETATM   16  O   UNK N   1      34.856  17.171  10.474  0.00  0.00    -0.388 OA
HETATM   17  H   UNK N   1      34.833  16.527  11.200  0.00  0.00     0.210 HD
ENDBRANCH   2  16
TORSDOF 5
ENDMDL
MODEL 3
REMARK VINA RESULT:      -4.9      1.829      4.083
REMARK  5 active torsions:
REMARK  status: ('A' for Active; 'I' for Inactive)
REMARK    1  A    between atoms: C_6  and  C_1 
REMARK    2  A    between atoms: O_9  and  C_1 
REMARK    3  A    between atoms: C_2  and  O_10 
REMARK    4  A    between atoms: C_3  and  O_11 
REMARK    5  A    between atoms: C_4  and  O_12 
ROOT
HETATM    1  C   UNK N   1      35.042  16.390  10.145  0.00  0.00     0.186 C 
HETATM    2  C   UNK N   1      34.226  17.136   9.082  0.00  0.00     0.209 C 
HETATM    3  C   UNK N   1      34.439  14.994  10.371  0.00  0.00     0.219 C 
HETATM    4  C   UNK N   1      34.133  16.272   7.816  0.00  0.00     0.342 C 
HETATM    5  C   UNK N   1      34.344  14.267   9.007  0.00  0.00     0.257 C 
HETATM    6  F   UNK N   1      33.348  16.922   6.881  0.00  0.00    -0.217 F 
HETATM    7  F   UNK N   1      35.612  14.071   8.470  0.00  0.00    -0.206 F 
HETATM    8  O   UNK N   1      33.538  15.015   8.108  0.00  0.00    -0.309 OA
ENDROOT
BRANCH   5   9
HETATM    9  C   UNK N   1      33.707  12.888   9.168  0.00  0.00     0.240 C 
BRANCH   9  10
HETATM   10  O   UNK N   1      32.314  12.981   9.171  0.00  0.00    -0.395 OA
HETATM   11  H   UNK N   1      31.747  13.739   9.382  0.00  0.00     0.209 HD
ENDBRANCH   9  10
ENDBRANCH   5   9
BRANCH   3  12
HETATM   12  O   UNK N   1      33.162  15.114  10.935  0.00  0.00    -0.387 OA
HETATM   13  H   UNK N   1      32.240  15.322  11.155  0.00  0.00     0.210 HD
ENDBRANCH   3  12
BRANCH   1  14
HETATM   14  O   UNK N   1      35.061  17.111  11.342  0.00  0.00    -0.390 OA
HETATM   15  H   UNK N   1      35.702  17.824  11.487  0.00  0.00     0.210 HD
ENDBRANCH   1  14
BRANCH   2  16
HETATM   16  O   UNK N   1      34.834  18.359   8.782  0.00  0.00    -0.388 OA
HETATM   17  H   UNK N   1      35.268  18.949   9.418  0.00  0.00     0.210 HD
ENDBRANCH   2  16
TORSDOF 5
ENDMDL
MODEL 4
REMARK VINA RESULT:      -4.9     11.103     12.680
REMARK  5 active torsions:
REMARK  status: ('A' for Active; 'I' for Inactive)
REMARK    1  A    between atoms: C_6  and  C_1 
REMARK    2  A    between atoms: O_9  and  C_1 
REMARK    3  A    between atoms: C_2  and  O_10 
REMARK    4  A    between atoms: C_3  and  O_11 
REMARK    5  A    between atoms: C_4  and  O_12 
ROOT
HETATM    1  C   UNK N   1      21.385  13.384   9.556  0.00  0.00     0.186 C 
HETATM    2  C   UNK N   1      21.413  12.408   8.373  0.00  0.00     0.209 C 
HETATM    3  C   UNK N   1      22.248  12.831  10.701  0.00  0.00     0.219 C 
HETATM    4  C   UNK N   1      22.873  12.122   7.988  0.00  0.00     0.342 C 
HETATM    5  C   UNK N   1      23.665  12.527  10.154  0.00  0.00     0.257 C 
HETATM    6  F   UNK N   1      22.896  11.197   6.960  0.00  0.00    -0.217 F 
HETATM    7  F   UNK N   1      24.281  13.696   9.720  0.00  0.00    -0.206 F 
HETATM    8  O   UNK N   1      23.588  11.586   9.092  0.00  0.00    -0.309 OA
ENDROOT
BRANCH   5   9
HETATM    9  C   UNK N   1      24.553  11.929  11.243  0.00  0.00     0.240 C 
BRANCH   9  10
HETATM   10  O   UNK N   1      24.141  12.351  12.508  0.00  0.00    -0.395 OA
HETATM   11  H   UNK N   1      23.281  12.699  12.793  0.00  0.00     0.209 HD
ENDBRANCH   9  10
ENDBRANCH   5   9
BRANCH   3  12
HETATM   12  O   UNK N   1      21.672  11.658  11.206  0.00  0.00    -0.387 OA
HETATM   13  H   UNK N   1      21.088  10.947  11.514  0.00  0.00     0.210 HD
ENDBRANCH   3  12
BRANCH   1  14
HETATM   14  O   UNK N   1      20.073  13.588   9.990  0.00  0.00    -0.390 OA
HETATM   15  H   UNK N   1      19.323  13.186   9.525  0.00  0.00     0.210 HD
ENDBRANCH   1  14
BRANCH   2  16
HETATM   16  O   UNK N   1      20.730  12.956   7.283  0.00  0.00    -0.388 OA
HETATM   17  H   UNK N   1      20.934  12.799   6.348  0.00  0.00     0.210 HD
ENDBRANCH   2  16
TORSDOF 5
ENDMDL
MODEL 5
REMARK VINA RESULT:      -4.8     11.722     13.405
REMARK  5 active torsions:
REMARK  status: ('A' for Active; 'I' for Inactive)
REMARK    1  A    between atoms: C_6  and  C_1 
REMARK    2  A    between atoms: O_9  and  C_1 
REMARK    3  A    between atoms: C_2  and  O_10 
REMARK    4  A    between atoms: C_3  and  O_11 
REMARK    5  A    between atoms: C_4  and  O_12 
ROOT
HETATM    1  C   UNK N   1      42.879  23.443   1.363  0.00  0.00     0.186 C 
HETATM    2  C   UNK N   1      41.488  22.994   1.827  0.00  0.00     0.209 C 
HETATM    3  C   UNK N   1      43.898  23.213   2.491  0.00  0.00     0.219 C 
HETATM    4  C   UNK N   1      41.565  21.544   2.329  0.00  0.00     0.342 C 
HETATM    5  C   UNK N   1      43.818  21.733   2.940  0.00  0.00     0.257 C 
HETATM    6  F   UNK N   1      40.322  21.163   2.801  0.00  0.00    -0.217 F 
HETATM    7  F   UNK N   1      44.180  20.887   1.897  0.00  0.00    -0.206 F 
HETATM    8  O   UNK N   1      42.505  21.428   3.388  0.00  0.00    -0.309 OA
ENDROOT
BRANCH   5   9
HETATM    9  C   UNK N   1      44.779  21.460   4.094  0.00  0.00     0.240 C 
BRANCH   9  10
HETATM   10  O   UNK N   1      45.808  22.404   4.118  0.00  0.00    -0.395 OA
HETATM   11  H   UNK N   1      46.380  22.710   3.398  0.00  0.00     0.209 HD
ENDBRANCH   9  10
ENDBRANCH   5   9
BRANCH   3  12
HETATM   12  O   UNK N   1      43.606  24.054   3.573  0.00  0.00    -0.387 OA
HETATM   13  H   UNK N   1      43.608  24.596   4.377  0.00  0.00     0.210 HD
ENDBRANCH   3  12
BRANCH   1  14
HETATM   14  O   UNK N   1      42.860  24.790   0.991  0.00  0.00    -0.390 OA
HETATM   15  H   UNK N   1      42.211  25.124   0.353  0.00  0.00     0.210 HD
ENDBRANCH   1  14
BRANCH   2  16
HETATM   16  O   UNK N   1      40.577  23.087   0.771  0.00  0.00    -0.388 OA
HETATM   17  H   UNK N   1      40.629  22.603  -0.069  0.00  0.00     0.210 HD
ENDBRANCH   2  16
TORSDOF 5
ENDMDL
MODEL 6
REMARK VINA RESULT:      -4.7     11.238     12.863
REMARK  5 active torsions:
REMARK  status: ('A' for Active; 'I' for Inactive)
REMARK    1  A    between atoms: C_6  and  C_1 
REMARK    2  A    between atoms: O_9  and  C_1 
REMARK    3  A    between atoms: C_2  and  O_10 
REMARK    4  A    between atoms: C_3  and  O_11 
REMARK    5  A    between atoms: C_4  and  O_12 
ROOT
HETATM    1  C   UNK N   1      43.480  22.713   3.767  0.00  0.00     0.186 C 
HETATM    2  C   UNK N   1      44.783  22.004   3.374  0.00  0.00     0.209 C 
HETATM    3  C   UNK N   1      42.360  22.307   2.797  0.00  0.00     0.219 C 
HETATM    4  C   UNK N   1      44.530  20.491   3.292  0.00  0.00     0.342 C 
HETATM    5  C   UNK N   1      42.264  20.761   2.767  0.00  0.00     0.257 C 
HETATM    6  F   UNK N   1      45.690  19.861   2.882  0.00  0.00    -0.217 F 
HETATM    7  F   UNK N   1      41.906  20.271   4.018  0.00  0.00    -0.206 F 
HETATM    8  O   UNK N   1      43.503  20.202   2.354  0.00  0.00    -0.309 OA
ENDROOT
BRANCH   5   9
HETATM    9  C   UNK N   1      41.193  20.300   1.781  0.00  0.00     0.240 C 
BRANCH   9  10
HETATM   10  O   UNK N   1      40.111  21.182   1.773  0.00  0.00    -0.395 OA
HETATM   11  H   UNK N   1      39.277  21.137   2.266  0.00  0.00     0.209 HD
ENDBRANCH   9  10
ENDBRANCH   5   9
BRANCH   3  12
HETATM   12  O   UNK N   1      42.643  22.790   1.513  0.00  0.00    -0.387 OA
HETATM   13  H   UNK N   1      42.833  22.917   0.570  0.00  0.00     0.210 HD
ENDBRANCH   3  12
BRANCH   1  14
HETATM   14  O   UNK N   1      43.656  24.099   3.754  0.00  0.00    -0.390 OA
HETATM   15  H   UNK N   1      43.684  24.609   4.579  0.00  0.00     0.210 HD
ENDBRANCH   1  14
BRANCH   2  16
HETATM   16  O   UNK N   1      45.778  22.272   4.318  0.00  0.00    -0.388 OA
HETATM   17  H   UNK N   1      46.598  21.768   4.438  0.00  0.00     0.210 HD
ENDBRANCH   2  16
TORSDOF 5
ENDMDL
MODEL 7
REMARK VINA RESULT:      -4.7      2.793      3.867
REMARK  5 active torsions:
REMARK  status: ('A' for Active; 'I' for Inactive)
REMARK    1  A    between atoms: C_6  and  C_1 
REMARK    2  A    between atoms: O_9  and  C_1 
REMARK    3  A    between atoms: C_2  and  O_10 
REMARK    4  A    between atoms: C_3  and  O_11 
REMARK    5  A    between atoms: C_4  and  O_12 
ROOT
HETATM    1  C   UNK N   1      35.200  12.586  12.345  0.00  0.00     0.186 C 
HETATM    2  C   UNK N   1      35.381  13.155  13.757  0.00  0.00     0.209 C 
HETATM    3  C   UNK N   1      34.965  13.736  11.352  0.00  0.00     0.219 C 
HETATM    4  C   UNK N   1      36.493  14.215  13.737  0.00  0.00     0.342 C 
HETATM    5  C   UNK N   1      36.122  14.756  11.489  0.00  0.00     0.257 C 
HETATM    6  F   UNK N   1      36.614  14.767  14.999  0.00  0.00    -0.217 F 
HETATM    7  F   UNK N   1      37.333  14.169  11.139  0.00  0.00    -0.206 F 
HETATM    8  O   UNK N   1      36.181  15.253  12.819  0.00  0.00    -0.309 OA
ENDROOT
BRANCH   5   9
HETATM    9  C   UNK N   1      35.913  15.946  10.556  0.00  0.00     0.240 C 
BRANCH   9  10
HETATM   10  O   UNK N   1      35.031  16.871  11.117  0.00  0.00    -0.395 OA
HETATM   11  H   UNK N   1      35.021  17.248  12.010  0.00  0.00     0.209 HD
ENDBRANCH   9  10
ENDBRANCH   5   9
BRANCH   3  12
HETATM   12  O   UNK N   1      33.744  14.363  11.633  0.00  0.00    -0.387 OA
HETATM   13  H   UNK N   1      33.022  14.967  11.867  0.00  0.00     0.210 HD
ENDBRANCH   3  12
BRANCH   1  14
HETATM   14  O   UNK N   1      34.130  11.689  12.313  0.00  0.00    -0.390 OA
HETATM   15  H   UNK N   1      33.510  11.620  13.056  0.00  0.00     0.210 HD
ENDBRANCH   1  14
BRANCH   2  16
HETATM   16  O   UNK N   1      35.715  12.130  14.648  0.00  0.00    -0.388 OA
HETATM   17  H   UNK N   1      35.768  11.186  14.433  0.00  0.00     0.210 HD
ENDBRANCH   2  16
TORSDOF 5
ENDMDL
MODEL 8
REMARK VINA RESULT:      -4.7     13.547     14.959
REMARK  5 active torsions:
REMARK  status: ('A' for Active; 'I' for Inactive)
REMARK    1  A    between atoms: C_6  and  C_1 
REMARK    2  A    between atoms: O_9  and  C_1 
REMARK    3  A    between atoms: C_2  and  O_10 
REMARK    4  A    between atoms: C_3  and  O_11 
REMARK    5  A    between atoms: C_4  and  O_12 
ROOT
HETATM    1  C   UNK N   1      19.771  17.323   3.764  0.00  0.00     0.186 C 
HETATM    2  C   UNK N   1      19.692  18.416   2.691  0.00  0.00     0.209 C 
HETATM    3  C   UNK N   1      21.234  17.124   4.190  0.00  0.00     0.219 C 
HETATM    4  C   UNK N   1      20.381  19.687   3.212  0.00  0.00     0.342 C 
HETATM    5  C   UNK N   1      21.816  18.492   4.624  0.00  0.00     0.257 C 
HETATM    6  F   UNK N   1      20.360  20.651   2.221  0.00  0.00    -0.217 F 
HETATM    7  F   UNK N   1      21.139  18.978   5.738  0.00  0.00    -0.206 F 
HETATM    8  O   UNK N   1      21.734  19.421   3.553  0.00  0.00    -0.309 OA
ENDROOT
BRANCH   5   9
HETATM    9  C   UNK N   1      23.286  18.359   5.015  0.00  0.00     0.240 C 
BRANCH   9  10
HETATM   10  O   UNK N   1      23.503  17.190   5.746  0.00  0.00    -0.395 OA
HETATM   11  H   UNK N   1      23.816  17.082   6.658  0.00  0.00     0.209 HD
ENDBRANCH   9  10
ENDBRANCH   5   9
BRANCH   3  12
HETATM   12  O   UNK N   1      21.975  16.611   3.118  0.00  0.00    -0.387 OA
HETATM   13  H   UNK N   1      22.459  16.452   2.292  0.00  0.00     0.210 HD
ENDBRANCH   3  12
BRANCH   1  14
HETATM   14  O   UNK N   1      19.237  16.125   3.280  0.00  0.00    -0.390 OA
HETATM   15  H   UNK N   1      19.552  15.268   3.605  0.00  0.00     0.210 HD
ENDBRANCH   1  14
BRANCH   2  16
HETATM   16  O   UNK N   1      18.356  18.690   2.382  0.00  0.00    -0.388 OA
HETATM   17  H   UNK N   1      17.656  18.031   2.252  0.00  0.00     0.210 HD
ENDBRANCH   2  16
TORSDOF 5
ENDMDL
MODEL 9
REMARK VINA RESULT:      -4.6     14.323     15.452
REMARK  5 active torsions:
REMARK  status: ('A' for Active; 'I' for Inactive)
REMARK    1  A    between atoms: C_6  and  C_1 
REMARK    2  A    between atoms: O_9  and  C_1 
REMARK    3  A    between atoms: C_2  and  O_10 
REMARK    4  A    between atoms: C_3  and  O_11 
REMARK    5  A    between atoms: C_4  and  O_12 
ROOT
HETATM    1  C   UNK N   1      21.070  18.400   4.271  0.00  0.00     0.186 C 
HETATM    2  C   UNK N   1      21.291  17.181   3.366  0.00  0.00     0.209 C 
HETATM    3  C   UNK N   1      21.276  19.688   3.460  0.00  0.00     0.219 C 
HETATM    4  C   UNK N   1      20.391  17.302   2.127  0.00  0.00     0.342 C 
HETATM    5  C   UNK N   1      20.358  19.642   2.212  0.00  0.00     0.257 C 
HETATM    6  F   UNK N   1      20.634  16.232   1.285  0.00  0.00    -0.217 F 
HETATM    7  F   UNK N   1      19.021  19.618   2.592  0.00  0.00    -0.206 F 
HETATM    8  O   UNK N   1      20.667  18.503   1.420  0.00  0.00    -0.309 OA
ENDROOT
BRANCH   5   9
HETATM    9  C   UNK N   1      20.557  20.882   1.343  0.00  0.00     0.240 C 
BRANCH   9  10
HETATM   10  O   UNK N   1      20.631  20.537  -0.007  0.00  0.00    -0.395 OA
HETATM   11  H   UNK N   1      20.594  19.662  -0.423  0.00  0.00     0.209 HD
ENDBRANCH   9  10
ENDBRANCH   5   9
BRANCH   3  12
HETATM   12  O   UNK N   1      22.614  19.791   3.061  0.00  0.00    -0.387 OA
HETATM   13  H   UNK N   1      23.502  19.675   2.686  0.00  0.00     0.210 HD
ENDBRANCH   3  12
BRANCH   1  14
HETATM   14  O   UNK N   1      21.947  18.364   5.359  0.00  0.00    -0.390 OA
HETATM   15  H   UNK N   1      22.300  17.525   5.692  0.00  0.00     0.210 HD
ENDBRANCH   1  14
BRANCH   2  16
HETATM   16  O   UNK N   1      20.991  16.006   4.062  0.00  0.00    -0.388 OA
HETATM   17  H   UNK N   1      21.594  15.260   4.204  0.00  0.00     0.210 HD
ENDBRANCH   2  16
TORSDOF 5
ENDMDL
