MODEL 1
REMARK VINA RESULT:      -5.8      0.000      0.000
REMARK  16 active torsions:
REMARK  status: ('A' for Active; 'I' for Inactive)
REMARK    1  A    between atoms: C_2  and  C_1 
REMARK    2  A    between atoms: C_5  and  C_1 
REMARK    3  A    between atoms: C_7  and  C_2 
REMARK    4  A    between atoms: C_8  and  C_3 
REMARK    5  A    between atoms: N_12  and  C_3 
REMARK    6  A    between atoms: C_6  and  C_4 
REMARK    7  A    between atoms: S_25  and  C_4 
REMARK    8  A    between atoms: C_10  and  C_5 
REMARK    9  A    between atoms: C_5  and  N_11 
REMARK   10  A    between atoms: C_9  and  C_6 
REMARK   11  A    between atoms: C_6  and  N_14 
REMARK   12  A    between atoms: C_7  and  O_16 
REMARK   13  A    between atoms: O_18  and  C_8 
REMARK   14  A    between atoms: O_19  and  C_9 
REMARK   15  A    between atoms: O_21  and  C_10 
REMARK   16  A    between atoms: S_25  and  O_22 
ROOT
HETATM    1  C   UNK N   1      33.312  17.415   7.652  0.00  0.00     0.173 C 
ENDROOT
BRANCH   1   2
HETATM    2  C   UNK N   1      33.575  17.484   6.131  0.00  0.00     0.189 C 
BRANCH   2   3
HETATM    3  S   UNK N   1      33.231  15.937   5.223  0.00  0.00     0.096 S 
HETATM    4  O   UNK N   1      34.750  16.026   5.430  0.00  0.00    -0.601 OA
HETATM    5  O   UNK N   1      33.647  15.848   3.747  0.00  0.00    -0.601 OA
BRANCH   3   6
HETATM    6  O   UNK N   1      32.778  17.450   4.547  0.00  0.00    -0.296 OA
HETATM    7  H   UNK N   1      32.895  18.382   4.788  0.00  0.00     0.232 HD
ENDBRANCH   3   6
ENDBRANCH   2   3
ENDBRANCH   1   2
BRANCH   1   8
HETATM    8  C   UNK N   1      34.496  17.835   8.512  0.00  0.00     0.136 C 
HETATM    9  N   UNK N   1      35.106  16.994   9.277  0.00  0.00    -0.363 N 
ATOM     10  HN  UNK N   1      35.906  17.322   9.819  1.00  0.00     0.161 HD
BRANCH   9  11
HETATM   11  C   UNK N   1      34.709  15.607   9.403  0.00  0.00     0.231 C 
BRANCH  11  12
HETATM   12  C   UNK N   1      34.351  15.255  10.814  0.00  0.00     0.158 C 
HETATM   13  O   UNK N   1      35.210  15.169  11.677  0.00  0.00    -0.649 OA
BRANCH  12  14
HETATM   14  O   UNK N   1      33.062  15.026  11.130  0.00  0.00    -0.775 OA
HETATM   15  H   UNK N   1      32.454  14.721  10.486  0.00  0.00     0.167 HD
ENDBRANCH  12  14
ENDBRANCH  11  12
ENDBRANCH   9  11
BRANCH   8  16
HETATM   16  O   UNK N   1      34.943  19.107   8.467  0.00  0.00    -0.348 OA
HETATM   17  H   UNK N   1      34.386  19.857   8.549  0.00  0.00     0.219 HD
ENDBRANCH   8  16
ENDBRANCH   1   8
BRANCH   1  18
HETATM   18  N   UNK N   1      32.143  18.189   8.037  0.00  0.00    -0.361 N 
HETATM   19  C   UNK N   1      31.233  17.743   8.833  0.00  0.00     0.111 C 
ATOM     20  HN  UNK N   1      32.039  19.131   7.660  1.00  0.00     0.162 HD
BRANCH  19  21
HETATM   21  C   UNK N   1      30.112  18.653   9.241  0.00  0.00     0.086 C 
BRANCH  21  22
HETATM   22  C   UNK N   1      28.802  18.172   8.641  0.00  0.00     0.043 C 
BRANCH  22  23
HETATM   23  C   UNK N   1      28.588  18.677   7.227  0.00  0.00     0.173 C 
BRANCH  23  24
HETATM   24  C   UNK N   1      28.928  17.556   6.286  0.00  0.00     0.163 C 
HETATM   25  O   UNK N   1      29.983  17.549   5.672  0.00  0.00    -0.648 OA
BRANCH  24  26
HETATM   26  O   UNK N   1      28.053  16.546   6.114  0.00  0.00    -0.775 OA
HETATM   27  H   UNK N   1      27.303  16.601   5.555  0.00  0.00     0.167 HD
ENDBRANCH  24  26
ENDBRANCH  23  24
BRANCH  23  28
HETATM   28  N   UNK N   1      27.210  19.116   7.055  0.00  0.00    -0.418 N 
HETATM   29  H   UNK N   1      26.754  19.744   7.717  0.00  0.00     0.150 HD
HETATM   30  H   UNK N   1      26.685  18.785   6.246  0.00  0.00     0.150 HD
ENDBRANCH  23  28
ENDBRANCH  22  23
ENDBRANCH  21  22
ENDBRANCH  19  21
BRANCH  19  31
HETATM   31  O   UNK N   1      31.307  16.487   9.327  0.00  0.00    -0.350 OA
HETATM   32  H   UNK N   1      30.929  15.643   9.476  0.00  0.00     0.219 HD
ENDBRANCH  19  31
ENDBRANCH   1  18
TORSDOF 16
ENDMDL
MODEL 2
REMARK VINA RESULT:      -5.6      6.866      9.500
REMARK  16 active torsions:
REMARK  status: ('A' for Active; 'I' for Inactive)
REMARK    1  A    between atoms: C_2  and  C_1 
REMARK    2  A    between atoms: C_5  and  C_1 
REMARK    3  A    between atoms: C_7  and  C_2 
REMARK    4  A    between atoms: C_8  and  C_3 
REMARK    5  A    between atoms: N_12  and  C_3 
REMARK    6  A    between atoms: C_6  and  C_4 
REMARK    7  A    between atoms: S_25  and  C_4 
REMARK    8  A    between atoms: C_10  and  C_5 
REMARK    9  A    between atoms: C_5  and  N_11 
REMARK   10  A    between atoms: C_9  and  C_6 
REMARK   11  A    between atoms: C_6  and  N_14 
REMARK   12  A    between atoms: C_7  and  O_16 
REMARK   13  A    between atoms: O_18  and  C_8 
REMARK   14  A    between atoms: O_19  and  C_9 
REMARK   15  A    between atoms: O_21  and  C_10 
REMARK   16  A    between atoms: S_25  and  O_22 
ROOT
HETATM    1  C   UNK N   1      25.036  18.828   3.823  0.00  0.00     0.173 C 
ENDROOT
BRANCH   1   2
HETATM    2  C   UNK N   1      25.556  17.523   3.180  0.00  0.00     0.189 C 
BRANCH   2   3
HETATM    3  S   UNK N   1      26.372  16.370   4.338  0.00  0.00     0.096 S 
HETATM    4  O   UNK N   1      27.349  16.638   3.183  0.00  0.00    -0.601 OA
HETATM    5  O   UNK N   1      26.575  14.913   3.896  0.00  0.00    -0.601 OA
BRANCH   3   6
HETATM    6  O   UNK N   1      24.892  15.928   3.585  0.00  0.00    -0.296 OA
HETATM    7  H   UNK N   1      24.539  15.130   3.162  0.00  0.00     0.232 HD
ENDBRANCH   3   6
ENDBRANCH   2   3
ENDBRANCH   1   2
BRANCH   1   8
HETATM    8  C   UNK N   1      25.595  20.099   3.199  0.00  0.00     0.136 C 
HETATM    9  N   UNK N   1      26.749  20.567   3.538  0.00  0.00    -0.363 N 
ATOM     10  HN  UNK N   1      27.087  21.411   3.076  1.00  0.00     0.161 HD
BRANCH   9  11
HETATM   11  C   UNK N   1      27.588  19.948   4.545  0.00  0.00     0.231 C 
BRANCH  11  12
HETATM   12  C   UNK N   1      27.437  20.610   5.880  0.00  0.00     0.158 C 
HETATM   13  O   UNK N   1      27.675  20.003   6.912  0.00  0.00    -0.649 OA
BRANCH  12  14
HETATM   14  O   UNK N   1      27.027  21.891   5.938  0.00  0.00    -0.775 OA
HETATM   15  H   UNK N   1      27.605  22.570   6.225  0.00  0.00     0.167 HD
ENDBRANCH  12  14
ENDBRANCH  11  12
ENDBRANCH   9  11
BRANCH   8  16
HETATM   16  O   UNK N   1      24.890  20.751   2.252  0.00  0.00    -0.348 OA
HETATM   17  H   UNK N   1      24.021  20.511   1.992  0.00  0.00     0.219 HD
ENDBRANCH   8  16
ENDBRANCH   1   8
BRANCH   1  18
HETATM   18  N   UNK N   1      23.584  18.895   3.823  0.00  0.00    -0.361 N 
HETATM   19  C   UNK N   1      22.855  18.393   4.759  0.00  0.00     0.111 C 
ATOM     20  HN  UNK N   1      23.120  19.361   3.043  1.00  0.00     0.162 HD
BRANCH  19  21
HETATM   21  C   UNK N   1      21.369  18.594   4.712  0.00  0.00     0.086 C 
BRANCH  21  22
HETATM   22  C   UNK N   1      20.837  18.250   3.331  0.00  0.00     0.043 C 
BRANCH  22  23
HETATM   23  C   UNK N   1      20.052  19.389   2.708  0.00  0.00     0.173 C 
BRANCH  23  24
HETATM   24  C   UNK N   1      20.880  19.955   1.589  0.00  0.00     0.163 C 
HETATM   25  O   UNK N   1      21.875  20.624   1.820  0.00  0.00    -0.648 OA
BRANCH  24  26
HETATM   26  O   UNK N   1      20.516  19.724   0.313  0.00  0.00    -0.775 OA
HETATM   27  H   UNK N   1      20.122  18.924   0.024  0.00  0.00     0.167 HD
ENDBRANCH  24  26
ENDBRANCH  23  24
BRANCH  23  28
HETATM   28  N   UNK N   1      18.766  18.905   2.226  0.00  0.00    -0.418 N 
HETATM   29  H   UNK N   1      18.685  18.307   1.403  0.00  0.00     0.150 HD
HETATM   30  H   UNK N   1      17.920  19.173   2.726  0.00  0.00     0.150 HD
ENDBRANCH  23  28
ENDBRANCH  22  23
ENDBRANCH  21  22
ENDBRANCH  19  21
BRANCH  19  31
HETATM   31  O   UNK N   1      23.422  17.732   5.792  0.00  0.00    -0.350 OA
HETATM   32  H   UNK N   1      23.988  17.061   6.124  0.00  0.00     0.219 HD
ENDBRANCH  19  31
ENDBRANCH   1  18
TORSDOF 16
ENDMDL
MODEL 3
REMARK VINA RESULT:      -5.6      5.369      8.467
REMARK  16 active torsions:
REMARK  status: ('A' for Active; 'I' for Inactive)
REMARK    1  A    between atoms: C_2  and  C_1 
REMARK    2  A    between atoms: C_5  and  C_1 
REMARK    3  A    between atoms: C_7  and  C_2 
REMARK    4  A    between atoms: C_8  and  C_3 
REMARK    5  A    between atoms: N_12  and  C_3 
REMARK    6  A    between atoms: C_6  and  C_4 
REMARK    7  A    between atoms: S_25  and  C_4 
REMARK    8  A    between atoms: C_10  and  C_5 
REMARK    9  A    between atoms: C_5  and  N_11 
REMARK   10  A    between atoms: C_9  and  C_6 
REMARK   11  A    between atoms: C_6  and  N_14 
REMARK   12  A    between atoms: C_7  and  O_16 
REMARK   13  A    between atoms: O_18  and  C_8 
REMARK   14  A    between atoms: O_19  and  C_9 
REMARK   15  A    between atoms: O_21  and  C_10 
REMARK   16  A    between atoms: S_25  and  O_22 
ROOT
HETATM    1  C   UNK N   1      36.525  13.318  14.401  0.00  0.00     0.173 C 
ENDROOT
BRANCH   1   2
HETATM    2  C   UNK N   1      37.359  12.017  14.393  0.00  0.00     0.189 C 
BRANCH   2   3
HETATM    3  S   UNK N   1      36.400  10.494  14.081  0.00  0.00     0.096 S 
HETATM    4  O   UNK N   1      37.161  10.301  15.401  0.00  0.00    -0.601 OA
HETATM    5  O   UNK N   1      37.162   9.218  13.696  0.00  0.00    -0.601 OA
BRANCH   3   6
HETATM    6  O   UNK N   1      37.583  11.013  12.948  0.00  0.00    -0.296 OA
HETATM    7  H   UNK N   1      38.375  10.625  12.543  0.00  0.00     0.232 HD
ENDBRANCH   3   6
ENDBRANCH   2   3
ENDBRANCH   1   2
BRANCH   1   8
HETATM    8  C   UNK N   1      36.740  14.192  15.629  0.00  0.00     0.136 C 
HETATM    9  N   UNK N   1      36.019  14.054  16.691  0.00  0.00    -0.363 N 
ATOM     10  HN  UNK N   1      36.217  14.652  17.493  1.00  0.00     0.161 HD
BRANCH   9  11
HETATM   11  C   UNK N   1      34.944  13.088  16.796  0.00  0.00     0.231 C 
BRANCH  11  12
HETATM   12  C   UNK N   1      35.188  12.101  17.895  0.00  0.00     0.158 C 
HETATM   13  O   UNK N   1      35.261  12.462  19.059  0.00  0.00    -0.649 OA
BRANCH  12  14
HETATM   14  O   UNK N   1      35.335  10.798  17.590  0.00  0.00    -0.775 OA
HETATM   15  H   UNK N   1      36.076  10.496  17.102  0.00  0.00     0.167 HD
ENDBRANCH  12  14
ENDBRANCH  11  12
ENDBRANCH   9  11
BRANCH   8  16
HETATM   16  O   UNK N   1      37.716  15.123  15.630  0.00  0.00    -0.348 OA
HETATM   17  H   UNK N   1      38.264  15.303  14.891  0.00  0.00     0.219 HD
ENDBRANCH   8  16
ENDBRANCH   1   8
BRANCH   1  18
HETATM   18  N   UNK N   1      36.745  14.113  13.204  0.00  0.00    -0.361 N 
HETATM   19  C   UNK N   1      35.826  14.343  12.331  0.00  0.00     0.111 C 
ATOM     20  HN  UNK N   1      37.673  14.508  13.049  1.00  0.00     0.162 HD
BRANCH  19  21
HETATM   21  C   UNK N   1      36.129  15.251  11.176  0.00  0.00     0.086 C 
BRANCH  21  22
HETATM   22  C   UNK N   1      35.415  14.764   9.926  0.00  0.00     0.043 C 
BRANCH  22  23
HETATM   23  C   UNK N   1      34.407  15.769   9.402  0.00  0.00     0.173 C 
BRANCH  23  24
HETATM   24  C   UNK N   1      33.036  15.189   9.605  0.00  0.00     0.163 C 
HETATM   25  O   UNK N   1      32.348  14.855   8.653  0.00  0.00    -0.648 OA
BRANCH  24  26
HETATM   26  O   UNK N   1      32.558  15.039  10.855  0.00  0.00    -0.775 OA
HETATM   27  H   UNK N   1      32.630  14.242  11.344  0.00  0.00     0.167 HD
ENDBRANCH  24  26
ENDBRANCH  23  24
BRANCH  23  28
HETATM   28  N   UNK N   1      34.556  17.038  10.100  0.00  0.00    -0.418 N 
HETATM   29  H   UNK N   1      34.480  17.935   9.620  0.00  0.00     0.150 HD
HETATM   30  H   UNK N   1      34.743  17.030  11.103  0.00  0.00     0.150 HD
ENDBRANCH  23  28
ENDBRANCH  22  23
ENDBRANCH  21  22
ENDBRANCH  19  21
BRANCH  19  31
HETATM   31  O   UNK N   1      34.594  13.807  12.474  0.00  0.00    -0.350 OA
HETATM   32  H   UNK N   1      33.926  13.206  12.206  0.00  0.00     0.219 HD
ENDBRANCH  19  31
ENDBRANCH   1  18
TORSDOF 16
ENDMDL
MODEL 4
REMARK VINA RESULT:      -5.5     10.434     12.933
REMARK  16 active torsions:
REMARK  status: ('A' for Active; 'I' for Inactive)
REMARK    1  A    between atoms: C_2  and  C_1 
REMARK    2  A    between atoms: C_5  and  C_1 
REMARK    3  A    between atoms: C_7  and  C_2 
REMARK    4  A    between atoms: C_8  and  C_3 
REMARK    5  A    between atoms: N_12  and  C_3 
REMARK    6  A    between atoms: C_6  and  C_4 
REMARK    7  A    between atoms: S_25  and  C_4 
REMARK    8  A    between atoms: C_10  and  C_5 
REMARK    9  A    between atoms: C_5  and  N_11 
REMARK   10  A    between atoms: C_9  and  C_6 
REMARK   11  A    between atoms: C_6  and  N_14 
REMARK   12  A    between atoms: C_7  and  O_16 
REMARK   13  A    between atoms: O_18  and  C_8 
REMARK   14  A    between atoms: O_19  and  C_9 
REMARK   15  A    between atoms: O_21  and  C_10 
REMARK   16  A    between atoms: S_25  and  O_22 
ROOT
HETATM    1  C   UNK N   1      21.077  16.333   5.976  0.00  0.00     0.173 C 
ENDROOT
BRANCH   1   2
HETATM    2  C   UNK N   1      19.641  15.780   6.120  0.00  0.00     0.189 C 
BRANCH   2   3
HETATM    3  S   UNK N   1      19.016  14.882   4.657  0.00  0.00     0.096 S 
HETATM    4  O   UNK N   1      17.875  15.765   5.183  0.00  0.00    -0.601 OA
HETATM    5  O   UNK N   1      17.977  13.772   4.871  0.00  0.00    -0.601 OA
BRANCH   3   6
HETATM    6  O   UNK N   1      19.580  14.009   6.025  0.00  0.00    -0.296 OA
HETATM    7  H   UNK N   1      19.282  13.233   6.525  0.00  0.00     0.232 HD
ENDBRANCH   3   6
ENDBRANCH   2   3
ENDBRANCH   1   2
BRANCH   1   8
HETATM    8  C   UNK N   1      21.180  17.847   6.098  0.00  0.00     0.136 C 
HETATM    9  N   UNK N   1      21.213  18.607   5.056  0.00  0.00    -0.363 N 
ATOM     10  HN  UNK N   1      21.262  19.617   5.192  1.00  0.00     0.161 HD
BRANCH   9  11
HETATM   11  C   UNK N   1      21.182  18.094   3.701  0.00  0.00     0.231 C 
BRANCH  11  12
HETATM   12  C   UNK N   1      19.980  18.577   2.950  0.00  0.00     0.158 C 
HETATM   13  O   UNK N   1      20.021  19.605   2.292  0.00  0.00    -0.649 OA
BRANCH  12  14
HETATM   14  O   UNK N   1      18.837  17.868   3.007  0.00  0.00    -0.775 OA
HETATM   15  H   UNK N   1      18.682  17.257   3.701  0.00  0.00     0.167 HD
ENDBRANCH  12  14
ENDBRANCH  11  12
ENDBRANCH   9  11
BRANCH   8  16
HETATM   16  O   UNK N   1      21.216  18.424   7.317  0.00  0.00    -0.348 OA
HETATM   17  H   UNK N   1      20.725  18.115   8.053  0.00  0.00     0.219 HD
ENDBRANCH   8  16
ENDBRANCH   1   8
BRANCH   1  18
HETATM   18  N   UNK N   1      21.996  15.714   6.919  0.00  0.00    -0.361 N 
HETATM   19  C   UNK N   1      22.696  14.671   6.638  0.00  0.00     0.111 C 
ATOM     20  HN  UNK N   1      22.089  16.128   7.846  1.00  0.00     0.162 HD
BRANCH  19  21
HETATM   21  C   UNK N   1      23.682  14.162   7.648  0.00  0.00     0.086 C 
BRANCH  21  22
HETATM   22  C   UNK N   1      23.069  13.031   8.456  0.00  0.00     0.043 C 
BRANCH  22  23
HETATM   23  C   UNK N   1      22.565  13.489   9.812  0.00  0.00     0.173 C 
BRANCH  23  24
HETATM   24  C   UNK N   1      21.081  13.255   9.849  0.00  0.00     0.163 C 
HETATM   25  O   UNK N   1      20.553  12.722  10.813  0.00  0.00    -0.648 OA
BRANCH  24  26
HETATM   26  O   UNK N   1      20.323  13.635   8.802  0.00  0.00    -0.775 OA
HETATM   27  H   UNK N   1      19.454  13.974   8.890  0.00  0.00     0.167 HD
ENDBRANCH  24  26
ENDBRANCH  23  24
BRANCH  23  28
HETATM   28  N   UNK N   1      23.246  12.758  10.872  0.00  0.00    -0.418 N 
HETATM   29  H   UNK N   1      23.518  11.780  10.769  0.00  0.00     0.150 HD
HETATM   30  H   UNK N   1      23.457  13.240  11.745  0.00  0.00     0.150 HD
ENDBRANCH  23  28
ENDBRANCH  22  23
ENDBRANCH  21  22
ENDBRANCH  19  21
BRANCH  19  31
HETATM   31  O   UNK N   1      22.576  14.065   5.436  0.00  0.00    -0.350 OA
HETATM   32  H   UNK N   1      22.448  13.295   4.916  0.00  0.00     0.219 HD
ENDBRANCH  19  31
ENDBRANCH   1  18
TORSDOF 16
ENDMDL
MODEL 5
REMARK VINA RESULT:      -5.5     10.732     13.077
REMARK  16 active torsions:
REMARK  status: ('A' for Active; 'I' for Inactive)
REMARK    1  A    between atoms: C_2  and  C_1 
REMARK    2  A    between atoms: C_5  and  C_1 
REMARK    3  A    between atoms: C_7  and  C_2 
REMARK    4  A    between atoms: C_8  and  C_3 
REMARK    5  A    between atoms: N_12  and  C_3 
REMARK    6  A    between atoms: C_6  and  C_4 
REMARK    7  A    between atoms: S_25  and  C_4 
REMARK    8  A    between atoms: C_10  and  C_5 
REMARK    9  A    between atoms: C_5  and  N_11 
REMARK   10  A    between atoms: C_9  and  C_6 
REMARK   11  A    between atoms: C_6  and  N_14 
REMARK   12  A    between atoms: C_7  and  O_16 
REMARK   13  A    between atoms: O_18  and  C_8 
REMARK   14  A    between atoms: O_19  and  C_9 
REMARK   15  A    between atoms: O_21  and  C_10 
REMARK   16  A    between atoms: S_25  and  O_22 
ROOT
HETATM    1  C   UNK N   1      21.476  18.308   4.549  0.00  0.00     0.173 C 
ENDROOT
BRANCH   1   2
HETATM    2  C   UNK N   1      21.819  18.025   6.029  0.00  0.00     0.189 C 
BRANCH   2   3
HETATM    3  S   UNK N   1      20.416  17.442   7.042  0.00  0.00     0.096 S 
HETATM    4  O   UNK N   1      20.812  18.835   7.555  0.00  0.00    -0.601 OA
HETATM    5  O   UNK N   1      20.681  17.057   8.505  0.00  0.00    -0.601 OA
BRANCH   3   6
HETATM    6  O   UNK N   1      21.879  16.543   7.001  0.00  0.00    -0.296 OA
HETATM    7  H   UNK N   1      22.753  16.657   6.597  0.00  0.00     0.232 HD
ENDBRANCH   3   6
ENDBRANCH   2   3
ENDBRANCH   1   2
BRANCH   1   8
HETATM    8  C   UNK N   1      22.525  19.128   3.810  0.00  0.00     0.136 C 
HETATM    9  N   UNK N   1      22.195  19.997   2.914  0.00  0.00    -0.363 N 
ATOM     10  HN  UNK N   1      22.935  20.534   2.462  1.00  0.00     0.161 HD
BRANCH   9  11
HETATM   11  C   UNK N   1      20.822  20.246   2.523  0.00  0.00     0.231 C 
BRANCH  11  12
HETATM   12  C   UNK N   1      20.730  20.789   1.130  0.00  0.00     0.158 C 
HETATM   13  O   UNK N   1      20.723  21.993   0.925  0.00  0.00    -0.649 OA
BRANCH  12  14
HETATM   14  O   UNK N   1      20.648  19.934   0.093  0.00  0.00    -0.775 OA
HETATM   15  H   UNK N   1      20.233  20.186  -0.708  0.00  0.00     0.167 HD
ENDBRANCH  12  14
ENDBRANCH  11  12
ENDBRANCH   9  11
BRANCH   8  16
HETATM   16  O   UNK N   1      23.832  18.970   4.101  0.00  0.00    -0.348 OA
HETATM   17  H   UNK N   1      24.276  19.443   4.778  0.00  0.00     0.219 HD
ENDBRANCH   8  16
ENDBRANCH   1   8
BRANCH   1  18
HETATM   18  N   UNK N   1      21.216  17.085   3.807  0.00  0.00    -0.361 N 
HETATM   19  C   UNK N   1      22.067  16.123   3.715  0.00  0.00     0.111 C 
ATOM     20  HN  UNK N   1      20.316  16.985   3.338  1.00  0.00     0.162 HD
BRANCH  19  21
HETATM   21  C   UNK N   1      21.669  14.864   3.003  0.00  0.00     0.086 C 
BRANCH  21  22
HETATM   22  C   UNK N   1      21.409  15.153   1.534  0.00  0.00     0.043 C 
BRANCH  22  23
HETATM   23  C   UNK N   1      19.938  15.370   1.234  0.00  0.00     0.173 C 
BRANCH  23  24
HETATM   24  C   UNK N   1      19.783  16.763   0.694  0.00  0.00     0.163 C 
HETATM   25  O   UNK N   1      20.328  17.098  -0.347  0.00  0.00    -0.648 OA
BRANCH  24  26
HETATM   26  O   UNK N   1      19.036  17.657   1.370  0.00  0.00    -0.775 OA
HETATM   27  H   UNK N   1      18.230  17.440   1.796  0.00  0.00     0.167 HD
ENDBRANCH  24  26
ENDBRANCH  23  24
BRANCH  23  28
HETATM   28  N   UNK N   1      19.470  14.375   0.279  0.00  0.00    -0.418 N 
HETATM   29  H   UNK N   1      20.077  13.637  -0.078  0.00  0.00     0.150 HD
HETATM   30  H   UNK N   1      18.503  14.416  -0.041  0.00  0.00     0.150 HD
ENDBRANCH  23  28
ENDBRANCH  22  23
ENDBRANCH  21  22
ENDBRANCH  19  21
BRANCH  19  31
HETATM   31  O   UNK N   1      23.287  16.227   4.287  0.00  0.00    -0.350 OA
HETATM   32  H   UNK N   1      24.202  16.020   4.309  0.00  0.00     0.219 HD
ENDBRANCH  19  31
ENDBRANCH   1  18
TORSDOF 16
ENDMDL
MODEL 6
REMARK VINA RESULT:      -5.4      2.745      6.726
REMARK  16 active torsions:
REMARK  status: ('A' for Active; 'I' for Inactive)
REMARK    1  A    between atoms: C_2  and  C_1 
REMARK    2  A    between atoms: C_5  and  C_1 
REMARK    3  A    between atoms: C_7  and  C_2 
REMARK    4  A    between atoms: C_8  and  C_3 
REMARK    5  A    between atoms: N_12  and  C_3 
REMARK    6  A    between atoms: C_6  and  C_4 
REMARK    7  A    between atoms: S_25  and  C_4 
REMARK    8  A    between atoms: C_10  and  C_5 
REMARK    9  A    between atoms: C_5  and  N_11 
REMARK   10  A    between atoms: C_9  and  C_6 
REMARK   11  A    between atoms: C_6  and  N_14 
REMARK   12  A    between atoms: C_7  and  O_16 
REMARK   13  A    between atoms: O_18  and  C_8 
REMARK   14  A    between atoms: O_19  and  C_9 
REMARK   15  A    between atoms: O_21  and  C_10 
REMARK   16  A    between atoms: S_25  and  O_22 
ROOT
HETATM    1  C   UNK N   1      33.640  15.190   7.946  0.00  0.00     0.173 C 
ENDROOT
BRANCH   1   2
HETATM    2  C   UNK N   1      34.552  16.391   7.606  0.00  0.00     0.189 C 
BRANCH   2   3
HETATM    3  S   UNK N   1      33.905  18.016   8.133  0.00  0.00     0.096 S 
HETATM    4  O   UNK N   1      34.366  18.151   6.675  0.00  0.00    -0.601 OA
HETATM    5  O   UNK N   1      34.900  19.167   8.336  0.00  0.00    -0.601 OA
BRANCH   3   6
HETATM    6  O   UNK N   1      35.232  17.308   8.964  0.00  0.00    -0.296 OA
HETATM    7  H   UNK N   1      35.665  17.441   9.821  0.00  0.00     0.232 HD
ENDBRANCH   3   6
ENDBRANCH   2   3
ENDBRANCH   1   2
BRANCH   1   8
HETATM    8  C   UNK N   1      33.102  14.449   6.729  0.00  0.00     0.136 C 
HETATM    9  N   UNK N   1      31.940  14.716   6.236  0.00  0.00    -0.363 N 
ATOM     10  HN  UNK N   1      31.634  14.205   5.408  1.00  0.00     0.161 HD
BRANCH   9  11
HETATM   11  C   UNK N   1      31.049  15.709   6.803  0.00  0.00     0.231 C 
BRANCH  11  12
HETATM   12  C   UNK N   1      30.920  16.911   5.920  0.00  0.00     0.158 C 
HETATM   13  O   UNK N   1      29.893  17.570   5.901  0.00  0.00    -0.649 OA
BRANCH  12  14
HETATM   14  O   UNK N   1      31.953  17.264   5.131  0.00  0.00    -0.775 OA
HETATM   15  H   UNK N   1      32.018  16.950   4.251  0.00  0.00     0.167 HD
ENDBRANCH  12  14
ENDBRANCH  11  12
ENDBRANCH   9  11
BRANCH   8  16
HETATM   16  O   UNK N   1      33.855  13.505   6.128  0.00  0.00    -0.348 OA
HETATM   17  H   UNK N   1      33.591  12.610   6.036  0.00  0.00     0.219 HD
ENDBRANCH   8  16
ENDBRANCH   1   8
BRANCH   1  18
HETATM   18  N   UNK N   1      34.298  14.241   8.831  0.00  0.00    -0.361 N 
HETATM   19  C   UNK N   1      33.976  14.094  10.069  0.00  0.00     0.111 C 
ATOM     20  HN  UNK N   1      35.048  13.665   8.451  1.00  0.00     0.162 HD
BRANCH  19  21
HETATM   21  C   UNK N   1      34.653  13.024  10.875  0.00  0.00     0.086 C 
BRANCH  21  22
HETATM   22  C   UNK N   1      34.989  13.547  12.262  0.00  0.00     0.043 C 
BRANCH  22  23
HETATM   23  C   UNK N   1      36.366  14.178  12.329  0.00  0.00     0.173 C 
BRANCH  23  24
HETATM   24  C   UNK N   1      36.302  15.492  11.603  0.00  0.00     0.163 C 
HETATM   25  O   UNK N   1      35.415  16.298  11.839  0.00  0.00    -0.648 OA
BRANCH  24  26
HETATM   26  O   UNK N   1      37.234  15.784  10.676  0.00  0.00    -0.775 OA
HETATM   27  H   UNK N   1      37.497  15.188  10.002  0.00  0.00     0.167 HD
ENDBRANCH  24  26
ENDBRANCH  23  24
BRANCH  23  28
HETATM   28  N   UNK N   1      36.768  14.357  13.717  0.00  0.00    -0.418 N 
HETATM   29  H   UNK N   1      37.141  15.240  14.065  0.00  0.00     0.150 HD
HETATM   30  H   UNK N   1      36.674  13.573  14.362  0.00  0.00     0.150 HD
ENDBRANCH  23  28
ENDBRANCH  22  23
ENDBRANCH  21  22
ENDBRANCH  19  21
BRANCH  19  31
HETATM   31  O   UNK N   1      33.015  14.863  10.626  0.00  0.00    -0.350 OA
HETATM   32  H   UNK N   1      32.381  15.023  11.298  0.00  0.00     0.219 HD
ENDBRANCH  19  31
ENDBRANCH   1  18
TORSDOF 16
ENDMDL
MODEL 7
REMARK VINA RESULT:      -5.3      2.320      6.345
REMARK  16 active torsions:
REMARK  status: ('A' for Active; 'I' for Inactive)
REMARK    1  A    between atoms: C_2  and  C_1 
REMARK    2  A    between atoms: C_5  and  C_1 
REMARK    3  A    between atoms: C_7  and  C_2 
REMARK    4  A    between atoms: C_8  and  C_3 
REMARK    5  A    between atoms: N_12  and  C_3 
REMARK    6  A    between atoms: C_6  and  C_4 
REMARK    7  A    between atoms: S_25  and  C_4 
REMARK    8  A    between atoms: C_10  and  C_5 
REMARK    9  A    between atoms: C_5  and  N_11 
REMARK   10  A    between atoms: C_9  and  C_6 
REMARK   11  A    between atoms: C_6  and  N_14 
REMARK   12  A    between atoms: C_7  and  O_16 
REMARK   13  A    between atoms: O_18  and  C_8 
REMARK   14  A    between atoms: O_19  and  C_9 
REMARK   15  A    between atoms: O_21  and  C_10 
REMARK   16  A    between atoms: S_25  and  O_22 
ROOT
HETATM    1  C   UNK N   1      31.985  16.398   7.830  0.00  0.00     0.173 C 
ENDROOT
BRANCH   1   2
HETATM    2  C   UNK N   1      32.949  17.469   7.272  0.00  0.00     0.189 C 
BRANCH   2   3
HETATM    3  S   UNK N   1      34.382  17.842   8.342  0.00  0.00     0.096 S 
HETATM    4  O   UNK N   1      33.333  18.941   8.570  0.00  0.00    -0.601 OA
HETATM    5  O   UNK N   1      35.264  19.048   7.987  0.00  0.00    -0.601 OA
BRANCH   3   6
HETATM    6  O   UNK N   1      34.581  17.754   6.637  0.00  0.00    -0.296 OA
HETATM    7  H   UNK N   1      34.994  18.309   5.957  0.00  0.00     0.232 HD
ENDBRANCH   3   6
ENDBRANCH   2   3
ENDBRANCH   1   2
BRANCH   1   8
HETATM    8  C   UNK N   1      30.706  16.226   7.022  0.00  0.00     0.136 C 
HETATM    9  N   UNK N   1      29.673  16.971   7.226  0.00  0.00    -0.363 N 
ATOM     10  HN  UNK N   1      28.847  16.828   6.645  1.00  0.00     0.161 HD
BRANCH   9  11
HETATM   11  C   UNK N   1      29.631  18.004   8.243  0.00  0.00     0.231 C 
BRANCH  11  12
HETATM   12  C   UNK N   1      28.746  17.622   9.388  0.00  0.00     0.158 C 
HETATM   13  O   UNK N   1      29.165  16.927  10.301  0.00  0.00    -0.649 OA
BRANCH  12  14
HETATM   14  O   UNK N   1      27.469  18.048   9.407  0.00  0.00    -0.775 OA
HETATM   15  H   UNK N   1      26.765  17.476   9.172  0.00  0.00     0.167 HD
ENDBRANCH  12  14
ENDBRANCH  11  12
ENDBRANCH   9  11
BRANCH   8  16
HETATM   16  O   UNK N   1      30.643  15.290   6.052  0.00  0.00    -0.348 OA
HETATM   17  H   UNK N   1      29.867  15.100   5.562  0.00  0.00     0.219 HD
ENDBRANCH   8  16
ENDBRANCH   1   8
BRANCH   1  18
HETATM   18  N   UNK N   1      32.634  15.106   7.979  0.00  0.00    -0.361 N 
HETATM   19  C   UNK N   1      32.811  14.533   9.119  0.00  0.00     0.111 C 
ATOM     20  HN  UNK N   1      32.964  14.630   7.139  1.00  0.00     0.162 HD
BRANCH  19  21
HETATM   21  C   UNK N   1      33.410  13.158   9.158  0.00  0.00     0.086 C 
BRANCH  21  22
HETATM   22  C   UNK N   1      34.716  13.178   9.936  0.00  0.00     0.043 C 
BRANCH  22  23
HETATM   23  C   UNK N   1      35.657  14.271   9.467  0.00  0.00     0.173 C 
BRANCH  23  24
HETATM   24  C   UNK N   1      36.512  14.669  10.637  0.00  0.00     0.163 C 
HETATM   25  O   UNK N   1      36.834  13.853  11.486  0.00  0.00    -0.648 OA
BRANCH  24  26
HETATM   26  O   UNK N   1      36.926  15.946  10.751  0.00  0.00    -0.775 OA
HETATM   27  H   UNK N   1      36.655  16.517  11.443  0.00  0.00     0.167 HD
ENDBRANCH  24  26
ENDBRANCH  23  24
BRANCH  23  28
HETATM   28  N   UNK N   1      36.467  13.791   8.356  0.00  0.00    -0.418 N 
HETATM   29  H   UNK N   1      36.882  14.426   7.673  0.00  0.00     0.150 HD
HETATM   30  H   UNK N   1      36.623  12.789   8.256  0.00  0.00     0.150 HD
ENDBRANCH  23  28
ENDBRANCH  22  23
ENDBRANCH  21  22
ENDBRANCH  19  21
BRANCH  19  31
HETATM   31  O   UNK N   1      32.426  15.143  10.262  0.00  0.00    -0.350 OA
HETATM   32  H   UNK N   1      32.394  15.183  11.198  0.00  0.00     0.219 HD
ENDBRANCH  19  31
ENDBRANCH   1  18
TORSDOF 16
ENDMDL
MODEL 8
REMARK VINA RESULT:      -5.3      2.643      6.907
REMARK  16 active torsions:
REMARK  status: ('A' for Active; 'I' for Inactive)
REMARK    1  A    between atoms: C_2  and  C_1 
REMARK    2  A    between atoms: C_5  and  C_1 
REMARK    3  A    between atoms: C_7  and  C_2 
REMARK    4  A    between atoms: C_8  and  C_3 
REMARK    5  A    between atoms: N_12  and  C_3 
REMARK    6  A    between atoms: C_6  and  C_4 
REMARK    7  A    between atoms: S_25  and  C_4 
REMARK    8  A    between atoms: C_10  and  C_5 
REMARK    9  A    between atoms: C_5  and  N_11 
REMARK   10  A    between atoms: C_9  and  C_6 
REMARK   11  A    between atoms: C_6  and  N_14 
REMARK   12  A    between atoms: C_7  and  O_16 
REMARK   13  A    between atoms: O_18  and  C_8 
REMARK   14  A    between atoms: O_19  and  C_9 
REMARK   15  A    between atoms: O_21  and  C_10 
REMARK   16  A    between atoms: S_25  and  O_22 
ROOT
HETATM    1  C   UNK N   1      28.993  17.049   6.192  0.00  0.00     0.173 C 
ENDROOT
BRANCH   1   2
HETATM    2  C   UNK N   1      28.490  16.094   5.086  0.00  0.00     0.189 C 
BRANCH   2   3
HETATM    3  S   UNK N   1      29.050  16.514   3.399  0.00  0.00     0.096 S 
HETATM    4  O   UNK N   1      27.516  16.456   3.377  0.00  0.00    -0.601 OA
HETATM    5  O   UNK N   1      28.898  15.458   2.295  0.00  0.00    -0.601 OA
BRANCH   3   6
HETATM    6  O   UNK N   1      29.548  15.040   4.129  0.00  0.00    -0.296 OA
HETATM    7  H   UNK N   1      29.590  14.110   3.857  0.00  0.00     0.232 HD
ENDBRANCH   3   6
ENDBRANCH   2   3
ENDBRANCH   1   2
BRANCH   1   8
HETATM    8  C   UNK N   1      27.886  17.664   7.038  0.00  0.00     0.136 C 
HETATM    9  N   UNK N   1      27.392  18.824   6.763  0.00  0.00    -0.363 N 
ATOM     10  HN  UNK N   1      26.638  19.182   7.350  1.00  0.00     0.161 HD
BRANCH   9  11
HETATM   11  C   UNK N   1      27.856  19.640   5.659  0.00  0.00     0.231 C 
BRANCH  11  12
HETATM   12  C   UNK N   1      26.870  20.710   5.305  0.00  0.00     0.158 C 
HETATM   13  O   UNK N   1      26.225  20.652   4.270  0.00  0.00    -0.649 OA
BRANCH  12  14
HETATM   14  O   UNK N   1      26.700  21.753   6.140  0.00  0.00    -0.775 OA
HETATM   15  H   UNK N   1      27.429  22.140   6.583  0.00  0.00     0.167 HD
ENDBRANCH  12  14
ENDBRANCH  11  12
ENDBRANCH   9  11
BRANCH   8  16
HETATM   16  O   UNK N   1      27.386  16.984   8.090  0.00  0.00    -0.348 OA
HETATM   17  H   UNK N   1      27.844  16.868   8.900  0.00  0.00     0.219 HD
ENDBRANCH   8  16
ENDBRANCH   1   8
BRANCH   1  18
HETATM   18  N   UNK N   1      29.961  16.406   7.066  0.00  0.00    -0.361 N 
HETATM   19  C   UNK N   1      31.235  16.521   6.910  0.00  0.00     0.111 C 
ATOM     20  HN  UNK N   1      29.615  15.839   7.839  1.00  0.00     0.162 HD
BRANCH  19  21
HETATM   21  C   UNK N   1      32.151  15.894   7.920  0.00  0.00     0.086 C 
BRANCH  21  22
HETATM   22  C   UNK N   1      32.700  16.955   8.859  0.00  0.00     0.043 C 
BRANCH  22  23
HETATM   23  C   UNK N   1      34.216  16.995   8.872  0.00  0.00     0.173 C 
BRANCH  23  24
HETATM   24  C   UNK N   1      34.648  18.159   8.028  0.00  0.00     0.163 C 
HETATM   25  O   UNK N   1      35.173  19.140   8.532  0.00  0.00    -0.648 OA
BRANCH  24  26
HETATM   26  O   UNK N   1      34.451  18.123   6.696  0.00  0.00    -0.775 OA
HETATM   27  H   UNK N   1      34.235  18.878   6.184  0.00  0.00     0.167 HD
ENDBRANCH  24  26
ENDBRANCH  23  24
BRANCH  23  28
HETATM   28  N   UNK N   1      34.702  17.119  10.239  0.00  0.00    -0.418 N 
HETATM   29  H   UNK N   1      34.070  17.228  11.032  0.00  0.00     0.150 HD
HETATM   30  H   UNK N   1      35.707  17.097  10.409  0.00  0.00     0.150 HD
ENDBRANCH  23  28
ENDBRANCH  22  23
ENDBRANCH  21  22
ENDBRANCH  19  21
BRANCH  19  31
HETATM   31  O   UNK N   1      31.740  17.231   5.877  0.00  0.00    -0.350 OA
HETATM   32  H   UNK N   1      32.343  17.861   5.534  0.00  0.00     0.219 HD
ENDBRANCH  19  31
ENDBRANCH   1  18
TORSDOF 16
ENDMDL
MODEL 9
REMARK VINA RESULT:      -5.3     13.456     16.063
REMARK  16 active torsions:
REMARK  status: ('A' for Active; 'I' for Inactive)
REMARK    1  A    between atoms: C_2  and  C_1 
REMARK    2  A    between atoms: C_5  and  C_1 
REMARK    3  A    between atoms: C_7  and  C_2 
REMARK    4  A    between atoms: C_8  and  C_3 
REMARK    5  A    between atoms: N_12  and  C_3 
REMARK    6  A    between atoms: C_6  and  C_4 
REMARK    7  A    between atoms: S_25  and  C_4 
REMARK    8  A    between atoms: C_10  and  C_5 
REMARK    9  A    between atoms: C_5  and  N_11 
REMARK   10  A    between atoms: C_9  and  C_6 
REMARK   11  A    between atoms: C_6  and  N_14 
REMARK   12  A    between atoms: C_7  and  O_16 
REMARK   13  A    between atoms: O_18  and  C_8 
REMARK   14  A    between atoms: O_19  and  C_9 
REMARK   15  A    between atoms: O_21  and  C_10 
REMARK   16  A    between atoms: S_25  and  O_22 
ROOT
HETATM    1  C   UNK N   1      28.909  24.873  -3.950  0.00  0.00     0.173 C 
ENDROOT
BRANCH   1   2
HETATM    2  C   UNK N   1      30.054  24.385  -3.034  0.00  0.00     0.189 C 
BRANCH   2   3
HETATM    3  S   UNK N   1      30.237  22.571  -2.935  0.00  0.00     0.096 S 
HETATM    4  O   UNK N   1      30.057  23.098  -1.504  0.00  0.00    -0.601 OA
HETATM    5  O   UNK N   1      31.531  21.998  -2.339  0.00  0.00    -0.601 OA
BRANCH   3   6
HETATM    6  O   UNK N   1      31.493  23.525  -3.615  0.00  0.00    -0.296 OA
HETATM    7  H   UNK N   1      31.820  24.430  -3.494  0.00  0.00     0.232 HD
ENDBRANCH   3   6
ENDBRANCH   2   3
ENDBRANCH   1   2
BRANCH   1   8
HETATM    8  C   UNK N   1      27.542  24.300  -3.601  0.00  0.00     0.136 C 
HETATM    9  N   UNK N   1      26.776  23.784  -4.502  0.00  0.00    -0.363 N 
ATOM     10  HN  UNK N   1      25.878  23.397  -4.212  1.00  0.00     0.161 HD
BRANCH   9  11
HETATM   11  C   UNK N   1      27.132  23.729  -5.905  0.00  0.00     0.231 C 
BRANCH  11  12
HETATM   12  C   UNK N   1      26.155  24.478  -6.758  0.00  0.00     0.158 C 
HETATM   13  O   UNK N   1      25.271  23.893  -7.363  0.00  0.00    -0.649 OA
BRANCH  12  14
HETATM   14  O   UNK N   1      26.260  25.817  -6.860  0.00  0.00    -0.775 OA
HETATM   15  H   UNK N   1      25.659  26.310  -7.383  0.00  0.00     0.167 HD
ENDBRANCH  12  14
ENDBRANCH  11  12
ENDBRANCH   9  11
BRANCH   8  16
HETATM   16  O   UNK N   1      27.117  24.305  -2.320  0.00  0.00    -0.348 OA
HETATM   17  H   UNK N   1      26.310  23.920  -2.038  0.00  0.00     0.219 HD
ENDBRANCH   8  16
ENDBRANCH   1   8
BRANCH   1  18
HETATM   18  N   UNK N   1      28.823  26.323  -3.990  0.00  0.00    -0.361 N 
HETATM   19  C   UNK N   1      28.956  27.008  -5.073  0.00  0.00     0.111 C 
ATOM     20  HN  UNK N   1      28.649  26.823  -3.118  1.00  0.00     0.162 HD
BRANCH  19  21
HETATM   21  C   UNK N   1      28.760  28.494  -5.024  0.00  0.00     0.086 C 
BRANCH  21  22
HETATM   22  C   UNK N   1      27.339  28.849  -5.429  0.00  0.00     0.043 C 
BRANCH  22  23
HETATM   23  C   UNK N   1      26.439  29.107  -4.235  0.00  0.00     0.173 C 
BRANCH  23  24
HETATM   24  C   UNK N   1      25.761  27.812  -3.887  0.00  0.00     0.163 C 
HETATM   25  O   UNK N   1      25.026  27.253  -4.686  0.00  0.00    -0.648 OA
BRANCH  24  26
HETATM   26  O   UNK N   1      25.965  27.262  -2.674  0.00  0.00    -0.775 OA
HETATM   27  H   UNK N   1      25.882  26.345  -2.502  0.00  0.00     0.167 HD
ENDBRANCH  24  26
ENDBRANCH  23  24
BRANCH  23  28
HETATM   28  N   UNK N   1      27.223  29.614  -3.118  0.00  0.00    -0.418 N 
HETATM   29  H   UNK N   1      26.862  29.631  -2.164  0.00  0.00     0.150 HD
HETATM   30  H   UNK N   1      28.165  29.963  -3.294  0.00  0.00     0.150 HD
ENDBRANCH  23  28
ENDBRANCH  22  23
ENDBRANCH  21  22
ENDBRANCH  19  21
BRANCH  19  31
HETATM   31  O   UNK N   1      29.226  26.393  -6.246  0.00  0.00    -0.350 OA
HETATM   32  H   UNK N   1      29.771  26.268  -6.998  0.00  0.00     0.219 HD
ENDBRANCH  19  31
ENDBRANCH   1  18
TORSDOF 16
ENDMDL
