MODEL 1
REMARK VINA RESULT:      -6.4      0.000      0.000
REMARK  18 active torsions:
REMARK  status: ('A' for Active; 'I' for Inactive)
REMARK    1  A    between atoms: C_2  and  C_1 
REMARK    2  A    between atoms: C_3  and  C_1 
REMARK    3  A    between atoms: N_18  and  C_2 
REMARK    4  A    between atoms: O_30  and  C_3 
REMARK    5  A    between atoms: C_6  and  C_4 
REMARK    6  A    between atoms: N_19  and  C_4 
REMARK    7  A    between atoms: C_7  and  C_5 
REMARK    8  A    between atoms: O_20  and  C_5 
REMARK    9  A    between atoms: C_9  and  C_6 
REMARK   10  A    between atoms: C_6  and  O_21 
REMARK   11  A    between atoms: C_9  and  C_7 
REMARK   12  A    between atoms: C_7  and  O_22 
REMARK   13  A    between atoms: C_9  and  O_23 
REMARK   14  A    between atoms: O_24  and  C_11 
REMARK   15  A    between atoms: O_25  and  C_12 
REMARK   16  A    between atoms: P_31  and  O_27 
REMARK   17  A    between atoms: P_31  and  O_28 
REMARK   18  A    between atoms: P_31  and  O_30 
ROOT
HETATM    1  C   UNK N   1      22.888  15.482   6.399  0.00  0.00     0.135 A 
HETATM    2  C   UNK N   1      22.937  16.754   5.919  0.00  0.00     0.146 A 
HETATM    3  C   UNK N   1      24.053  14.729   6.461  0.00  0.00     0.174 A 
HETATM    4  C   UNK N   1      25.237  16.600   5.559  0.00  0.00     0.224 A 
HETATM    5  C   UNK N   1      20.899  16.302   6.401  0.00  0.00     0.331 A 
HETATM    6  N   UNK N   1      24.084  17.331   5.492  0.00  0.00    -0.306 N 
ATOM      7  HN  UNK N   1      24.087  18.285   5.129  1.00  0.00     0.171 HD
HETATM    8  N   UNK N   1      25.216  15.311   6.037  0.00  0.00    -0.301 N 
ATOM      9  HN  UNK N   1      26.085  14.779   6.078  1.00  0.00     0.171 HD
HETATM   10  N   UNK N   1      21.610  15.178   6.716  0.00  0.00    -0.292 N 
HETATM   11  N   UNK N   1      21.705  17.283   5.899  0.00  0.00    -0.281 N 
HETATM   12  O   UNK N   1      19.691  16.405   6.525  0.00  0.00    -0.246 OA
ENDROOT
BRANCH  11  13
HETATM   13  C   UNK N   1      21.324  18.575   5.353  0.00  0.00     0.170 C 
BRANCH  13  14
HETATM   14  C   UNK N   1      21.296  18.469   3.828  0.00  0.00     0.168 C 
BRANCH  14  15
HETATM   15  C   UNK N   1      20.498  19.600   3.165  0.00  0.00     0.179 C 
BRANCH  15  16
HETATM   16  C   UNK N   1      21.346  20.477   2.219  0.00  0.00     0.173 C 
BRANCH  16  17
HETATM   17  C   UNK N   1      20.456  21.098   1.150  0.00  0.00     0.198 C 
BRANCH  17  18
HETATM   18  O   UNK N   1      20.619  20.431  -0.064  0.00  0.00    -0.398 OA
HETATM   19  H   UNK N   1      20.523  19.469  -0.139  0.00  0.00     0.209 HD
ENDBRANCH  17  18
ENDBRANCH  16  17
BRANCH  16  20
HETATM   20  O   UNK N   1      21.983  21.499   2.926  0.00  0.00    -0.391 OA
HETATM   21  H   UNK N   1      22.566  21.742   3.663  0.00  0.00     0.210 HD
ENDBRANCH  16  20
ENDBRANCH  15  16
BRANCH  15  22
HETATM   22  O   UNK N   1      19.453  19.024   2.435  0.00  0.00    -0.390 OA
HETATM   23  H   UNK N   1      19.127  18.768   1.558  0.00  0.00     0.210 HD
ENDBRANCH  15  22
ENDBRANCH  14  15
BRANCH  14  24
HETATM   24  O   UNK N   1      22.604  18.455   3.331  0.00  0.00    -0.391 OA
HETATM   25  H   UNK N   1      23.139  18.910   2.662  0.00  0.00     0.210 HD
ENDBRANCH  14  24
ENDBRANCH  13  14
ENDBRANCH  11  13
BRANCH  10  26
HETATM   26  C   UNK N   1      21.076  13.920   7.224  0.00  0.00     0.136 C 
BRANCH  26  27
HETATM   27  C   UNK N   1      20.854  13.987   8.733  0.00  0.00     0.047 C 
BRANCH  27  28
HETATM   28  C   UNK N   1      21.738  12.986   9.472  0.00  0.00     0.182 C 
BRANCH  28  29
HETATM   29  O   UNK N   1      22.993  13.553   9.731  0.00  0.00    -0.297 OA
BRANCH  29  30
HETATM   30  P   UNK N   1      24.078  12.242  10.093  0.00  0.00     0.390 P 
HETATM   31  O   UNK N   1      25.108  13.358   9.770  0.00  0.00    -0.632 OA
BRANCH  30  32
HETATM   32  O   UNK N   1      25.056  12.266  11.525  0.00  0.00    -0.307 OA
HETATM   33  H   UNK N   1      25.271  11.559  12.154  0.00  0.00     0.222 HD
ENDBRANCH  30  32
BRANCH  30  34
HETATM   34  O   UNK N   1      23.166  12.726  11.490  0.00  0.00    -0.307 OA
HETATM   35  H   UNK N   1      23.511  12.553  12.380  0.00  0.00     0.222 HD
ENDBRANCH  30  34
ENDBRANCH  29  30
ENDBRANCH  28  29
ENDBRANCH  27  28
ENDBRANCH  26  27
ENDBRANCH  10  26
BRANCH   3  36
HETATM   36  O   UNK N   1      24.050  13.461   6.902  0.00  0.00    -0.344 OA
HETATM   37  H   UNK N   1      23.380  13.064   7.422  0.00  0.00     0.219 HD
ENDBRANCH   3  36
BRANCH   4  38
HETATM   38  O   UNK N   1      26.394  17.142   5.146  0.00  0.00    -0.332 OA
HETATM   39  H   UNK N   1      27.207  16.689   5.259  0.00  0.00     0.221 HD
ENDBRANCH   4  38
TORSDOF 18
ENDMDL
MODEL 2
REMARK VINA RESULT:      -6.4      2.906      8.712
REMARK  18 active torsions:
REMARK  status: ('A' for Active; 'I' for Inactive)
REMARK    1  A    between atoms: C_2  and  C_1 
REMARK    2  A    between atoms: C_3  and  C_1 
REMARK    3  A    between atoms: N_18  and  C_2 
REMARK    4  A    between atoms: O_30  and  C_3 
REMARK    5  A    between atoms: C_6  and  C_4 
REMARK    6  A    between atoms: N_19  and  C_4 
REMARK    7  A    between atoms: C_7  and  C_5 
REMARK    8  A    between atoms: O_20  and  C_5 
REMARK    9  A    between atoms: C_9  and  C_6 
REMARK   10  A    between atoms: C_6  and  O_21 
REMARK   11  A    between atoms: C_9  and  C_7 
REMARK   12  A    between atoms: C_7  and  O_22 
REMARK   13  A    between atoms: C_9  and  O_23 
REMARK   14  A    between atoms: O_24  and  C_11 
REMARK   15  A    between atoms: O_25  and  C_12 
REMARK   16  A    between atoms: P_31  and  O_27 
REMARK   17  A    between atoms: P_31  and  O_28 
REMARK   18  A    between atoms: P_31  and  O_30 
ROOT
HETATM    1  C   UNK N   1      21.545  16.694   6.894  0.00  0.00     0.135 A 
HETATM    2  C   UNK N   1      21.379  15.400   7.277  0.00  0.00     0.146 A 
HETATM    3  C   UNK N   1      20.693  17.671   7.393  0.00  0.00     0.174 A 
HETATM    4  C   UNK N   1      19.571  15.967   8.638  0.00  0.00     0.224 A 
HETATM    5  C   UNK N   1      22.999  15.476   5.879  0.00  0.00     0.331 A 
HETATM    6  N   UNK N   1      20.407  15.010   8.135  0.00  0.00    -0.306 N 
ATOM      7  HN  UNK N   1      20.302  14.030   8.398  1.00  0.00     0.171 HD
HETATM    8  N   UNK N   1      19.715  17.283   8.266  0.00  0.00    -0.301 N 
ATOM      9  HN  UNK N   1      19.081  17.983   8.649  1.00  0.00     0.171 HD
HETATM   10  N   UNK N   1      22.569  16.766   6.015  0.00  0.00    -0.292 N 
HETATM   11  N   UNK N   1      22.267  14.618   6.648  0.00  0.00    -0.281 N 
HETATM   12  O   UNK N   1      23.905  15.131   5.140  0.00  0.00    -0.246 OA
ENDROOT
BRANCH  11  13
HETATM   13  C   UNK N   1      22.339  13.167   6.702  0.00  0.00     0.170 C 
BRANCH  13  14
HETATM   14  C   UNK N   1      23.292  12.770   7.830  0.00  0.00     0.168 C 
BRANCH  14  15
HETATM   15  C   UNK N   1      22.563  12.194   9.052  0.00  0.00     0.179 C 
BRANCH  15  16
HETATM   16  C   UNK N   1      22.998  12.838  10.386  0.00  0.00     0.173 C 
BRANCH  16  17
HETATM   17  C   UNK N   1      22.741  11.872  11.536  0.00  0.00     0.198 C 
BRANCH  17  18
HETATM   18  O   UNK N   1      21.377  11.807  11.820  0.00  0.00    -0.398 OA
HETATM   19  H   UNK N   1      21.044  11.758  12.730  0.00  0.00     0.209 HD
ENDBRANCH  17  18
ENDBRANCH  16  17
BRANCH  16  20
HETATM   20  O   UNK N   1      24.356  13.161  10.362  0.00  0.00    -0.391 OA
HETATM   21  H   UNK N   1      25.211  13.129  10.819  0.00  0.00     0.210 HD
ENDBRANCH  16  20
ENDBRANCH  15  16
BRANCH  15  22
HETATM   22  O   UNK N   1      21.191  12.401   8.874  0.00  0.00    -0.390 OA
HETATM   23  H   UNK N   1      20.323  12.469   9.303  0.00  0.00     0.210 HD
ENDBRANCH  15  22
ENDBRANCH  14  15
BRANCH  14  24
HETATM   24  O   UNK N   1      24.227  11.845   7.354  0.00  0.00    -0.391 OA
HETATM   25  H   UNK N   1      24.254  10.935   7.017  0.00  0.00     0.210 HD
ENDBRANCH  14  24
ENDBRANCH  13  14
ENDBRANCH  11  13
BRANCH  10  26
HETATM   26  C   UNK N   1      23.079  17.936   5.310  0.00  0.00     0.136 C 
BRANCH  26  27
HETATM   27  C   UNK N   1      22.686  17.904   3.835  0.00  0.00     0.047 C 
BRANCH  27  28
HETATM   28  C   UNK N   1      21.799  19.091   3.469  0.00  0.00     0.182 C 
BRANCH  28  29
HETATM   29  O   UNK N   1      21.230  18.893   2.204  0.00  0.00    -0.297 OA
BRANCH  29  30
HETATM   30  P   UNK N   1      20.701  20.450   1.636  0.00  0.00     0.390 P 
HETATM   31  O   UNK N   1      22.229  20.710   1.739  0.00  0.00    -0.632 OA
BRANCH  30  32
HETATM   32  O   UNK N   1      21.092  20.993   0.035  0.00  0.00    -0.307 OA
HETATM   33  H   UNK N   1      21.943  21.251  -0.354  0.00  0.00     0.222 HD
ENDBRANCH  30  32
BRANCH  30  34
HETATM   34  O   UNK N   1      20.436  19.209   0.449  0.00  0.00    -0.307 OA
HETATM   35  H   UNK N   1      19.553  19.081   0.069  0.00  0.00     0.222 HD
ENDBRANCH  30  34
ENDBRANCH  29  30
ENDBRANCH  28  29
ENDBRANCH  27  28
ENDBRANCH  26  27
ENDBRANCH  10  26
BRANCH   3  36
HETATM   36  O   UNK N   1      20.802  18.957   7.023  0.00  0.00    -0.344 OA
HETATM   37  H   UNK N   1      21.045  19.669   7.582  0.00  0.00     0.219 HD
ENDBRANCH   3  36
BRANCH   4  38
HETATM   38  O   UNK N   1      18.597  15.617   9.495  0.00  0.00    -0.332 OA
HETATM   39  H   UNK N   1      18.687  14.867  10.049  0.00  0.00     0.221 HD
ENDBRANCH   4  38
TORSDOF 18
ENDMDL
MODEL 3
REMARK VINA RESULT:      -6.3     12.172     14.306
REMARK  18 active torsions:
REMARK  status: ('A' for Active; 'I' for Inactive)
REMARK    1  A    between atoms: C_2  and  C_1 
REMARK    2  A    between atoms: C_3  and  C_1 
REMARK    3  A    between atoms: N_18  and  C_2 
REMARK    4  A    between atoms: O_30  and  C_3 
REMARK    5  A    between atoms: C_6  and  C_4 
REMARK    6  A    between atoms: N_19  and  C_4 
REMARK    7  A    between atoms: C_7  and  C_5 
REMARK    8  A    between atoms: O_20  and  C_5 
REMARK    9  A    between atoms: C_9  and  C_6 
REMARK   10  A    between atoms: C_6  and  O_21 
REMARK   11  A    between atoms: C_9  and  C_7 
REMARK   12  A    between atoms: C_7  and  O_22 
REMARK   13  A    between atoms: C_9  and  O_23 
REMARK   14  A    between atoms: O_24  and  C_11 
REMARK   15  A    between atoms: O_25  and  C_12 
REMARK   16  A    between atoms: P_31  and  O_27 
REMARK   17  A    between atoms: P_31  and  O_28 
REMARK   18  A    between atoms: P_31  and  O_30 
ROOT
HETATM    1  C   UNK N   1      35.425  12.612  13.740  0.00  0.00     0.135 A 
HETATM    2  C   UNK N   1      35.928  13.750  13.191  0.00  0.00     0.146 A 
HETATM    3  C   UNK N   1      35.706  12.310  15.067  0.00  0.00     0.174 A 
HETATM    4  C   UNK N   1      36.975  14.332  15.193  0.00  0.00     0.224 A 
HETATM    5  C   UNK N   1      34.831  12.708  11.675  0.00  0.00     0.331 A 
HETATM    6  N   UNK N   1      36.702  14.617  13.885  0.00  0.00    -0.306 N 
ATOM      7  HN  UNK N   1      37.072  15.459  13.442  1.00  0.00     0.171 HD
HETATM    8  N   UNK N   1      36.482  13.187  15.774  0.00  0.00    -0.301 N 
ATOM      9  HN  UNK N   1      36.697  12.989  16.750  1.00  0.00     0.171 HD
HETATM   10  N   UNK N   1      34.722  11.941  12.801  0.00  0.00    -0.292 N 
HETATM   11  N   UNK N   1      35.581  13.826  11.899  0.00  0.00    -0.281 N 
HETATM   12  O   UNK N   1      34.343  12.414  10.598  0.00  0.00    -0.246 OA
ENDROOT
BRANCH  11  13
HETATM   13  C   UNK N   1      36.015  14.830  10.941  0.00  0.00     0.170 C 
BRANCH  13  14
HETATM   14  C   UNK N   1      34.956  15.932  10.878  0.00  0.00     0.168 C 
BRANCH  14  15
HETATM   15  C   UNK N   1      35.009  16.737   9.572  0.00  0.00     0.179 C 
BRANCH  15  16
HETATM   16  C   UNK N   1      33.624  16.945   8.923  0.00  0.00     0.173 C 
BRANCH  16  17
HETATM   17  C   UNK N   1      33.650  18.178   8.028  0.00  0.00     0.198 C 
BRANCH  17  18
HETATM   18  O   UNK N   1      34.593  18.020   7.012  0.00  0.00    -0.398 OA
HETATM   19  H   UNK N   1      35.175  17.245   6.968  0.00  0.00     0.209 HD
ENDBRANCH  17  18
ENDBRANCH  16  17
BRANCH  16  20
HETATM   20  O   UNK N   1      33.264  15.836   8.154  0.00  0.00    -0.391 OA
HETATM   21  H   UNK N   1      33.550  15.137   7.545  0.00  0.00     0.210 HD
ENDBRANCH  16  20
ENDBRANCH  15  16
BRANCH  15  22
HETATM   22  O   UNK N   1      35.570  17.987   9.856  0.00  0.00    -0.390 OA
HETATM   23  H   UNK N   1      35.613  18.925   9.614  0.00  0.00     0.210 HD
ENDBRANCH  15  22
ENDBRANCH  14  15
BRANCH  14  24
HETATM   24  O   UNK N   1      33.683  15.374  11.042  0.00  0.00    -0.391 OA
HETATM   25  H   UNK N   1      33.098  15.078  11.757  0.00  0.00     0.210 HD
ENDBRANCH  14  24
ENDBRANCH  13  14
ENDBRANCH  11  13
BRANCH  10  26
HETATM   26  C   UNK N   1      34.043  10.657  12.922  0.00  0.00     0.136 C 
BRANCH  26  27
HETATM   27  C   UNK N   1      34.899   9.527  12.351  0.00  0.00     0.047 C 
BRANCH  27  28
HETATM   28  C   UNK N   1      34.203   8.837  11.181  0.00  0.00     0.182 C 
BRANCH  28  29
HETATM   29  O   UNK N   1      32.981   9.467  10.910  0.00  0.00    -0.297 OA
BRANCH  29  30
HETATM   30  P   UNK N   1      32.532   9.027   9.288  0.00  0.00     0.390 P 
HETATM   31  O   UNK N   1      31.586   8.090  10.088  0.00  0.00    -0.632 OA
BRANCH  30  32
HETATM   32  O   UNK N   1      30.974   9.446   8.651  0.00  0.00    -0.307 OA
HETATM   33  H   UNK N   1      30.086   9.159   8.918  0.00  0.00     0.222 HD
ENDBRANCH  30  32
BRANCH  30  34
HETATM   34  O   UNK N   1      32.108  10.672   9.648  0.00  0.00    -0.307 OA
HETATM   35  H   UNK N   1      32.326  11.380   9.021  0.00  0.00     0.222 HD
ENDBRANCH  30  34
ENDBRANCH  29  30
ENDBRANCH  28  29
ENDBRANCH  27  28
ENDBRANCH  26  27
ENDBRANCH  10  26
BRANCH   3  36
HETATM   36  O   UNK N   1      35.254  11.185  15.644  0.00  0.00    -0.344 OA
HETATM   37  H   UNK N   1      34.512  11.122  16.213  0.00  0.00     0.219 HD
ENDBRANCH   3  36
BRANCH   4  38
HETATM   38  O   UNK N   1      37.738  15.171  15.913  0.00  0.00    -0.332 OA
HETATM   39  H   UNK N   1      37.367  15.700  16.592  0.00  0.00     0.221 HD
ENDBRANCH   4  38
TORSDOF 18
ENDMDL
MODEL 4
REMARK VINA RESULT:      -6.2      1.844      3.342
REMARK  18 active torsions:
REMARK  status: ('A' for Active; 'I' for Inactive)
REMARK    1  A    between atoms: C_2  and  C_1 
REMARK    2  A    between atoms: C_3  and  C_1 
REMARK    3  A    between atoms: N_18  and  C_2 
REMARK    4  A    between atoms: O_30  and  C_3 
REMARK    5  A    between atoms: C_6  and  C_4 
REMARK    6  A    between atoms: N_19  and  C_4 
REMARK    7  A    between atoms: C_7  and  C_5 
REMARK    8  A    between atoms: O_20  and  C_5 
REMARK    9  A    between atoms: C_9  and  C_6 
REMARK   10  A    between atoms: C_6  and  O_21 
REMARK   11  A    between atoms: C_9  and  C_7 
REMARK   12  A    between atoms: C_7  and  O_22 
REMARK   13  A    between atoms: C_9  and  O_23 
REMARK   14  A    between atoms: O_24  and  C_11 
REMARK   15  A    between atoms: O_25  and  C_12 
REMARK   16  A    between atoms: P_31  and  O_27 
REMARK   17  A    between atoms: P_31  and  O_28 
REMARK   18  A    between atoms: P_31  and  O_30 
ROOT
HETATM    1  C   UNK N   1      20.801  15.595   7.700  0.00  0.00     0.135 A 
HETATM    2  C   UNK N   1      20.724  16.877   7.253  0.00  0.00     0.146 A 
HETATM    3  C   UNK N   1      19.999  15.190   8.759  0.00  0.00     0.174 A 
HETATM    4  C   UNK N   1      19.091  17.401   8.835  0.00  0.00     0.224 A 
HETATM    5  C   UNK N   1      22.220  15.861   6.105  0.00  0.00     0.331 A 
HETATM    6  N   UNK N   1      19.891  17.794   7.798  0.00  0.00    -0.306 N 
ATOM      7  HN  UNK N   1      19.862  18.751   7.446  1.00  0.00     0.171 HD
HETATM    8  N   UNK N   1      19.149  16.111   9.308  0.00  0.00    -0.301 N 
ATOM      9  HN  UNK N   1      18.548  15.836  10.084  1.00  0.00     0.171 HD
HETATM   10  N   UNK N   1      21.736  14.932   6.984  0.00  0.00    -0.292 N 
HETATM   11  N   UNK N   1      21.610  17.071   6.265  0.00  0.00    -0.281 N 
HETATM   12  O   UNK N   1      23.108  15.643   5.299  0.00  0.00    -0.246 OA
ENDROOT
BRANCH  11  13
HETATM   13  C   UNK N   1      21.913  18.331   5.605  0.00  0.00     0.170 C 
BRANCH  13  14
HETATM   14  C   UNK N   1      21.215  18.346   4.245  0.00  0.00     0.168 C 
BRANCH  14  15
HETATM   15  C   UNK N   1      20.844  19.761   3.781  0.00  0.00     0.179 C 
BRANCH  15  16
HETATM   16  C   UNK N   1      21.724  20.278   2.622  0.00  0.00     0.173 C 
BRANCH  16  17
HETATM   17  C   UNK N   1      20.892  20.396   1.351  0.00  0.00     0.198 C 
BRANCH  17  18
HETATM   18  O   UNK N   1      20.620  19.131   0.830  0.00  0.00    -0.398 OA
HETATM   19  H   UNK N   1      20.768  18.918  -0.105  0.00  0.00     0.209 HD
ENDBRANCH  17  18
ENDBRANCH  16  17
BRANCH  16  20
HETATM   20  O   UNK N   1      22.262  21.530   2.927  0.00  0.00    -0.391 OA
HETATM   21  H   UNK N   1      22.946  22.192   2.742  0.00  0.00     0.210 HD
ENDBRANCH  16  20
ENDBRANCH  15  16
BRANCH  15  22
HETATM   22  O   UNK N   1      19.508  19.744   3.363  0.00  0.00    -0.390 OA
HETATM   23  H   UNK N   1      18.784  19.211   3.000  0.00  0.00     0.210 HD
ENDBRANCH  15  22
ENDBRANCH  14  15
BRANCH  14  24
HETATM   24  O   UNK N   1      22.031  17.731   3.289  0.00  0.00    -0.391 OA
HETATM   25  H   UNK N   1      22.492  17.954   2.465  0.00  0.00     0.210 HD
ENDBRANCH  14  24
ENDBRANCH  13  14
ENDBRANCH  11  13
BRANCH  10  26
HETATM   26  C   UNK N   1      22.187  13.555   7.136  0.00  0.00     0.136 C 
BRANCH  26  27
HETATM   27  C   UNK N   1      23.383  13.469   8.081  0.00  0.00     0.047 C 
BRANCH  27  28
HETATM   28  C   UNK N   1      23.859  12.028   8.249  0.00  0.00     0.182 C 
BRANCH  28  29
HETATM   29  O   UNK N   1      24.566  11.893   9.451  0.00  0.00    -0.297 OA
BRANCH  29  30
HETATM   30  P   UNK N   1      23.586  12.607  10.699  0.00  0.00     0.390 P 
HETATM   31  O   UNK N   1      23.099  11.135  10.787  0.00  0.00    -0.632 OA
BRANCH  30  32
HETATM   32  O   UNK N   1      23.860  12.228  12.370  0.00  0.00    -0.307 OA
HETATM   33  H   UNK N   1      24.077  12.804  13.120  0.00  0.00     0.222 HD
ENDBRANCH  30  32
BRANCH  30  34
HETATM   34  O   UNK N   1      25.275  12.649  11.105  0.00  0.00    -0.307 OA
HETATM   35  H   UNK N   1      25.761  11.823  11.254  0.00  0.00     0.222 HD
ENDBRANCH  30  34
ENDBRANCH  29  30
ENDBRANCH  28  29
ENDBRANCH  27  28
ENDBRANCH  26  27
ENDBRANCH  10  26
BRANCH   3  36
HETATM   36  O   UNK N   1      20.058  13.943   9.252  0.00  0.00    -0.344 OA
HETATM   37  H   UNK N   1      20.359  13.706  10.107  0.00  0.00     0.219 HD
ENDBRANCH   3  36
BRANCH   4  38
HETATM   38  O   UNK N   1      18.250  18.283   9.399  0.00  0.00    -0.332 OA
HETATM   39  H   UNK N   1      17.943  18.165  10.276  0.00  0.00     0.221 HD
ENDBRANCH   4  38
TORSDOF 18
ENDMDL
MODEL 5
REMARK VINA RESULT:      -6.2      7.311     11.650
REMARK  18 active torsions:
REMARK  status: ('A' for Active; 'I' for Inactive)
REMARK    1  A    between atoms: C_2  and  C_1 
REMARK    2  A    between atoms: C_3  and  C_1 
REMARK    3  A    between atoms: N_18  and  C_2 
REMARK    4  A    between atoms: O_30  and  C_3 
REMARK    5  A    between atoms: C_6  and  C_4 
REMARK    6  A    between atoms: N_19  and  C_4 
REMARK    7  A    between atoms: C_7  and  C_5 
REMARK    8  A    between atoms: O_20  and  C_5 
REMARK    9  A    between atoms: C_9  and  C_6 
REMARK   10  A    between atoms: C_6  and  O_21 
REMARK   11  A    between atoms: C_9  and  C_7 
REMARK   12  A    between atoms: C_7  and  O_22 
REMARK   13  A    between atoms: C_9  and  O_23 
REMARK   14  A    between atoms: O_24  and  C_11 
REMARK   15  A    between atoms: O_25  and  C_12 
REMARK   16  A    between atoms: P_31  and  O_27 
REMARK   17  A    between atoms: P_31  and  O_28 
REMARK   18  A    between atoms: P_31  and  O_30 
ROOT
HETATM    1  C   UNK N   1      30.488  16.999   6.885  0.00  0.00     0.135 A 
HETATM    2  C   UNK N   1      31.503  17.572   7.585  0.00  0.00     0.146 A 
HETATM    3  C   UNK N   1      29.197  17.036   7.396  0.00  0.00     0.174 A 
HETATM    4  C   UNK N   1      30.046  18.237   9.282  0.00  0.00     0.224 A 
HETATM    5  C   UNK N   1      32.330  16.692   5.816  0.00  0.00     0.331 A 
HETATM    6  N   UNK N   1      31.315  18.187   8.776  0.00  0.00    -0.306 N 
ATOM      7  HN  UNK N   1      32.099  18.600   9.282  1.00  0.00     0.171 HD
HETATM    8  N   UNK N   1      29.001  17.664   8.596  0.00  0.00    -0.301 N 
ATOM      9  HN  UNK N   1      28.061  17.708   8.989  1.00  0.00     0.171 HD
HETATM   10  N   UNK N   1      30.987  16.442   5.759  0.00  0.00    -0.292 N 
HETATM   11  N   UNK N   1      32.666  17.382   6.944  0.00  0.00    -0.281 N 
HETATM   12  O   UNK N   1      33.131  16.317   4.978  0.00  0.00    -0.246 OA
ENDROOT
BRANCH  11  13
HETATM   13  C   UNK N   1      33.990  17.743   7.422  0.00  0.00     0.170 C 
BRANCH  13  14
HETATM   14  C   UNK N   1      34.564  16.560   8.203  0.00  0.00     0.168 C 
BRANCH  14  15
HETATM   15  C   UNK N   1      34.481  16.753   9.724  0.00  0.00     0.179 C 
BRANCH  15  16
HETATM   16  C   UNK N   1      34.774  15.464  10.522  0.00  0.00     0.173 C 
BRANCH  16  17
HETATM   17  C   UNK N   1      35.916  15.707  11.500  0.00  0.00     0.198 C 
BRANCH  17  18
HETATM   18  O   UNK N   1      37.131  15.780  10.818  0.00  0.00    -0.398 OA
HETATM   19  H   UNK N   1      37.479  15.033  10.306  0.00  0.00     0.209 HD
ENDBRANCH  17  18
ENDBRANCH  16  17
BRANCH  16  20
HETATM   20  O   UNK N   1      33.646  15.056  11.238  0.00  0.00    -0.391 OA
HETATM   21  H   UNK N   1      33.074  15.195  12.009  0.00  0.00     0.210 HD
ENDBRANCH  16  20
ENDBRANCH  15  16
BRANCH  15  22
HETATM   22  O   UNK N   1      35.411  17.733  10.087  0.00  0.00    -0.390 OA
HETATM   23  H   UNK N   1      35.545  18.634  10.420  0.00  0.00     0.210 HD
ENDBRANCH  15  22
ENDBRANCH  14  15
BRANCH  14  24
HETATM   24  O   UNK N   1      33.899  15.385   7.835  0.00  0.00    -0.391 OA
HETATM   25  H   UNK N   1      33.219  15.092   7.209  0.00  0.00     0.210 HD
ENDBRANCH  14  24
ENDBRANCH  13  14
ENDBRANCH  11  13
BRANCH  10  26
HETATM   26  C   UNK N   1      30.281  15.687   4.731  0.00  0.00     0.136 C 
BRANCH  26  27
HETATM   27  C   UNK N   1      30.006  16.555   3.505  0.00  0.00     0.047 C 
BRANCH  27  28
HETATM   28  C   UNK N   1      28.509  16.783   3.308  0.00  0.00     0.182 C 
BRANCH  28  29
HETATM   29  O   UNK N   1      28.075  17.843   4.114  0.00  0.00    -0.297 OA
BRANCH  29  30
HETATM   30  P   UNK N   1      26.335  17.818   4.092  0.00  0.00     0.390 P 
HETATM   31  O   UNK N   1      26.619  16.323   4.404  0.00  0.00    -0.632 OA
BRANCH  30  32
HETATM   32  O   UNK N   1      25.431  17.569   5.551  0.00  0.00    -0.307 OA
HETATM   33  H   UNK N   1      24.815  16.861   5.798  0.00  0.00     0.222 HD
ENDBRANCH  30  32
BRANCH  30  34
HETATM   34  O   UNK N   1      26.948  18.777   5.405  0.00  0.00    -0.307 OA
HETATM   35  H   UNK N   1      27.354  18.347   6.173  0.00  0.00     0.222 HD
ENDBRANCH  30  34
ENDBRANCH  29  30
ENDBRANCH  28  29
ENDBRANCH  27  28
ENDBRANCH  26  27
ENDBRANCH  10  26
BRANCH   3  36
HETATM   36  O   UNK N   1      28.168  16.462   6.754  0.00  0.00    -0.344 OA
HETATM   37  H   UNK N   1      28.207  16.053   5.912  0.00  0.00     0.219 HD
ENDBRANCH   3  36
BRANCH   4  38
HETATM   38  O   UNK N   1      29.821  18.841  10.460  0.00  0.00    -0.332 OA
HETATM   39  H   UNK N   1      29.016  18.717  10.921  0.00  0.00     0.221 HD
ENDBRANCH   4  38
TORSDOF 18
ENDMDL
MODEL 6
REMARK VINA RESULT:      -6.2      6.335      9.183
REMARK  18 active torsions:
REMARK  status: ('A' for Active; 'I' for Inactive)
REMARK    1  A    between atoms: C_2  and  C_1 
REMARK    2  A    between atoms: C_3  and  C_1 
REMARK    3  A    between atoms: N_18  and  C_2 
REMARK    4  A    between atoms: O_30  and  C_3 
REMARK    5  A    between atoms: C_6  and  C_4 
REMARK    6  A    between atoms: N_19  and  C_4 
REMARK    7  A    between atoms: C_7  and  C_5 
REMARK    8  A    between atoms: O_20  and  C_5 
REMARK    9  A    between atoms: C_9  and  C_6 
REMARK   10  A    between atoms: C_6  and  O_21 
REMARK   11  A    between atoms: C_9  and  C_7 
REMARK   12  A    between atoms: C_7  and  O_22 
REMARK   13  A    between atoms: C_9  and  O_23 
REMARK   14  A    between atoms: O_24  and  C_11 
REMARK   15  A    between atoms: O_25  and  C_12 
REMARK   16  A    between atoms: P_31  and  O_27 
REMARK   17  A    between atoms: P_31  and  O_28 
REMARK   18  A    between atoms: P_31  and  O_30 
ROOT
HETATM    1  C   UNK N   1      30.826  17.438   7.229  0.00  0.00     0.135 A 
HETATM    2  C   UNK N   1      29.589  17.578   6.681  0.00  0.00     0.146 A 
HETATM    3  C   UNK N   1      30.976  17.517   8.608  0.00  0.00     0.174 A 
HETATM    4  C   UNK N   1      28.616  17.862   8.782  0.00  0.00     0.224 A 
HETATM    5  C   UNK N   1      30.998  17.317   5.089  0.00  0.00     0.331 A 
HETATM    6  N   UNK N   1      28.479  17.794   7.424  0.00  0.00    -0.306 N 
ATOM      7  HN  UNK N   1      27.565  17.903   6.982  1.00  0.00     0.171 HD
HETATM    8  N   UNK N   1      29.855  17.727   9.364  0.00  0.00    -0.301 N 
ATOM      9  HN  UNK N   1      29.940  17.783  10.378  1.00  0.00     0.171 HD
HETATM   10  N   UNK N   1      31.731  17.265   6.241  0.00  0.00    -0.292 N 
HETATM   11  N   UNK N   1      29.673  17.518   5.344  0.00  0.00    -0.281 N 
HETATM   12  O   UNK N   1      31.474  17.225   3.970  0.00  0.00    -0.246 OA
ENDROOT
BRANCH  11  13
HETATM   13  C   UNK N   1      28.592  17.736   4.396  0.00  0.00     0.170 C 
BRANCH  13  14
HETATM   14  C   UNK N   1      27.648  16.535   4.450  0.00  0.00     0.168 C 
BRANCH  14  15
HETATM   15  C   UNK N   1      26.195  16.931   4.748  0.00  0.00     0.179 C 
BRANCH  15  16
HETATM   16  C   UNK N   1      25.381  15.810   5.430  0.00  0.00     0.173 C 
BRANCH  16  17
HETATM   17  C   UNK N   1      26.245  15.096   6.462  0.00  0.00     0.198 C 
BRANCH  17  18
HETATM   18  O   UNK N   1      26.283  15.824   7.651  0.00  0.00    -0.398 OA
HETATM   19  H   UNK N   1      25.474  16.120   8.098  0.00  0.00     0.209 HD
ENDBRANCH  17  18
ENDBRANCH  16  17
BRANCH  16  20
HETATM   20  O   UNK N   1      24.254  16.332   6.068  0.00  0.00    -0.391 OA
HETATM   21  H   UNK N   1      23.654  16.290   6.828  0.00  0.00     0.210 HD
ENDBRANCH  16  20
ENDBRANCH  15  16
BRANCH  15  22
HETATM   22  O   UNK N   1      26.215  18.051   5.586  0.00  0.00    -0.390 OA
HETATM   23  H   UNK N   1      26.373  18.385   6.482  0.00  0.00     0.210 HD
ENDBRANCH  15  22
ENDBRANCH  14  15
BRANCH  14  24
HETATM   24  O   UNK N   1      27.711  15.830   3.243  0.00  0.00    -0.391 OA
HETATM   25  H   UNK N   1      27.275  15.818   2.377  0.00  0.00     0.210 HD
ENDBRANCH  14  24
ENDBRANCH  13  14
ENDBRANCH  11  13
BRANCH  10  26
HETATM   26  C   UNK N   1      33.177  17.116   6.351  0.00  0.00     0.136 C 
BRANCH  26  27
HETATM   27  C   UNK N   1      33.565  15.652   6.547  0.00  0.00     0.047 C 
BRANCH  27  28
HETATM   28  C   UNK N   1      34.648  15.500   7.612  0.00  0.00     0.182 C 
BRANCH  28  29
HETATM   29  O   UNK N   1      34.064  15.417   8.883  0.00  0.00    -0.297 OA
BRANCH  29  30
HETATM   30  P   UNK N   1      35.298  15.830  10.037  0.00  0.00     0.390 P 
HETATM   31  O   UNK N   1      35.169  17.185   9.289  0.00  0.00    -0.632 OA
BRANCH  30  32
HETATM   32  O   UNK N   1      34.969  16.935  11.333  0.00  0.00    -0.307 OA
HETATM   33  H   UNK N   1      34.202  17.006  11.922  0.00  0.00     0.222 HD
ENDBRANCH  30  32
BRANCH  30  34
HETATM   34  O   UNK N   1      33.783  15.485  10.813  0.00  0.00    -0.307 OA
HETATM   35  H   UNK N   1      33.405  14.593  10.767  0.00  0.00     0.222 HD
ENDBRANCH  30  34
ENDBRANCH  29  30
ENDBRANCH  28  29
ENDBRANCH  27  28
ENDBRANCH  26  27
ENDBRANCH  10  26
BRANCH   3  36
HETATM   36  O   UNK N   1      32.179  17.411   9.193  0.00  0.00    -0.344 OA
HETATM   37  H   UNK N   1      32.981  17.768   8.865  0.00  0.00     0.219 HD
ENDBRANCH   3  36
BRANCH   4  38
HETATM   38  O   UNK N   1      27.536  18.073   9.551  0.00  0.00    -0.332 OA
HETATM   39  H   UNK N   1      27.150  18.923   9.621  0.00  0.00     0.221 HD
ENDBRANCH   4  38
TORSDOF 18
ENDMDL
MODEL 7
REMARK VINA RESULT:      -6.1      7.426      9.759
REMARK  18 active torsions:
REMARK  status: ('A' for Active; 'I' for Inactive)
REMARK    1  A    between atoms: C_2  and  C_1 
REMARK    2  A    between atoms: C_3  and  C_1 
REMARK    3  A    between atoms: N_18  and  C_2 
REMARK    4  A    between atoms: O_30  and  C_3 
REMARK    5  A    between atoms: C_6  and  C_4 
REMARK    6  A    between atoms: N_19  and  C_4 
REMARK    7  A    between atoms: C_7  and  C_5 
REMARK    8  A    between atoms: O_20  and  C_5 
REMARK    9  A    between atoms: C_9  and  C_6 
REMARK   10  A    between atoms: C_6  and  O_21 
REMARK   11  A    between atoms: C_9  and  C_7 
REMARK   12  A    between atoms: C_7  and  O_22 
REMARK   13  A    between atoms: C_9  and  O_23 
REMARK   14  A    between atoms: O_24  and  C_11 
REMARK   15  A    between atoms: O_25  and  C_12 
REMARK   16  A    between atoms: P_31  and  O_27 
REMARK   17  A    between atoms: P_31  and  O_28 
REMARK   18  A    between atoms: P_31  and  O_30 
ROOT
HETATM    1  C   UNK N   1      32.309  17.187   6.510  0.00  0.00     0.135 A 
HETATM    2  C   UNK N   1      31.029  17.369   6.089  0.00  0.00     0.146 A 
HETATM    3  C   UNK N   1      33.320  17.018   5.573  0.00  0.00     0.174 A 
HETATM    4  C   UNK N   1      31.677  17.240   3.851  0.00  0.00     0.224 A 
HETATM    5  C   UNK N   1      31.028  17.350   8.230  0.00  0.00     0.331 A 
HETATM    6  N   UNK N   1      30.686  17.395   4.780  0.00  0.00    -0.306 N 
ATOM      7  HN  UNK N   1      29.715  17.525   4.495  1.00  0.00     0.171 HD
HETATM    8  N   UNK N   1      32.980  17.052   4.249  0.00  0.00    -0.301 N 
ATOM      9  HN  UNK N   1      33.706  16.935   3.543  1.00  0.00     0.171 HD
HETATM   10  N   UNK N   1      32.332  17.178   7.862  0.00  0.00    -0.292 N 
HETATM   11  N   UNK N   1      30.208  17.461   7.145  0.00  0.00    -0.281 N 
HETATM   12  O   UNK N   1      30.641  17.371   9.386  0.00  0.00    -0.246 OA
ENDROOT
BRANCH  11  13
HETATM   13  C   UNK N   1      28.757  17.547   7.113  0.00  0.00     0.170 C 
BRANCH  13  14
HETATM   14  C   UNK N   1      28.340  18.923   7.633  0.00  0.00     0.168 C 
BRANCH  14  15
HETATM   15  C   UNK N   1      27.708  19.805   6.547  0.00  0.00     0.179 C 
BRANCH  15  16
HETATM   16  C   UNK N   1      27.375  19.037   5.250  0.00  0.00     0.173 C 
BRANCH  16  17
HETATM   17  C   UNK N   1      25.962  19.378   4.794  0.00  0.00     0.198 C 
BRANCH  17  18
HETATM   18  O   UNK N   1      25.045  18.483   5.345  0.00  0.00    -0.398 OA
HETATM   19  H   UNK N   1      24.141  18.750   5.574  0.00  0.00     0.209 HD
ENDBRANCH  17  18
ENDBRANCH  16  17
BRANCH  16  20
HETATM   20  O   UNK N   1      28.271  19.370   4.232  0.00  0.00    -0.391 OA
HETATM   21  H   UNK N   1      29.196  19.479   3.961  0.00  0.00     0.210 HD
ENDBRANCH  16  20
ENDBRANCH  15  16
BRANCH  15  22
HETATM   22  O   UNK N   1      26.530  20.353   7.065  0.00  0.00    -0.390 OA
HETATM   23  H   UNK N   1      25.673  20.760   6.864  0.00  0.00     0.210 HD
ENDBRANCH  15  22
ENDBRANCH  14  15
BRANCH  14  24
HETATM   24  O   UNK N   1      27.449  18.773   8.702  0.00  0.00    -0.391 OA
HETATM   25  H   UNK N   1      27.444  18.433   9.610  0.00  0.00     0.210 HD
ENDBRANCH  14  24
ENDBRANCH  13  14
ENDBRANCH  11  13
BRANCH  10  26
HETATM   26  C   UNK N   1      33.472  16.972   8.747  0.00  0.00     0.136 C 
BRANCH  26  27
HETATM   27  C   UNK N   1      33.497  15.544   9.288  0.00  0.00     0.047 C 
BRANCH  27  28
HETATM   28  C   UNK N   1      34.734  14.789   8.810  0.00  0.00     0.182 C 
BRANCH  28  29
HETATM   29  O   UNK N   1      35.859  15.201   9.538  0.00  0.00    -0.297 OA
BRANCH  29  30
HETATM   30  P   UNK N   1      35.440  15.094  11.223  0.00  0.00     0.390 P 
HETATM   31  O   UNK N   1      35.952  13.647  10.984  0.00  0.00    -0.632 OA
BRANCH  30  32
HETATM   32  O   UNK N   1      36.670  14.934  12.436  0.00  0.00    -0.307 OA
HETATM   33  H   UNK N   1      36.892  15.506  13.188  0.00  0.00     0.222 HD
ENDBRANCH  30  32
BRANCH  30  34
HETATM   34  O   UNK N   1      36.759  16.193  10.957  0.00  0.00    -0.307 OA
HETATM   35  H   UNK N   1      37.003  16.835  11.642  0.00  0.00     0.222 HD
ENDBRANCH  30  34
ENDBRANCH  29  30
ENDBRANCH  28  29
ENDBRANCH  27  28
ENDBRANCH  26  27
ENDBRANCH  10  26
BRANCH   3  36
HETATM   36  O   UNK N   1      34.594  16.809   5.942  0.00  0.00    -0.344 OA
HETATM   37  H   UNK N   1      34.876  16.286   6.666  0.00  0.00     0.219 HD
ENDBRANCH   3  36
BRANCH   4  38
HETATM   38  O   UNK N   1      31.374  17.263   2.543  0.00  0.00    -0.332 OA
HETATM   39  H   UNK N   1      30.649  17.763   2.223  0.00  0.00     0.221 HD
ENDBRANCH   4  38
TORSDOF 18
ENDMDL
MODEL 8
REMARK VINA RESULT:      -6.1      3.058      6.492
REMARK  18 active torsions:
REMARK  status: ('A' for Active; 'I' for Inactive)
REMARK    1  A    between atoms: C_2  and  C_1 
REMARK    2  A    between atoms: C_3  and  C_1 
REMARK    3  A    between atoms: N_18  and  C_2 
REMARK    4  A    between atoms: O_30  and  C_3 
REMARK    5  A    between atoms: C_6  and  C_4 
REMARK    6  A    between atoms: N_19  and  C_4 
REMARK    7  A    between atoms: C_7  and  C_5 
REMARK    8  A    between atoms: O_20  and  C_5 
REMARK    9  A    between atoms: C_9  and  C_6 
REMARK   10  A    between atoms: C_6  and  O_21 
REMARK   11  A    between atoms: C_9  and  C_7 
REMARK   12  A    between atoms: C_7  and  O_22 
REMARK   13  A    between atoms: C_9  and  O_23 
REMARK   14  A    between atoms: O_24  and  C_11 
REMARK   15  A    between atoms: O_25  and  C_12 
REMARK   16  A    between atoms: P_31  and  O_27 
REMARK   17  A    between atoms: P_31  and  O_28 
REMARK   18  A    between atoms: P_31  and  O_30 
ROOT
HETATM    1  C   UNK N   1      24.216  18.968   3.724  0.00  0.00     0.135 A 
HETATM    2  C   UNK N   1      23.038  18.423   4.131  0.00  0.00     0.146 A 
HETATM    3  C   UNK N   1      24.207  20.146   2.989  0.00  0.00     0.174 A 
HETATM    4  C   UNK N   1      21.820  20.146   3.136  0.00  0.00     0.224 A 
HETATM    5  C   UNK N   1      24.624  17.136   4.775  0.00  0.00     0.331 A 
HETATM    6  N   UNK N   1      21.838  18.981   3.850  0.00  0.00    -0.306 N 
ATOM      7  HN  UNK N   1      20.970  18.544   4.162  1.00  0.00     0.171 HD
HETATM    8  N   UNK N   1      22.996  20.719   2.710  0.00  0.00    -0.301 N 
ATOM      9  HN  UNK N   1      22.965  21.586   2.175  1.00  0.00     0.171 HD
HETATM   10  N   UNK N   1      25.233  18.174   4.126  0.00  0.00    -0.292 N 
HETATM   11  N   UNK N   1      23.266  17.272   4.779  0.00  0.00    -0.281 N 
HETATM   12  O   UNK N   1      25.220  16.191   5.263  0.00  0.00    -0.246 OA
ENDROOT
BRANCH  11  13
HETATM   13  C   UNK N   1      22.266  16.337   5.267  0.00  0.00     0.170 C 
BRANCH  13  14
HETATM   14  C   UNK N   1      22.066  16.578   6.764  0.00  0.00     0.168 C 
BRANCH  14  15
HETATM   15  C   UNK N   1      20.744  17.290   7.083  0.00  0.00     0.179 C 
BRANCH  15  16
HETATM   16  C   UNK N   1      20.174  16.934   8.472  0.00  0.00     0.173 C 
BRANCH  16  17
HETATM   17  C   UNK N   1      19.342  18.093   9.005  0.00  0.00     0.198 C 
BRANCH  17  18
HETATM   18  O   UNK N   1      20.149  18.990   9.705  0.00  0.00    -0.398 OA
HETATM   19  H   UNK N   1      20.468  18.801  10.601  0.00  0.00     0.209 HD
ENDBRANCH  17  18
ENDBRANCH  16  17
BRANCH  16  20
HETATM   20  O   UNK N   1      19.370  15.795   8.403  0.00  0.00    -0.391 OA
HETATM   21  H   UNK N   1      19.103  14.957   8.813  0.00  0.00     0.210 HD
ENDBRANCH  16  20
ENDBRANCH  15  16
BRANCH  15  22
HETATM   22  O   UNK N   1      20.971  18.670   7.025  0.00  0.00    -0.390 OA
HETATM   23  H   UNK N   1      20.840  19.527   7.459  0.00  0.00     0.210 HD
ENDBRANCH  15  22
ENDBRANCH  14  15
BRANCH  14  24
HETATM   24  O   UNK N   1      22.127  15.360   7.451  0.00  0.00    -0.391 OA
HETATM   25  H   UNK N   1      22.288  14.421   7.266  0.00  0.00     0.210 HD
ENDBRANCH  14  24
ENDBRANCH  13  14
ENDBRANCH  11  13
BRANCH  10  26
HETATM   26  C   UNK N   1      26.661  18.336   3.883  0.00  0.00     0.136 C 
BRANCH  26  27
HETATM   27  C   UNK N   1      27.284  19.299   4.890  0.00  0.00     0.047 C 
BRANCH  27  28
HETATM   28  C   UNK N   1      27.341  18.685   6.286  0.00  0.00     0.182 C 
BRANCH  28  29
HETATM   29  O   UNK N   1      28.558  18.013   6.466  0.00  0.00    -0.297 OA
BRANCH  29  30
HETATM   30  P   UNK N   1      28.684  17.636   8.160  0.00  0.00     0.390 P 
HETATM   31  O   UNK N   1      28.727  19.187   8.229  0.00  0.00    -0.632 OA
BRANCH  30  32
HETATM   32  O   UNK N   1      27.382  17.992   9.250  0.00  0.00    -0.307 OA
HETATM   33  H   UNK N   1      27.308  18.665   9.945  0.00  0.00     0.222 HD
ENDBRANCH  30  32
BRANCH  30  34
HETATM   34  O   UNK N   1      27.146  17.159   7.508  0.00  0.00    -0.307 OA
HETATM   35  H   UNK N   1      26.708  17.711   6.840  0.00  0.00     0.222 HD
ENDBRANCH  30  34
ENDBRANCH  29  30
ENDBRANCH  28  29
ENDBRANCH  27  28
ENDBRANCH  26  27
ENDBRANCH  10  26
BRANCH   3  36
HETATM   36  O   UNK N   1      25.342  20.708   2.543  0.00  0.00    -0.344 OA
HETATM   37  H   UNK N   1      25.449  21.606   2.298  0.00  0.00     0.219 HD
ENDBRANCH   3  36
BRANCH   4  38
HETATM   38  O   UNK N   1      20.647  20.730   2.841  0.00  0.00    -0.332 OA
HETATM   39  H   UNK N   1      20.283  21.391   3.397  0.00  0.00     0.221 HD
ENDBRANCH   4  38
TORSDOF 18
ENDMDL
MODEL 9
REMARK VINA RESULT:      -6.1      6.396      8.797
REMARK  18 active torsions:
REMARK  status: ('A' for Active; 'I' for Inactive)
REMARK    1  A    between atoms: C_2  and  C_1 
REMARK    2  A    between atoms: C_3  and  C_1 
REMARK    3  A    between atoms: N_18  and  C_2 
REMARK    4  A    between atoms: O_30  and  C_3 
REMARK    5  A    between atoms: C_6  and  C_4 
REMARK    6  A    between atoms: N_19  and  C_4 
REMARK    7  A    between atoms: C_7  and  C_5 
REMARK    8  A    between atoms: O_20  and  C_5 
REMARK    9  A    between atoms: C_9  and  C_6 
REMARK   10  A    between atoms: C_6  and  O_21 
REMARK   11  A    between atoms: C_9  and  C_7 
REMARK   12  A    between atoms: C_7  and  O_22 
REMARK   13  A    between atoms: C_9  and  O_23 
REMARK   14  A    between atoms: O_24  and  C_11 
REMARK   15  A    between atoms: O_25  and  C_12 
REMARK   16  A    between atoms: P_31  and  O_27 
REMARK   17  A    between atoms: P_31  and  O_28 
REMARK   18  A    between atoms: P_31  and  O_30 
ROOT
HETATM    1  C   UNK N   1      30.727  17.358   7.147  0.00  0.00     0.135 A 
HETATM    2  C   UNK N   1      29.475  17.281   6.621  0.00  0.00     0.146 A 
HETATM    3  C   UNK N   1      30.884  17.583   8.509  0.00  0.00     0.174 A 
HETATM    4  C   UNK N   1      28.503  17.630   8.713  0.00  0.00     0.224 A 
HETATM    5  C   UNK N   1      30.884  17.061   5.022  0.00  0.00     0.331 A 
HETATM    6  N   UNK N   1      28.357  17.417   7.370  0.00  0.00    -0.306 N 
ATOM      7  HN  UNK N   1      27.431  17.364   6.945  1.00  0.00     0.171 HD
HETATM    8  N   UNK N   1      29.756  17.713   9.272  0.00  0.00    -0.301 N 
ATOM      9  HN  UNK N   1      29.847  17.875  10.274  1.00  0.00     0.171 HD
HETATM   10  N   UNK N   1      31.633  17.214   6.155  0.00  0.00    -0.292 N 
HETATM   11  N   UNK N   1      29.547  17.109   5.293  0.00  0.00    -0.281 N 
HETATM   12  O   UNK N   1      31.352  16.929   3.905  0.00  0.00    -0.246 OA
ENDROOT
BRANCH  11  13
HETATM   13  C   UNK N   1      28.434  17.094   4.358  0.00  0.00     0.170 C 
BRANCH  13  14
HETATM   14  C   UNK N   1      27.340  18.020   4.890  0.00  0.00     0.168 C 
BRANCH  14  15
HETATM   15  C   UNK N   1      27.103  19.241   3.990  0.00  0.00     0.179 C 
BRANCH  15  16
HETATM   16  C   UNK N   1      26.053  20.224   4.552  0.00  0.00     0.173 C 
BRANCH  16  17
HETATM   17  C   UNK N   1      24.831  20.254   3.643  0.00  0.00     0.198 C 
BRANCH  17  18
HETATM   18  O   UNK N   1      25.172  20.760   2.389  0.00  0.00    -0.398 OA
HETATM   19  H   UNK N   1      25.374  20.180   1.638  0.00  0.00     0.209 HD
ENDBRANCH  17  18
ENDBRANCH  16  17
BRANCH  16  20
HETATM   20  O   UNK N   1      25.653  19.842   5.834  0.00  0.00    -0.391 OA
HETATM   21  H   UNK N   1      25.535  20.097   6.763  0.00  0.00     0.210 HD
ENDBRANCH  16  20
ENDBRANCH  15  16
BRANCH  15  22
HETATM   22  O   UNK N   1      28.321  19.914   3.842  0.00  0.00    -0.390 OA
HETATM   23  H   UNK N   1      29.226  20.024   4.172  0.00  0.00     0.210 HD
ENDBRANCH  15  22
ENDBRANCH  14  15
BRANCH  14  24
HETATM   24  O   UNK N   1      26.148  17.304   5.043  0.00  0.00    -0.391 OA
HETATM   25  H   UNK N   1      25.254  17.435   5.397  0.00  0.00     0.210 HD
ENDBRANCH  14  24
ENDBRANCH  13  14
ENDBRANCH  11  13
BRANCH  10  26
HETATM   26  C   UNK N   1      33.088  17.268   6.241  0.00  0.00     0.136 C 
BRANCH  26  27
HETATM   27  C   UNK N   1      33.679  15.873   6.428  0.00  0.00     0.047 C 
BRANCH  27  28
HETATM   28  C   UNK N   1      34.714  15.851   7.550  0.00  0.00     0.182 C 
BRANCH  28  29
HETATM   29  O   UNK N   1      34.073  15.744   8.791  0.00  0.00    -0.297 OA
BRANCH  29  30
HETATM   30  P   UNK N   1      35.269  16.080  10.010  0.00  0.00     0.390 P 
HETATM   31  O   UNK N   1      35.129  17.492   9.379  0.00  0.00    -0.632 OA
BRANCH  30  32
HETATM   32  O   UNK N   1      34.884  17.061  11.387  0.00  0.00    -0.307 OA
HETATM   33  H   UNK N   1      34.444  17.925  11.443  0.00  0.00     0.222 HD
ENDBRANCH  30  32
BRANCH  30  34
HETATM   34  O   UNK N   1      33.743  15.639  10.712  0.00  0.00    -0.307 OA
HETATM   35  H   UNK N   1      33.566  14.716  10.952  0.00  0.00     0.222 HD
ENDBRANCH  30  34
ENDBRANCH  29  30
ENDBRANCH  28  29
ENDBRANCH  27  28
ENDBRANCH  26  27
ENDBRANCH  10  26
BRANCH   3  36
HETATM   36  O   UNK N   1      32.099  17.692   9.070  0.00  0.00    -0.344 OA
HETATM   37  H   UNK N   1      32.612  18.475   9.118  0.00  0.00     0.219 HD
ENDBRANCH   3  36
BRANCH   4  38
HETATM   38  O   UNK N   1      27.414  17.767   9.488  0.00  0.00    -0.332 OA
HETATM   39  H   UNK N   1      27.365  17.355  10.328  0.00  0.00     0.221 HD
ENDBRANCH   4  38
TORSDOF 18
ENDMDL
