REMARK  13 active torsions:
REMARK  status: ('A' for Active; 'I' for Inactive)
REMARK    1  A    between atoms: N_2  and  C_4 
REMARK    2  A    between atoms: C_13  and  S_14 
REMARK    3  A    between atoms: S_14  and  N_17 
REMARK    4  A    between atoms: N_17  and  C_18 
REMARK    5  A    between atoms: C_18  and  C_19 
REMARK    6  A    between atoms: C_19  and  C_20 
REMARK    7  A    between atoms: C_20  and  C_21 
REMARK    8  A    between atoms: C_21  and  C_22 
REMARK    9  A    between atoms: C_22  and  C_23 
REMARK   10  A    between atoms: C_23  and  C_24 
REMARK   11  A    between atoms: C_24  and  C_25 
REMARK   12  A    between atoms: C_25  and  N_26 
REMARK       I    between atoms: N_26  and  C_27 
REMARK   13  A    between atoms: C_29  and  C_27 
ROOT
HETATM    1  C   UNK N   1      -1.039  -7.086  -1.376  0.00  0.00     0.020 C 
ENDROOT
BRANCH   1   2
HETATM    2  C   UNK N   1      -2.285  -7.704  -1.974  0.00  0.00     0.132 C 
BRANCH   2   3
HETATM    3  N   UNK N   1      -2.515  -9.006  -1.368  0.00  0.00    -0.315 N 
HETATM    4  H   UNK N   1      -2.079  -9.874  -1.678  0.00  0.00     0.172 HD
BRANCH   3   5
HETATM    5  S   UNK N   1      -3.659  -8.879  -0.013  0.00  0.00     0.259 S 
HETATM    6  O   UNK N   1      -2.822  -9.131   1.250  0.00  0.00    -0.201 OA
HETATM    7  O   UNK N   1      -4.050  -7.399   0.138  0.00  0.00    -0.201 OA
BRANCH   5   8
HETATM    8  C   UNK N   1      -5.091  -9.942  -0.113  0.00  0.00     0.090 A 
HETATM    9  C   UNK N   1      -6.347  -9.356  -0.256  0.00  0.00     0.026 A 
HETATM   10  C   UNK N   1      -7.484 -10.150  -0.359  0.00  0.00     0.003 A 
HETATM   11  C   UNK N   1      -7.368 -11.539  -0.329  0.00  0.00     0.014 A 
HETATM   12  C   UNK N   1      -6.121 -12.164  -0.190  0.00  0.00     0.002 A 
HETATM   13  C   UNK N   1      -4.962 -11.345  -0.076  0.00  0.00    -0.000 A 
HETATM   14  C   UNK N   1      -5.980 -13.589  -0.158  0.00  0.00     0.040 A 
HETATM   15  C   UNK N   1      -3.703 -11.933   0.068  0.00  0.00     0.014 A 
HETATM   16  C   UNK N   1      -3.566 -13.314   0.107  0.00  0.00     0.003 A 
HETATM   17  C   UNK N   1      -4.690 -14.127  -0.004  0.00  0.00     0.030 A 
BRANCH  14  18
HETATM   18  N   UNK N   1      -7.092 -14.503  -0.281  0.00  0.00    -0.389 N 
HETATM   19  C   UNK N   1      -6.865 -15.925  -0.195  0.00  0.00     0.149 C 
HETATM   20  C   UNK N   1      -8.444 -14.075  -0.523  0.00  0.00     0.149 C 
ENDBRANCH  14  18
ENDBRANCH   5   8
ENDBRANCH   3   5
ENDBRANCH   2   3
ENDBRANCH   1   2
BRANCH   1  21
HETATM   21  C   UNK N   1      -1.393  -6.428  -0.063  0.00  0.00     0.002 C 
BRANCH  21  22
HETATM   22  C   UNK N   1      -0.471  -6.914   1.033  0.00  0.00     0.000 C 
BRANCH  22  23
HETATM   23  C   UNK N   1      -0.374  -5.866   2.124  0.00  0.00     0.000 C 
BRANCH  23  24
HETATM   24  C   UNK N   1       0.424  -4.676   1.625  0.00  0.00     0.002 C 
BRANCH  24  25
HETATM   25  C   UNK N   1      -0.502  -3.661   0.981  0.00  0.00     0.020 C 
BRANCH  25  26
HETATM   26  C   UNK N   1      -0.389  -3.581  -0.545  0.00  0.00     0.122 C 
BRANCH  26  27
HETATM   27  N   UNK N   1       0.968  -3.640  -1.051  0.00  0.00    -0.360 N 
HETATM   28  C   UNK N   1       1.900  -2.641  -1.080  0.00  0.00     0.226 C 
HETATM   29  O   UNK N   1       2.935  -2.852  -1.696  0.00  0.00    -0.273 OA
HETATM   30  H   UNK N   1       1.254  -4.507  -1.418  0.00  0.00     0.162 HD
BRANCH  28  31
HETATM   31  C   UNK N   1       1.736  -1.264  -0.428  0.00  0.00     0.042 C 
HETATM   32  C   UNK N   1       0.542  -1.124   0.532  0.00  0.00     0.024 C 
HETATM   33  C   UNK N   1       0.470   0.264   1.166  0.00  0.00    -0.013 C 
HETATM   34  C   UNK N   1       1.768   0.535   1.939  0.00  0.00     0.009 C 
HETATM   35  C   UNK N   1       0.308   1.294   0.044  0.00  0.00     0.009 C 
HETATM   36  C   UNK N   1       2.967   0.449   0.986  0.00  0.00    -0.013 C 
HETATM   37  C   UNK N   1       3.019  -0.961   0.379  0.00  0.00     0.024 C 
HETATM   38  C   UNK N   1       2.797   1.486  -0.138  0.00  0.00     0.009 C 
HETATM   39  C   UNK N   1       1.505   1.209  -0.919  0.00  0.00    -0.013 C 
HETATM   40  C   UNK N   1       1.585  -0.200  -1.532  0.00  0.00     0.024 C 
ENDBRANCH  28  31
ENDBRANCH  26  27
ENDBRANCH  25  26
ENDBRANCH  24  25
ENDBRANCH  23  24
ENDBRANCH  22  23
ENDBRANCH  21  22
ENDBRANCH   1  21
TORSDOF 13
