MODEL 1
REMARK VINA RESULT:      -5.5      0.000      0.000
REMARK  5 active torsions:
REMARK  status: ('A' for Active; 'I' for Inactive)
REMARK    1  A    between atoms: C_5  and  C_3 
REMARK    2  A    between atoms: C_7  and  C_3 
REMARK    3  A    between atoms: C_9  and  C_7 
REMARK    4  A    between atoms: C_7  and  N_10 
REMARK    5  A    between atoms: O_13  and  C_9 
ROOT
HETATM    1  C   UNK N   1      24.215  20.372   2.929  0.00  0.00     0.014 A 
HETATM    2  C   UNK N   1      25.606  20.323   3.008  0.00  0.00     0.001 A 
HETATM    3  C   UNK N   1      22.600  18.027   5.083  0.00  0.00     0.096 A 
HETATM    4  C   UNK N   1      22.396  19.031   4.137  0.00  0.00    -0.028 A 
HETATM    5  C   UNK N   1      23.656  19.461   3.780  0.00  0.00     0.001 A 
HETATM    6  C   UNK N   1      24.536  18.745   4.483  0.00  0.00     0.070 A 
HETATM    7  N   UNK N   1      23.930  17.859   5.292  0.00  0.00    -0.363 N 
HETATM    8 Se   UNK N   1      26.283  19.085   4.208  0.00  0.00     0.000 Se
HETATM    9  H   UNK N   1      24.360  17.222   5.907  0.00  0.00     0.165 HD
ENDROOT
BRANCH   4  10
HETATM   10  C   UNK N   1      21.026  19.453   3.681  0.00  0.00     0.076 C 
BRANCH  10  11
HETATM   11  C   UNK N   1      20.548  19.039   2.286  0.00  0.00     0.177 C 
BRANCH  11  12
HETATM   12  C   UNK N   1      20.761  20.175   1.318  0.00  0.00     0.163 C 
HETATM   13  O   UNK N   1      21.051  21.284   1.737  0.00  0.00    -0.648 OA
BRANCH  12  14
HETATM   14  O   UNK N   1      20.634  19.985  -0.012  0.00  0.00    -0.775 OA
HETATM   15  H   UNK N   1      19.954  19.448  -0.369  0.00  0.00     0.167 HD
ENDBRANCH  12  14
ENDBRANCH  11  12
BRANCH  11  16
HETATM   16  N   UNK N   1      19.134  18.702   2.314  0.00  0.00    -0.417 N 
HETATM   17  H   UNK N   1      18.253  19.217   2.302  0.00  0.00     0.150 HD
HETATM   18  H   UNK N   1      18.984  17.694   2.355  0.00  0.00     0.150 HD
ENDBRANCH  11  16
ENDBRANCH  10  11
ENDBRANCH   4  10
TORSDOF 5
ENDMDL
MODEL 2
REMARK VINA RESULT:      -5.3     18.382     20.154
REMARK  5 active torsions:
REMARK  status: ('A' for Active; 'I' for Inactive)
REMARK    1  A    between atoms: C_5  and  C_3 
REMARK    2  A    between atoms: C_7  and  C_3 
REMARK    3  A    between atoms: C_9  and  C_7 
REMARK    4  A    between atoms: C_7  and  N_10 
REMARK    5  A    between atoms: O_13  and  C_9 
ROOT
HETATM    1  C   UNK N   1      35.255  10.328  17.603  0.00  0.00     0.014 A 
HETATM    2  C   UNK N   1      35.320   9.657  18.823  0.00  0.00     0.001 A 
HETATM    3  C   UNK N   1      35.229  13.881  17.950  0.00  0.00     0.096 A 
HETATM    4  C   UNK N   1      35.199  12.827  17.038  0.00  0.00    -0.028 A 
HETATM    5  C   UNK N   1      35.257  11.680  17.800  0.00  0.00     0.001 A 
HETATM    6  C   UNK N   1      35.321  12.055  19.080  0.00  0.00     0.070 A 
HETATM    7  N   UNK N   1      35.308  13.392  19.213  0.00  0.00    -0.363 N 
HETATM    8 Se   UNK N   1      35.395  10.749  20.319  0.00  0.00     0.000 Se
HETATM    9  H   UNK N   1      35.347  13.908  20.050  0.00  0.00     0.165 HD
ENDROOT
BRANCH   4  10
HETATM   10  C   UNK N   1      35.106  13.039  15.552  0.00  0.00     0.076 C 
BRANCH  10  11
HETATM   11  C   UNK N   1      36.241  13.774  14.834  0.00  0.00     0.177 C 
BRANCH  11  12
HETATM   12  C   UNK N   1      35.814  14.119  13.429  0.00  0.00     0.163 C 
HETATM   13  O   UNK N   1      34.782  13.652  12.976  0.00  0.00    -0.648 OA
BRANCH  12  14
HETATM   14  O   UNK N   1      36.561  14.940  12.660  0.00  0.00    -0.775 OA
HETATM   15  H   UNK N   1      37.467  15.094  12.842  0.00  0.00     0.167 HD
ENDBRANCH  12  14
ENDBRANCH  11  12
BRANCH  11  16
HETATM   16  N   UNK N   1      37.429  12.938  14.774  0.00  0.00    -0.417 N 
HETATM   17  H   UNK N   1      37.726  12.049  15.177  0.00  0.00     0.150 HD
HETATM   18  H   UNK N   1      38.149  13.343  14.177  0.00  0.00     0.150 HD
ENDBRANCH  11  16
ENDBRANCH  10  11
ENDBRANCH   4  10
TORSDOF 5
ENDMDL
MODEL 3
REMARK VINA RESULT:      -5.0      8.331     10.085
REMARK  5 active torsions:
REMARK  status: ('A' for Active; 'I' for Inactive)
REMARK    1  A    between atoms: C_5  and  C_3 
REMARK    2  A    between atoms: C_7  and  C_3 
REMARK    3  A    between atoms: C_9  and  C_7 
REMARK    4  A    between atoms: C_7  and  N_10 
REMARK    5  A    between atoms: O_13  and  C_9 
ROOT
HETATM    1  C   UNK N   1      20.665  14.639   9.336  0.00  0.00     0.014 A 
HETATM    2  C   UNK N   1      20.159  15.726   8.625  0.00  0.00     0.001 A 
HETATM    3  C   UNK N   1      23.517  13.150   7.791  0.00  0.00     0.096 A 
HETATM    4  C   UNK N   1      22.650  13.085   8.881  0.00  0.00    -0.028 A 
HETATM    5  C   UNK N   1      21.757  14.119   8.702  0.00  0.00     0.001 A 
HETATM    6  C   UNK N   1      22.095  14.747   7.573  0.00  0.00     0.070 A 
HETATM    7  N   UNK N   1      23.167  14.185   6.988  0.00  0.00    -0.363 N 
HETATM    8 Se   UNK N   1      21.082  16.150   7.075  0.00  0.00     0.000 Se
HETATM    9  H   UNK N   1      23.605  14.466   6.153  0.00  0.00     0.165 HD
ENDROOT
BRANCH   4  10
HETATM   10  C   UNK N   1      22.769  12.038   9.954  0.00  0.00     0.076 C 
BRANCH  10  11
HETATM   11  C   UNK N   1      22.494  12.431  11.409  0.00  0.00     0.177 C 
BRANCH  11  12
HETATM   12  C   UNK N   1      23.711  12.143  12.252  0.00  0.00     0.163 C 
HETATM   13  O   UNK N   1      23.588  11.949  13.451  0.00  0.00    -0.648 OA
BRANCH  12  14
HETATM   14  O   UNK N   1      24.941  12.096  11.698  0.00  0.00    -0.775 OA
HETATM   15  H   UNK N   1      25.444  12.872  11.554  0.00  0.00     0.167 HD
ENDBRANCH  12  14
ENDBRANCH  11  12
BRANCH  11  16
HETATM   16  N   UNK N   1      21.367  11.677  11.934  0.00  0.00    -0.417 N 
HETATM   17  H   UNK N   1      21.197  10.714  12.226  0.00  0.00     0.150 HD
HETATM   18  H   UNK N   1      20.536  12.258  12.038  0.00  0.00     0.150 HD
ENDBRANCH  11  16
ENDBRANCH  10  11
ENDBRANCH   4  10
TORSDOF 5
ENDMDL
MODEL 4
REMARK VINA RESULT:      -5.0      8.783     10.917
REMARK  5 active torsions:
REMARK  status: ('A' for Active; 'I' for Inactive)
REMARK    1  A    between atoms: C_5  and  C_3 
REMARK    2  A    between atoms: C_7  and  C_3 
REMARK    3  A    between atoms: C_9  and  C_7 
REMARK    4  A    between atoms: C_7  and  N_10 
REMARK    5  A    between atoms: O_13  and  C_9 
ROOT
HETATM    1  C   UNK N   1      29.146  17.771   7.420  0.00  0.00     0.014 A 
HETATM    2  C   UNK N   1      27.947  18.277   6.923  0.00  0.00     0.001 A 
HETATM    3  C   UNK N   1      31.553  17.094   4.872  0.00  0.00     0.096 A 
HETATM    4  C   UNK N   1      31.308  17.056   6.244  0.00  0.00    -0.028 A 
HETATM    5  C   UNK N   1      30.027  17.541   6.401  0.00  0.00     0.001 A 
HETATM    6  C   UNK N   1      29.563  17.844   5.187  0.00  0.00     0.070 A 
HETATM    7  N   UNK N   1      30.467  17.587   4.226  0.00  0.00    -0.363 N 
HETATM    8 Se   UNK N   1      27.887  18.496   5.083  0.00  0.00     0.000 Se
HETATM    9  H   UNK N   1      30.362  17.726   3.257  0.00  0.00     0.165 HD
ENDROOT
BRANCH   4  10
HETATM   10  C   UNK N   1      32.318  16.552   7.237  0.00  0.00     0.076 C 
BRANCH  10  11
HETATM   11  C   UNK N   1      32.930  17.536   8.238  0.00  0.00     0.177 C 
BRANCH  11  12
HETATM   12  C   UNK N   1      34.181  18.143   7.653  0.00  0.00     0.163 C 
HETATM   13  O   UNK N   1      34.790  18.999   8.275  0.00  0.00    -0.648 OA
BRANCH  12  14
HETATM   14  O   UNK N   1      34.641  17.752   6.445  0.00  0.00    -0.775 OA
HETATM   15  H   UNK N   1      35.494  17.381   6.341  0.00  0.00     0.167 HD
ENDBRANCH  12  14
ENDBRANCH  11  12
BRANCH  11  16
HETATM   16  N   UNK N   1      33.271  16.855   9.477  0.00  0.00    -0.417 N 
HETATM   17  H   UNK N   1      34.072  16.831  10.108  0.00  0.00     0.150 HD
HETATM   18  H   UNK N   1      32.518  16.246   9.795  0.00  0.00     0.150 HD
ENDBRANCH  11  16
ENDBRANCH  10  11
ENDBRANCH   4  10
TORSDOF 5
ENDMDL
MODEL 5
REMARK VINA RESULT:      -4.9     11.306     12.361
REMARK  5 active torsions:
REMARK  status: ('A' for Active; 'I' for Inactive)
REMARK    1  A    between atoms: C_5  and  C_3 
REMARK    2  A    between atoms: C_7  and  C_3 
REMARK    3  A    between atoms: C_9  and  C_7 
REMARK    4  A    between atoms: C_7  and  N_10 
REMARK    5  A    between atoms: O_13  and  C_9 
ROOT
HETATM    1  C   UNK N   1      27.813  28.927  -6.260  0.00  0.00     0.014 A 
HETATM    2  C   UNK N   1      28.304  30.188  -5.925  0.00  0.00     0.001 A 
HETATM    3  C   UNK N   1      25.458  27.660  -3.894  0.00  0.00     0.096 A 
HETATM    4  C   UNK N   1      26.128  27.393  -5.088  0.00  0.00    -0.028 A 
HETATM    5  C   UNK N   1      26.913  28.501  -5.324  0.00  0.00     0.001 A 
HETATM    6  C   UNK N   1      26.703  29.359  -4.324  0.00  0.00     0.070 A 
HETATM    7  N   UNK N   1      25.819  28.883  -3.430  0.00  0.00    -0.363 N 
HETATM    8 Se   UNK N   1      27.618  30.911  -4.363  0.00  0.00     0.000 Se
HETATM    9  H   UNK N   1      25.502  29.327  -2.611  0.00  0.00     0.165 HD
ENDROOT
BRANCH   4  10
HETATM   10  C   UNK N   1      25.948  26.111  -5.852  0.00  0.00     0.076 C 
BRANCH  10  11
HETATM   11  C   UNK N   1      25.576  24.836  -5.088  0.00  0.00     0.177 C 
BRANCH  11  12
HETATM   12  C   UNK N   1      26.722  24.426  -4.197  0.00  0.00     0.163 C 
HETATM   13  O   UNK N   1      27.798  24.128  -4.690  0.00  0.00    -0.648 OA
BRANCH  12  14
HETATM   14  O   UNK N   1      26.575  24.381  -2.856  0.00  0.00    -0.775 OA
HETATM   15  H   UNK N   1      25.766  24.608  -2.444  0.00  0.00     0.167 HD
ENDBRANCH  12  14
ENDBRANCH  11  12
BRANCH  11  16
HETATM   16  N   UNK N   1      25.289  23.754  -6.016  0.00  0.00    -0.417 N 
HETATM   17  H   UNK N   1      25.439  22.745  -6.040  0.00  0.00     0.150 HD
HETATM   18  H   UNK N   1      24.818  24.088  -6.855  0.00  0.00     0.150 HD
ENDBRANCH  11  16
ENDBRANCH  10  11
ENDBRANCH   4  10
TORSDOF 5
ENDMDL
MODEL 6
REMARK VINA RESULT:      -4.8      9.458     11.286
REMARK  5 active torsions:
REMARK  status: ('A' for Active; 'I' for Inactive)
REMARK    1  A    between atoms: C_5  and  C_3 
REMARK    2  A    between atoms: C_7  and  C_3 
REMARK    3  A    between atoms: C_9  and  C_7 
REMARK    4  A    between atoms: C_7  and  N_10 
REMARK    5  A    between atoms: O_13  and  C_9 
ROOT
HETATM    1  C   UNK N   1      32.548  14.894   9.070  0.00  0.00     0.014 A 
HETATM    2  C   UNK N   1      33.691  14.199   9.461  0.00  0.00     0.001 A 
HETATM    3  C   UNK N   1      33.169  18.334   8.347  0.00  0.00     0.096 A 
HETATM    4  C   UNK N   1      32.191  17.342   8.402  0.00  0.00    -0.028 A 
HETATM    5  C   UNK N   1      32.850  16.199   8.800  0.00  0.00     0.001 A 
HETATM    6  C   UNK N   1      34.137  16.515   8.960  0.00  0.00     0.070 A 
HETATM    7  N   UNK N   1      34.372  17.811   8.692  0.00  0.00    -0.363 N 
HETATM    8 Se   UNK N   1      35.248  15.203   9.496  0.00  0.00     0.000 Se
HETATM    9  H   UNK N   1      35.235  18.281   8.737  0.00  0.00     0.165 HD
ENDROOT
BRANCH   4  10
HETATM   10  C   UNK N   1      30.746  17.605   8.081  0.00  0.00     0.076 C 
BRANCH  10  11
HETATM   11  C   UNK N   1      29.714  17.568   9.213  0.00  0.00     0.177 C 
BRANCH  11  12
HETATM   12  C   UNK N   1      28.324  17.659   8.635  0.00  0.00     0.163 C 
HETATM   13  O   UNK N   1      28.084  17.160   7.547  0.00  0.00    -0.648 OA
BRANCH  12  14
HETATM   14  O   UNK N   1      27.335  18.287   9.307  0.00  0.00    -0.775 OA
HETATM   15  H   UNK N   1      26.950  19.078   8.986  0.00  0.00     0.167 HD
ENDBRANCH  12  14
ENDBRANCH  11  12
BRANCH  11  16
HETATM   16  N   UNK N   1      29.920  18.683  10.123  0.00  0.00    -0.417 N 
HETATM   17  H   UNK N   1      30.083  18.797  11.124  0.00  0.00     0.150 HD
HETATM   18  H   UNK N   1      29.895  19.579   9.638  0.00  0.00     0.150 HD
ENDBRANCH  11  16
ENDBRANCH  10  11
ENDBRANCH   4  10
TORSDOF 5
ENDMDL
MODEL 7
REMARK VINA RESULT:      -4.8      7.919      9.973
REMARK  5 active torsions:
REMARK  status: ('A' for Active; 'I' for Inactive)
REMARK    1  A    between atoms: C_5  and  C_3 
REMARK    2  A    between atoms: C_7  and  C_3 
REMARK    3  A    between atoms: C_9  and  C_7 
REMARK    4  A    between atoms: C_7  and  N_10 
REMARK    5  A    between atoms: O_13  and  C_9 
ROOT
HETATM    1  C   UNK N   1      29.196  17.986   5.300  0.00  0.00     0.014 A 
HETATM    2  C   UNK N   1      28.146  18.635   4.651  0.00  0.00     0.001 A 
HETATM    3  C   UNK N   1      29.016  18.227   8.857  0.00  0.00     0.096 A 
HETATM    4  C   UNK N   1      29.752  17.719   7.787  0.00  0.00    -0.028 A 
HETATM    5  C   UNK N   1      29.068  18.106   6.655  0.00  0.00     0.001 A 
HETATM    6  C   UNK N   1      27.995  18.794   7.052  0.00  0.00     0.070 A 
HETATM    7  N   UNK N   1      27.927  18.889   8.392  0.00  0.00    -0.363 N 
HETATM    8 Se   UNK N   1      26.909  19.442   5.770  0.00  0.00     0.000 Se
HETATM    9  H   UNK N   1      27.234  19.343   8.922  0.00  0.00     0.165 HD
ENDROOT
BRANCH   4  10
HETATM   10  C   UNK N   1      31.023  16.938   7.972  0.00  0.00     0.076 C 
BRANCH  10  11
HETATM   11  C   UNK N   1      32.343  17.696   8.145  0.00  0.00     0.177 C 
BRANCH  11  12
HETATM   12  C   UNK N   1      33.136  17.634   6.863  0.00  0.00     0.163 C 
HETATM   13  O   UNK N   1      34.296  18.011   6.848  0.00  0.00    -0.648 OA
BRANCH  12  14
HETATM   14  O   UNK N   1      32.578  17.165   5.726  0.00  0.00    -0.775 OA
HETATM   15  H   UNK N   1      33.039  17.181   4.911  0.00  0.00     0.167 HD
ENDBRANCH  12  14
ENDBRANCH  11  12
BRANCH  11  16
HETATM   16  N   UNK N   1      33.131  17.108   9.216  0.00  0.00    -0.417 N 
HETATM   17  H   UNK N   1      33.925  17.393   9.788  0.00  0.00     0.150 HD
HETATM   18  H   UNK N   1      32.806  16.172   9.456  0.00  0.00     0.150 HD
ENDBRANCH  11  16
ENDBRANCH  10  11
ENDBRANCH   4  10
TORSDOF 5
ENDMDL
MODEL 8
REMARK VINA RESULT:      -4.7      8.440      9.793
REMARK  5 active torsions:
REMARK  status: ('A' for Active; 'I' for Inactive)
REMARK    1  A    between atoms: C_5  and  C_3 
REMARK    2  A    between atoms: C_7  and  C_3 
REMARK    3  A    between atoms: C_9  and  C_7 
REMARK    4  A    between atoms: C_7  and  N_10 
REMARK    5  A    between atoms: O_13  and  C_9 
ROOT
HETATM    1  C   UNK N   1      32.005  16.873   8.286  0.00  0.00     0.014 A 
HETATM    2  C   UNK N   1      33.376  16.627   8.243  0.00  0.00     0.001 A 
HETATM    3  C   UNK N   1      30.562  17.370   5.059  0.00  0.00     0.096 A 
HETATM    4  C   UNK N   1      30.299  17.318   6.427  0.00  0.00    -0.028 A 
HETATM    5  C   UNK N   1      31.510  17.045   7.024  0.00  0.00     0.001 A 
HETATM    6  C   UNK N   1      32.420  16.942   6.053  0.00  0.00     0.070 A 
HETATM    7  N   UNK N   1      31.879  17.133   4.837  0.00  0.00    -0.363 N 
HETATM    8 Se   UNK N   1      34.118  16.598   6.545  0.00  0.00     0.000 Se
HETATM    9  H   UNK N   1      32.341  17.106   3.969  0.00  0.00     0.165 HD
ENDROOT
BRANCH   4  10
HETATM   10  C   UNK N   1      28.927  17.546   7.001  0.00  0.00     0.076 C 
BRANCH  10  11
HETATM   11  C   UNK N   1      28.716  18.700   7.986  0.00  0.00     0.177 C 
BRANCH  11  12
HETATM   12  C   UNK N   1      28.700  18.167   9.397  0.00  0.00     0.163 C 
HETATM   13  O   UNK N   1      27.859  17.346   9.726  0.00  0.00    -0.648 OA
BRANCH  12  14
HETATM   14  O   UNK N   1      29.605  18.587  10.306  0.00  0.00    -0.775 OA
HETATM   15  H   UNK N   1      30.461  18.869  10.052  0.00  0.00     0.167 HD
ENDBRANCH  12  14
ENDBRANCH  11  12
BRANCH  11  16
HETATM   16  N   UNK N   1      27.453  19.369   7.720  0.00  0.00    -0.417 N 
HETATM   17  H   UNK N   1      26.518  19.368   8.128  0.00  0.00     0.150 HD
HETATM   18  H   UNK N   1      27.519  20.003   6.924  0.00  0.00     0.150 HD
ENDBRANCH  11  16
ENDBRANCH  10  11
ENDBRANCH   4  10
TORSDOF 5
ENDMDL
MODEL 9
REMARK VINA RESULT:      -4.7     15.883     17.487
REMARK  5 active torsions:
REMARK  status: ('A' for Active; 'I' for Inactive)
REMARK    1  A    between atoms: C_5  and  C_3 
REMARK    2  A    between atoms: C_7  and  C_3 
REMARK    3  A    between atoms: C_9  and  C_7 
REMARK    4  A    between atoms: C_7  and  N_10 
REMARK    5  A    between atoms: O_13  and  C_9 
ROOT
HETATM    1  C   UNK N   1      35.402  13.222  15.877  0.00  0.00     0.014 A 
HETATM    2  C   UNK N   1      35.248  12.211  16.825  0.00  0.00     0.001 A 
HETATM    3  C   UNK N   1      34.979  12.082  12.521  0.00  0.00     0.096 A 
HETATM    4  C   UNK N   1      35.252  13.192  13.319  0.00  0.00    -0.028 A 
HETATM    5  C   UNK N   1      35.221  12.728  14.616  0.00  0.00     0.001 A 
HETATM    6  C   UNK N   1      34.941  11.424  14.567  0.00  0.00     0.070 A 
HETATM    7  N   UNK N   1      34.784  10.992  13.303  0.00  0.00    -0.363 N 
HETATM    8 Se   UNK N   1      34.847  10.540  16.133  0.00  0.00     0.000 Se
HETATM    9  H   UNK N   1      34.573  10.077  13.009  0.00  0.00     0.165 HD
ENDROOT
BRANCH   4  10
HETATM   10  C   UNK N   1      35.522  14.558  12.750  0.00  0.00     0.076 C 
BRANCH  10  11
HETATM   11  C   UNK N   1      35.200  14.825  11.277  0.00  0.00     0.177 C 
BRANCH  11  12
HETATM   12  C   UNK N   1      35.975  16.027  10.798  0.00  0.00     0.163 C 
HETATM   13  O   UNK N   1      35.388  17.065  10.537  0.00  0.00    -0.648 OA
BRANCH  12  14
HETATM   14  O   UNK N   1      37.316  15.973  10.652  0.00  0.00    -0.775 OA
HETATM   15  H   UNK N   1      37.770  16.549  10.069  0.00  0.00     0.167 HD
ENDBRANCH  12  14
ENDBRANCH  11  12
BRANCH  11  16
HETATM   16  N   UNK N   1      33.779  15.082  11.106  0.00  0.00    -0.417 N 
HETATM   17  H   UNK N   1      33.078  15.672  11.554  0.00  0.00     0.150 HD
HETATM   18  H   UNK N   1      33.383  14.534  10.343  0.00  0.00     0.150 HD
ENDBRANCH  11  16
ENDBRANCH  10  11
ENDBRANCH   4  10
TORSDOF 5
ENDMDL
