REMARK  6 active torsions:
REMARK  status: ('A' for Active; 'I' for Inactive)
REMARK    1  A    between atoms: O_1  and  N_2 
REMARK       I    between atoms: N_2  and  C_3 
REMARK    2  A    between atoms: C_3  and  C_5 
REMARK    3  A    between atoms: C_5  and  O_6 
REMARK    4  A    between atoms: O_6  and  P_7 
REMARK    5  A    between atoms: P_7  and  O_8 
REMARK    6  A    between atoms: P_7  and  O_9 
ROOT
HETATM    1  C   UNK N   1       3.846  -1.090  -0.238  0.00  0.00     0.285 C 
ENDROOT
BRANCH   1   2
HETATM    2  C   UNK N   1       2.587  -1.875  -0.046  0.00  0.00     0.265 C 
HETATM    3  N   UNK N   1       1.396  -1.254  -0.190  0.00  0.00    -0.236 N 
HETATM    4  H   UNK N   1       1.374  -0.301  -0.436  0.00  0.00     0.197 HD
HETATM    5  O   UNK N   1       2.632  -3.063   0.250  0.00  0.00    -0.269 OA
BRANCH   3   6
HETATM    6  O   UNK N   1       0.245  -1.913  -0.004  0.00  0.00    -0.287 OA
HETATM    7  H   UNK N   1      -0.585  -1.430   0.130  0.00  0.00     0.244 HD
ENDBRANCH   3   6
ENDBRANCH   1   2
BRANCH   1   8
HETATM    8  O   UNK N   1       4.970  -1.768   0.258  0.00  0.00    -0.288 OA
BRANCH   8   9
HETATM    9  P   UNK N   1       6.330  -1.121  -0.622  0.00  0.00     0.391 P 
HETATM   10  O   UNK N   1       6.268  -0.096   0.545  0.00  0.00    -0.632 OA
BRANCH   9  11
HETATM   11  O   UNK N   1       7.954  -1.155  -0.012  0.00  0.00    -0.307 OA
HETATM   12  H   UNK N   1       8.392  -1.951   0.329  0.00  0.00     0.222 HD
ENDBRANCH   9  11
BRANCH   9  13
HETATM   13  O   UNK N   1       6.731  -2.666   0.062  0.00  0.00    -0.307 OA
HETATM   14  H   UNK N   1       6.096  -3.292   0.444  0.00  0.00     0.222 HD
ENDBRANCH   9  13
ENDBRANCH   8   9
ENDBRANCH   1   8
TORSDOF 6
