MODEL 1
REMARK VINA RESULT:      -6.2      0.000      0.000
REMARK  7 active torsions:
REMARK  status: ('A' for Active; 'I' for Inactive)
REMARK    1  A    between atoms: C_4  and  C_1 
REMARK    2  A    between atoms: O_22  and  C_1 
REMARK    3  A    between atoms: C_6  and  O_19 
REMARK    4  A    between atoms: O_20  and  C_7 
REMARK    5  A    between atoms: N_11  and  C_8 
REMARK    6  A    between atoms: C_10  and  N_18 
REMARK    7  A    between atoms: P_24  and  O_22 
ROOT
HETATM    1  C   UNK N   1      33.613  16.040   9.352  0.00  0.00     0.179 C 
HETATM    2  C   UNK N   1      34.671  16.434   8.330  0.00  0.00     0.182 C 
HETATM    3  C   UNK N   1      33.763  17.067   7.292  0.00  0.00     0.198 C 
HETATM    4  C   UNK N   1      32.582  16.077   7.330  0.00  0.00     0.262 C 
HETATM    5  O   UNK N   1      32.562  15.478   8.614  0.00  0.00    -0.353 OA
ENDROOT
BRANCH   4   6
HETATM    6  N   UNK N   1      31.269  16.687   7.083  0.00  0.00    -0.297 N 
HETATM    7  C   UNK N   1      30.672  16.752   5.861  0.00  0.00     0.188 A 
HETATM    8  N   UNK N   1      29.485  17.410   5.914  0.00  0.00    -0.346 N 
HETATM    9  C   UNK N   1      29.360  17.760   7.204  0.00  0.00     0.122 A 
ATOM     10  HN  UNK N   1      28.836  17.597   5.149  1.00  0.00     0.167 HD
HETATM   11  C   UNK N   1      28.356  18.477   7.823  0.00  0.00     0.131 A 
HETATM   12  C   UNK N   1      30.425  17.321   7.911  0.00  0.00     0.142 A 
HETATM   13  N   UNK N   1      28.475  18.717   9.162  0.00  0.00    -0.337 N 
HETATM   14  C   UNK N   1      29.565  18.258   9.868  0.00  0.00     0.183 A 
ATOM     15  HN  UNK N   1      27.748  19.244   9.645  1.00  0.00     0.168 HD
HETATM   16  N   UNK N   1      30.559  17.553   9.238  0.00  0.00    -0.336 N 
ATOM     17  HN  UNK N   1      31.373  17.215   9.752  1.00  0.00     0.168 HD
BRANCH  11  18
HETATM   18  N   UNK N   1      27.248  18.961   7.096  0.00  0.00    -0.383 N 
HETATM   19  H   UNK N   1      26.393  18.474   7.077  0.00  0.00     0.157 HD
HETATM   20  H   UNK N   1      27.332  19.806   6.597  0.00  0.00     0.157 HD
ENDBRANCH  11  18
ENDBRANCH   4   6
BRANCH   3  21
HETATM   21  O   UNK N   1      33.358  18.327   7.749  0.00  0.00    -0.388 OA
HETATM   22  H   UNK N   1      32.835  18.978   8.243  0.00  0.00     0.210 HD
ENDBRANCH   3  21
BRANCH   2  23
HETATM   23  O   UNK N   1      35.271  15.285   7.798  0.00  0.00    -0.390 OA
HETATM   24  H   UNK N   1      35.336  14.638   7.078  0.00  0.00     0.210 HD
ENDBRANCH   2  23
BRANCH   1  25
HETATM   25  C   UNK N   1      34.043  15.012  10.398  0.00  0.00     0.211 C 
BRANCH  25  26
HETATM   26  O   UNK N   1      35.408  15.021  10.731  0.00  0.00    -0.324 OA
BRANCH  26  27
HETATM   27  P   UNK N   1      35.899  13.403  11.215  0.00  0.00     0.243 P 
HETATM   28  O   UNK N   1      37.495  13.552  11.881  0.00  0.00    -0.337 OA
HETATM   29  H   UNK N   1      38.248  13.068  11.509  0.00  0.00     0.218 HD
HETATM   30  S   UNK N   1      37.700  13.788  10.059  0.00  0.00    -0.087 SA
HETATM   31  H   UNK N   1      38.189  13.956   8.801  0.00  0.00     0.111 HD
HETATM   32  S   UNK N   1      35.718  14.037  12.857  0.00  0.00    -0.026 SA
ENDBRANCH  26  27
ENDBRANCH  25  26
ENDBRANCH   1  25
TORSDOF 7
ENDMDL
MODEL 2
REMARK VINA RESULT:      -5.9      5.451      7.960
REMARK  7 active torsions:
REMARK  status: ('A' for Active; 'I' for Inactive)
REMARK    1  A    between atoms: C_4  and  C_1 
REMARK    2  A    between atoms: O_22  and  C_1 
REMARK    3  A    between atoms: C_6  and  O_19 
REMARK    4  A    between atoms: O_20  and  C_7 
REMARK    5  A    between atoms: N_11  and  C_8 
REMARK    6  A    between atoms: C_10  and  N_18 
REMARK    7  A    between atoms: P_24  and  O_22 
ROOT
HETATM    1  C   UNK N   1      35.009  15.600   8.743  0.00  0.00     0.179 C 
HETATM    2  C   UNK N   1      35.014  16.896   9.544  0.00  0.00     0.182 C 
HETATM    3  C   UNK N   1      35.488  16.342  10.875  0.00  0.00     0.198 C 
HETATM    4  C   UNK N   1      34.689  15.025  10.916  0.00  0.00     0.262 C 
HETATM    5  O   UNK N   1      34.421  14.640   9.580  0.00  0.00    -0.353 OA
ENDROOT
BRANCH   4   6
HETATM    6  N   UNK N   1      35.380  13.915  11.588  0.00  0.00    -0.297 N 
HETATM    7  C   UNK N   1      35.436  12.644  11.106  0.00  0.00     0.188 A 
HETATM    8  N   UNK N   1      36.098  11.813  11.952  0.00  0.00    -0.346 N 
HETATM    9  C   UNK N   1      36.449  12.600  12.980  0.00  0.00     0.122 A 
ATOM     10  HN  UNK N   1      36.286  10.817  11.833  1.00  0.00     0.167 HD
HETATM   11  C   UNK N   1      37.119  12.276  14.143  0.00  0.00     0.131 A 
HETATM   12  C   UNK N   1      36.027  13.866  12.762  0.00  0.00     0.142 A 
HETATM   13  N   UNK N   1      37.341  13.272  15.050  0.00  0.00    -0.337 N 
HETATM   14  C   UNK N   1      36.907  14.557  14.810  0.00  0.00     0.183 A 
ATOM     15  HN  UNK N   1      37.833  13.061  15.918  1.00  0.00     0.168 HD
HETATM   16  N   UNK N   1      36.237  14.863  13.653  0.00  0.00    -0.336 N 
ATOM     17  HN  UNK N   1      35.907  15.811  13.470  1.00  0.00     0.168 HD
BRANCH  11  18
HETATM   18  N   UNK N   1      37.547  10.956  14.396  0.00  0.00    -0.383 N 
HETATM   19  H   UNK N   1      38.500  10.711  14.369  0.00  0.00     0.157 HD
HETATM   20  H   UNK N   1      36.877  10.265  14.604  0.00  0.00     0.157 HD
ENDBRANCH  11  18
ENDBRANCH   4   6
BRANCH   3  21
HETATM   21  O   UNK N   1      36.861  16.078  10.794  0.00  0.00    -0.388 OA
HETATM   22  H   UNK N   1      37.775  16.161  10.480  0.00  0.00     0.210 HD
ENDBRANCH   3  21
BRANCH   2  23
HETATM   23  O   UNK N   1      33.707  17.383   9.671  0.00  0.00    -0.390 OA
HETATM   24  H   UNK N   1      33.092  18.022  10.064  0.00  0.00     0.210 HD
ENDBRANCH   2  23
BRANCH   1  25
HETATM   25  C   UNK N   1      34.215  15.623   7.438  0.00  0.00     0.211 C 
BRANCH  25  26
HETATM   26  O   UNK N   1      32.838  15.871   7.571  0.00  0.00    -0.324 OA
BRANCH  26  27
HETATM   27  P   UNK N   1      32.073  15.766   5.992  0.00  0.00     0.243 P 
HETATM   28  O   UNK N   1      31.463  17.351   5.635  0.00  0.00    -0.337 OA
HETATM   29  H   UNK N   1      30.521  17.507   5.465  0.00  0.00     0.218 HD
HETATM   30  S   UNK N   1      30.353  16.684   6.954  0.00  0.00    -0.087 SA
HETATM   31  H   UNK N   1      29.355  16.483   7.856  0.00  0.00     0.111 HD
HETATM   32  S   UNK N   1      33.449  16.743   5.462  0.00  0.00    -0.026 SA
ENDBRANCH  26  27
ENDBRANCH  25  26
ENDBRANCH   1  25
TORSDOF 7
ENDMDL
MODEL 3
REMARK VINA RESULT:      -5.8     11.797     13.349
REMARK  7 active torsions:
REMARK  status: ('A' for Active; 'I' for Inactive)
REMARK    1  A    between atoms: C_4  and  C_1 
REMARK    2  A    between atoms: O_22  and  C_1 
REMARK    3  A    between atoms: C_6  and  O_19 
REMARK    4  A    between atoms: O_20  and  C_7 
REMARK    5  A    between atoms: N_11  and  C_8 
REMARK    6  A    between atoms: C_10  and  N_18 
REMARK    7  A    between atoms: P_24  and  O_22 
ROOT
HETATM    1  C   UNK N   1      21.076  16.103   5.815  0.00  0.00     0.179 C 
HETATM    2  C   UNK N   1      19.765  16.269   6.573  0.00  0.00     0.182 C 
HETATM    3  C   UNK N   1      20.145  15.545   7.851  0.00  0.00     0.198 C 
HETATM    4  C   UNK N   1      20.934  14.359   7.263  0.00  0.00     0.262 C 
HETATM    5  O   UNK N   1      21.462  14.769   6.013  0.00  0.00    -0.353 OA
ENDROOT
BRANCH   4   6
HETATM    6  N   UNK N   1      22.044  13.890   8.103  0.00  0.00    -0.297 N 
HETATM    7  C   UNK N   1      23.357  13.978   7.757  0.00  0.00     0.188 A 
HETATM    8  N   UNK N   1      24.165  13.425   8.699  0.00  0.00    -0.346 N 
HETATM    9  C   UNK N   1      23.318  12.985   9.642  0.00  0.00     0.122 A 
ATOM     10  HN  UNK N   1      25.183  13.360   8.691  1.00  0.00     0.167 HD
HETATM   11  C   UNK N   1      23.588  12.312  10.817  0.00  0.00     0.131 A 
HETATM   12  C   UNK N   1      22.043  13.269   9.292  0.00  0.00     0.142 A 
HETATM   13  N   UNK N   1      22.532  11.956  11.605  0.00  0.00    -0.337 N 
HETATM   14  C   UNK N   1      21.240  12.257  11.235  0.00  0.00     0.183 A 
ATOM     15  HN  UNK N   1      22.703  11.458  12.479  1.00  0.00     0.168 HD
HETATM   16  N   UNK N   1      20.986  12.919  10.061  0.00  0.00    -0.336 N 
ATOM     17  HN  UNK N   1      20.031  13.141   9.777  1.00  0.00     0.168 HD
BRANCH  11  18
HETATM   18  N   UNK N   1      24.911  11.989  11.186  0.00  0.00    -0.383 N 
HETATM   19  H   UNK N   1      25.404  11.261  10.743  0.00  0.00     0.157 HD
HETATM   20  H   UNK N   1      25.350  12.503  11.901  0.00  0.00     0.157 HD
ENDBRANCH  11  18
ENDBRANCH   4   6
BRANCH   3  21
HETATM   21  O   UNK N   1      20.990  16.367   8.605  0.00  0.00    -0.388 OA
HETATM   22  H   UNK N   1      21.734  16.962   8.791  0.00  0.00     0.210 HD
ENDBRANCH   3  21
BRANCH   2  23
HETATM   23  O   UNK N   1      18.743  15.571   5.917  0.00  0.00    -0.390 OA
HETATM   24  H   UNK N   1      18.203  15.440   5.121  0.00  0.00     0.210 HD
ENDBRANCH   2  23
BRANCH   1  25
HETATM   25  C   UNK N   1      21.013  16.345   4.308  0.00  0.00     0.211 C 
BRANCH  25  26
HETATM   26  O   UNK N   1      21.130  17.687   3.905  0.00  0.00    -0.324 OA
BRANCH  26  27
HETATM   27  P   UNK N   1      19.730  18.127   2.937  0.00  0.00     0.243 P 
HETATM   28  O   UNK N   1      20.344  18.887   1.502  0.00  0.00    -0.337 OA
HETATM   29  H   UNK N   1      20.099  19.794   1.263  0.00  0.00     0.218 HD
HETATM   30  S   UNK N   1      20.621  20.109   2.860  0.00  0.00    -0.087 SA
HETATM   31  H   UNK N   1      20.918  21.215   3.595  0.00  0.00     0.111 HD
HETATM   32  S   UNK N   1      20.291  16.835   1.867  0.00  0.00    -0.026 SA
ENDBRANCH  26  27
ENDBRANCH  25  26
ENDBRANCH   1  25
TORSDOF 7
ENDMDL
MODEL 4
REMARK VINA RESULT:      -5.8      5.361      7.537
REMARK  7 active torsions:
REMARK  status: ('A' for Active; 'I' for Inactive)
REMARK    1  A    between atoms: C_4  and  C_1 
REMARK    2  A    between atoms: O_22  and  C_1 
REMARK    3  A    between atoms: C_6  and  O_19 
REMARK    4  A    between atoms: O_20  and  C_7 
REMARK    5  A    between atoms: N_11  and  C_8 
REMARK    6  A    between atoms: C_10  and  N_18 
REMARK    7  A    between atoms: P_24  and  O_22 
ROOT
HETATM    1  C   UNK N   1      33.421  15.821   7.864  0.00  0.00     0.179 C 
HETATM    2  C   UNK N   1      32.312  14.793   8.047  0.00  0.00     0.182 C 
HETATM    3  C   UNK N   1      32.676  14.308   9.438  0.00  0.00     0.198 C 
HETATM    4  C   UNK N   1      34.212  14.261   9.312  0.00  0.00     0.262 C 
HETATM    5  O   UNK N   1      34.593  15.201   8.323  0.00  0.00    -0.353 OA
ENDROOT
BRANCH   4   6
HETATM    6  N   UNK N   1      34.934  14.576  10.553  0.00  0.00    -0.297 N 
HETATM    7  C   UNK N   1      35.697  15.689  10.734  0.00  0.00     0.188 A 
HETATM    8  N   UNK N   1      36.286  15.702  11.958  0.00  0.00    -0.346 N 
HETATM    9  C   UNK N   1      35.873  14.563  12.535  0.00  0.00     0.122 A 
ATOM     10  HN  UNK N   1      36.901  16.415  12.349  1.00  0.00     0.167 HD
HETATM   11  C   UNK N   1      36.188  14.046  13.775  0.00  0.00     0.131 A 
HETATM   12  C   UNK N   1      35.055  13.887  11.697  0.00  0.00     0.142 A 
HETATM   13  N   UNK N   1      35.642  12.843  14.122  0.00  0.00    -0.337 N 
HETATM   14  C   UNK N   1      34.807  12.170  13.258  0.00  0.00     0.183 A 
ATOM     15  HN  UNK N   1      35.857  12.437  15.033  1.00  0.00     0.168 HD
HETATM   16  N   UNK N   1      34.508  12.693  12.025  0.00  0.00    -0.336 N 
ATOM     17  HN  UNK N   1      33.895  12.198  11.377  1.00  0.00     0.168 HD
BRANCH  11  18
HETATM   18  N   UNK N   1      37.057  14.727  14.652  0.00  0.00    -0.383 N 
HETATM   19  H   UNK N   1      38.035  14.662  14.559  0.00  0.00     0.157 HD
HETATM   20  H   UNK N   1      36.678  15.280  15.372  0.00  0.00     0.157 HD
ENDBRANCH  11  18
ENDBRANCH   4   6
BRANCH   3  21
HETATM   21  O   UNK N   1      32.293  15.277  10.373  0.00  0.00    -0.388 OA
HETATM   22  H   UNK N   1      31.795  15.670  11.107  0.00  0.00     0.210 HD
ENDBRANCH   3  21
BRANCH   2  23
HETATM   23  O   UNK N   1      32.471  13.751   7.125  0.00  0.00    -0.390 OA
HETATM   24  H   UNK N   1      32.129  12.937   6.723  0.00  0.00     0.210 HD
ENDBRANCH   2  23
BRANCH   1  25
HETATM   25  C   UNK N   1      33.676  16.282   6.430  0.00  0.00     0.211 C 
BRANCH  25  26
HETATM   26  O   UNK N   1      32.664  15.971   5.505  0.00  0.00    -0.324 OA
BRANCH  26  27
HETATM   27  P   UNK N   1      32.189  17.432   4.649  0.00  0.00     0.243 P 
HETATM   28  O   UNK N   1      31.165  16.926   3.342  0.00  0.00    -0.337 OA
HETATM   29  H   UNK N   1      31.385  17.122   2.419  0.00  0.00     0.218 HD
HETATM   30  S   UNK N   1      32.870  16.401   2.860  0.00  0.00    -0.087 SA
HETATM   31  H   UNK N   1      33.967  15.935   2.205  0.00  0.00     0.111 HD
HETATM   32  S   UNK N   1      30.594  17.101   5.340  0.00  0.00    -0.026 SA
ENDBRANCH  26  27
ENDBRANCH  25  26
ENDBRANCH   1  25
TORSDOF 7
ENDMDL
MODEL 5
REMARK VINA RESULT:      -5.8      4.759      6.373
REMARK  7 active torsions:
REMARK  status: ('A' for Active; 'I' for Inactive)
REMARK    1  A    between atoms: C_4  and  C_1 
REMARK    2  A    between atoms: O_22  and  C_1 
REMARK    3  A    between atoms: C_6  and  O_19 
REMARK    4  A    between atoms: O_20  and  C_7 
REMARK    5  A    between atoms: N_11  and  C_8 
REMARK    6  A    between atoms: C_10  and  N_18 
REMARK    7  A    between atoms: P_24  and  O_22 
ROOT
HETATM    1  C   UNK N   1      36.292  13.315  13.709  0.00  0.00     0.179 C 
HETATM    2  C   UNK N   1      36.770  12.195  12.794  0.00  0.00     0.182 C 
HETATM    3  C   UNK N   1      36.628  12.909  11.463  0.00  0.00     0.198 C 
HETATM    4  C   UNK N   1      35.296  13.648  11.696  0.00  0.00     0.262 C 
HETATM    5  O   UNK N   1      35.152  13.849  13.091  0.00  0.00    -0.353 OA
ENDROOT
BRANCH   4   6
HETATM    6  N   UNK N   1      35.198  14.952  11.027  0.00  0.00    -0.297 N 
HETATM    7  C   UNK N   1      35.349  16.149  11.657  0.00  0.00     0.188 A 
HETATM    8  N   UNK N   1      35.162  17.193  10.809  0.00  0.00    -0.346 N 
HETATM    9  C   UNK N   1      34.884  16.614   9.630  0.00  0.00     0.122 A 
ATOM     10  HN  UNK N   1      35.219  18.190  11.018  1.00  0.00     0.167 HD
HETATM   11  C   UNK N   1      34.578  17.198   8.418  0.00  0.00     0.131 A 
HETATM   12  C   UNK N   1      34.913  15.268   9.755  0.00  0.00     0.142 A 
HETATM   13  N   UNK N   1      34.316  16.375   7.361  0.00  0.00    -0.337 N 
HETATM   14  C   UNK N   1      34.353  15.005   7.505  0.00  0.00     0.183 A 
ATOM     15  HN  UNK N   1      34.087  16.779   6.453  1.00  0.00     0.168 HD
HETATM   16  N   UNK N   1      34.652  14.438   8.718  0.00  0.00    -0.336 N 
ATOM     17  HN  UNK N   1      34.675  13.425   8.835  1.00  0.00     0.168 HD
BRANCH  11  18
HETATM   18  N   UNK N   1      34.523  18.600   8.276  0.00  0.00    -0.383 N 
HETATM   19  H   UNK N   1      35.341  19.142   8.199  0.00  0.00     0.157 HD
HETATM   20  H   UNK N   1      33.646  19.047   8.252  0.00  0.00     0.157 HD
ENDBRANCH  11  18
ENDBRANCH   4   6
BRANCH   3  21
HETATM   21  O   UNK N   1      37.676  13.826  11.324  0.00  0.00    -0.388 OA
HETATM   22  H   UNK N   1      38.203  14.623  11.499  0.00  0.00     0.210 HD
ENDBRANCH   3  21
BRANCH   2  23
HETATM   23  O   UNK N   1      35.877  11.118  12.853  0.00  0.00    -0.390 OA
HETATM   24  H   UNK N   1      35.361  10.439  12.390  0.00  0.00     0.210 HD
ENDBRANCH   2  23
BRANCH   1  25
HETATM   25  C   UNK N   1      35.897  12.900  15.125  0.00  0.00     0.211 C 
BRANCH  25  26
HETATM   26  O   UNK N   1      36.375  11.646  15.544  0.00  0.00    -0.324 OA
BRANCH  26  27
HETATM   27  P   UNK N   1      35.207  10.915  16.637  0.00  0.00     0.243 P 
HETATM   28  O   UNK N   1      36.015  10.719  18.161  0.00  0.00    -0.337 OA
HETATM   29  H   UNK N   1      36.115   9.848  18.575  0.00  0.00     0.218 HD
HETATM   30  S   UNK N   1      36.761   9.450  17.044  0.00  0.00    -0.087 SA
HETATM   31  H   UNK N   1      37.466   8.413  16.516  0.00  0.00     0.111 HD
HETATM   32  S   UNK N   1      35.222  12.500  17.422  0.00  0.00    -0.026 SA
ENDBRANCH  26  27
ENDBRANCH  25  26
ENDBRANCH   1  25
TORSDOF 7
ENDMDL
MODEL 6
REMARK VINA RESULT:      -5.7      5.554      8.021
REMARK  7 active torsions:
REMARK  status: ('A' for Active; 'I' for Inactive)
REMARK    1  A    between atoms: C_4  and  C_1 
REMARK    2  A    between atoms: O_22  and  C_1 
REMARK    3  A    between atoms: C_6  and  O_19 
REMARK    4  A    between atoms: O_20  and  C_7 
REMARK    5  A    between atoms: N_11  and  C_8 
REMARK    6  A    between atoms: C_10  and  N_18 
REMARK    7  A    between atoms: P_24  and  O_22 
ROOT
HETATM    1  C   UNK N   1      34.495  14.890   9.508  0.00  0.00     0.179 C 
HETATM    2  C   UNK N   1      35.087  16.293   9.550  0.00  0.00     0.182 C 
HETATM    3  C   UNK N   1      35.891  16.164  10.831  0.00  0.00     0.198 C 
HETATM    4  C   UNK N   1      34.896  15.362  11.692  0.00  0.00     0.262 C 
HETATM    5  O   UNK N   1      34.067  14.619  10.816  0.00  0.00    -0.353 OA
ENDROOT
BRANCH   4   6
HETATM    6  N   UNK N   1      35.524  14.429  12.638  0.00  0.00    -0.297 N 
HETATM    7  C   UNK N   1      36.425  14.794  13.590  0.00  0.00     0.188 A 
HETATM    8  N   UNK N   1      36.878  13.723  14.293  0.00  0.00    -0.346 N 
HETATM    9  C   UNK N   1      36.238  12.677  13.748  0.00  0.00     0.122 A 
ATOM     10  HN  UNK N   1      37.551  13.715  15.059  1.00  0.00     0.167 HD
HETATM   11  C   UNK N   1      36.338  11.334  14.052  0.00  0.00     0.131 A 
HETATM   12  C   UNK N   1      35.418  13.097  12.759  0.00  0.00     0.142 A 
HETATM   13  N   UNK N   1      35.581  10.458  13.328  0.00  0.00    -0.337 N 
HETATM   14  C   UNK N   1      34.748  10.904  12.326  0.00  0.00     0.183 A 
ATOM     15  HN  UNK N   1      35.635   9.460  13.531  1.00  0.00     0.168 HD
HETATM   16  N   UNK N   1      34.663  12.241  12.031  0.00  0.00    -0.336 N 
ATOM     17  HN  UNK N   1      34.053  12.579  11.286  1.00  0.00     0.168 HD
BRANCH  11  18
HETATM   18  N   UNK N   1      37.205  10.877  15.066  0.00  0.00    -0.383 N 
HETATM   19  H   UNK N   1      36.977  10.101  15.626  0.00  0.00     0.157 HD
HETATM   20  H   UNK N   1      38.059  11.345  15.216  0.00  0.00     0.157 HD
ENDBRANCH  11  18
ENDBRANCH   4   6
BRANCH   3  21
HETATM   21  O   UNK N   1      37.037  15.402  10.573  0.00  0.00    -0.388 OA
HETATM   22  H   UNK N   1      37.951  15.216  10.303  0.00  0.00     0.210 HD
ENDBRANCH   3  21
BRANCH   2  23
HETATM   23  O   UNK N   1      34.066  17.236   9.724  0.00  0.00    -0.390 OA
HETATM   24  H   UNK N   1      33.118  17.440   9.747  0.00  0.00     0.210 HD
ENDBRANCH   2  23
BRANCH   1  25
HETATM   25  C   UNK N   1      33.295  14.698   8.582  0.00  0.00     0.211 C 
BRANCH  25  26
HETATM   26  O   UNK N   1      33.461  15.172   7.269  0.00  0.00    -0.324 OA
BRANCH  26  27
HETATM   27  P   UNK N   1      32.048  16.109   6.805  0.00  0.00     0.243 P 
HETATM   28  O   UNK N   1      32.150  16.336   5.087  0.00  0.00    -0.337 OA
HETATM   29  H   UNK N   1      32.178  17.221   4.692  0.00  0.00     0.218 HD
HETATM   30  S   UNK N   1      33.460  17.424   5.804  0.00  0.00    -0.087 SA
HETATM   31  H   UNK N   1      34.452  18.334   6.002  0.00  0.00     0.111 HD
HETATM   32  S   UNK N   1      31.518  14.598   6.051  0.00  0.00    -0.026 SA
ENDBRANCH  26  27
ENDBRANCH  25  26
ENDBRANCH   1  25
TORSDOF 7
ENDMDL
MODEL 7
REMARK VINA RESULT:      -5.6      5.138      6.999
REMARK  7 active torsions:
REMARK  status: ('A' for Active; 'I' for Inactive)
REMARK    1  A    between atoms: C_4  and  C_1 
REMARK    2  A    between atoms: O_22  and  C_1 
REMARK    3  A    between atoms: C_6  and  O_19 
REMARK    4  A    between atoms: O_20  and  C_7 
REMARK    5  A    between atoms: N_11  and  C_8 
REMARK    6  A    between atoms: C_10  and  N_18 
REMARK    7  A    between atoms: P_24  and  O_22 
ROOT
HETATM    1  C   UNK N   1      31.394  16.176   5.357  0.00  0.00     0.179 C 
HETATM    2  C   UNK N   1      32.309  16.757   4.287  0.00  0.00     0.182 C 
HETATM    3  C   UNK N   1      33.514  17.064   5.157  0.00  0.00     0.198 C 
HETATM    4  C   UNK N   1      32.805  17.607   6.414  0.00  0.00     0.262 C 
HETATM    5  O   UNK N   1      31.511  17.032   6.462  0.00  0.00    -0.353 OA
ENDROOT
BRANCH   4   6
HETATM    6  N   UNK N   1      33.493  17.307   7.678  0.00  0.00    -0.297 N 
HETATM    7  C   UNK N   1      34.378  18.143   8.285  0.00  0.00     0.188 A 
HETATM    8  N   UNK N   1      34.897  17.594   9.414  0.00  0.00    -0.346 N 
HETATM    9  C   UNK N   1      34.314  16.388   9.492  0.00  0.00     0.122 A 
ATOM     10  HN  UNK N   1      35.575  18.005  10.057  1.00  0.00     0.167 HD
HETATM   11  C   UNK N   1      34.493  15.387  10.425  0.00  0.00     0.131 A 
HETATM   12  C   UNK N   1      33.464  16.214   8.455  0.00  0.00     0.142 A 
HETATM   13  N   UNK N   1      33.783  14.232  10.267  0.00  0.00    -0.337 N 
HETATM   14  C   UNK N   1      32.918  14.073   9.207  0.00  0.00     0.183 A 
ATOM     15  HN  UNK N   1      33.895  13.476  10.942  1.00  0.00     0.168 HD
HETATM   16  N   UNK N   1      32.755  15.074   8.283  0.00  0.00    -0.336 N 
ATOM     17  HN  UNK N   1      32.121  14.962   7.491  1.00  0.00     0.168 HD
BRANCH  11  18
HETATM   18  N   UNK N   1      35.392  15.543  11.501  0.00  0.00    -0.383 N 
HETATM   19  H   UNK N   1      35.095  15.887  12.374  0.00  0.00     0.157 HD
HETATM   20  H   UNK N   1      36.339  15.303  11.375  0.00  0.00     0.157 HD
ENDBRANCH  11  18
ENDBRANCH   4   6
BRANCH   3  21
HETATM   21  O   UNK N   1      34.179  15.867   5.451  0.00  0.00    -0.388 OA
HETATM   22  H   UNK N   1      34.712  15.073   5.290  0.00  0.00     0.210 HD
ENDBRANCH   3  21
BRANCH   2  23
HETATM   23  O   UNK N   1      31.766  17.949   3.791  0.00  0.00    -0.390 OA
HETATM   24  H   UNK N   1      31.388  18.826   3.964  0.00  0.00     0.210 HD
ENDBRANCH   2  23
BRANCH   1  25
HETATM   25  C   UNK N   1      29.911  16.092   4.996  0.00  0.00     0.211 C 
BRANCH  25  26
HETATM   26  O   UNK N   1      29.167  17.265   5.212  0.00  0.00    -0.324 OA
BRANCH  26  27
HETATM   27  P   UNK N   1      27.754  16.885   6.186  0.00  0.00     0.243 P 
HETATM   28  O   UNK N   1      26.824  18.347   6.294  0.00  0.00    -0.337 OA
HETATM   29  H   UNK N   1      26.615  18.755   7.148  0.00  0.00     0.218 HD
HETATM   30  S   UNK N   1      28.306  18.630   7.360  0.00  0.00    -0.087 SA
HETATM   31  H   UNK N   1      29.225  19.129   8.230  0.00  0.00     0.111 HD
HETATM   32  S   UNK N   1      26.880  17.056   4.657  0.00  0.00    -0.026 SA
ENDBRANCH  26  27
ENDBRANCH  25  26
ENDBRANCH   1  25
TORSDOF 7
ENDMDL
MODEL 8
REMARK VINA RESULT:      -5.6      1.340      2.357
REMARK  7 active torsions:
REMARK  status: ('A' for Active; 'I' for Inactive)
REMARK    1  A    between atoms: C_4  and  C_1 
REMARK    2  A    between atoms: O_22  and  C_1 
REMARK    3  A    between atoms: C_6  and  O_19 
REMARK    4  A    between atoms: O_20  and  C_7 
REMARK    5  A    between atoms: N_11  and  C_8 
REMARK    6  A    between atoms: C_10  and  N_18 
REMARK    7  A    between atoms: P_24  and  O_22 
ROOT
HETATM    1  C   UNK N   1      34.755  15.459   7.591  0.00  0.00     0.179 C 
HETATM    2  C   UNK N   1      34.939  15.918   6.151  0.00  0.00     0.182 C 
HETATM    3  C   UNK N   1      33.664  16.726   6.002  0.00  0.00     0.198 C 
HETATM    4  C   UNK N   1      32.676  15.808   6.748  0.00  0.00     0.262 C 
HETATM    5  O   UNK N   1      33.416  15.054   7.693  0.00  0.00    -0.353 OA
ENDROOT
BRANCH   4   6
HETATM    6  N   UNK N   1      31.604  16.517   7.459  0.00  0.00    -0.297 N 
HETATM    7  C   UNK N   1      31.522  16.624   8.813  0.00  0.00     0.188 A 
HETATM    8  N   UNK N   1      30.405  17.292   9.200  0.00  0.00    -0.346 N 
HETATM    9  C   UNK N   1      29.787  17.597   8.048  0.00  0.00     0.122 A 
ATOM     10  HN  UNK N   1      30.104  17.513  10.150  1.00  0.00     0.167 HD
HETATM   11  C   UNK N   1      28.589  18.250   7.843  0.00  0.00     0.131 A 
HETATM   12  C   UNK N   1      30.508  17.140   7.000  0.00  0.00     0.142 A 
HETATM   13  N   UNK N   1      28.168  18.421   6.556  0.00  0.00    -0.337 N 
HETATM   14  C   UNK N   1      28.916  17.953   5.499  0.00  0.00     0.183 A 
ATOM     15  HN  UNK N   1      27.286  18.901   6.375  1.00  0.00     0.168 HD
HETATM   16  N   UNK N   1      30.102  17.299   5.718  0.00  0.00    -0.336 N 
ATOM     17  HN  UNK N   1      30.660  16.944   4.941  1.00  0.00     0.168 HD
BRANCH  11  18
HETATM   18  N   UNK N   1      27.814  18.713   8.927  0.00  0.00    -0.383 N 
HETATM   19  H   UNK N   1      28.100  19.482   9.471  0.00  0.00     0.157 HD
HETATM   20  H   UNK N   1      26.969  18.257   9.144  0.00  0.00     0.157 HD
ENDBRANCH  11  18
ENDBRANCH   4   6
BRANCH   3  21
HETATM   21  O   UNK N   1      33.812  17.939   6.685  0.00  0.00    -0.388 OA
HETATM   22  H   UNK N   1      34.127  18.841   6.856  0.00  0.00     0.210 HD
ENDBRANCH   3  21
BRANCH   2  23
HETATM   23  O   UNK N   1      34.904  14.812   5.291  0.00  0.00    -0.390 OA
HETATM   24  H   UNK N   1      35.381  14.168   4.744  0.00  0.00     0.210 HD
ENDBRANCH   2  23
BRANCH   1  25
HETATM   25  C   UNK N   1      35.626  14.285   8.037  0.00  0.00     0.211 C 
BRANCH  25  26
HETATM   26  O   UNK N   1      35.473  13.893   9.378  0.00  0.00    -0.324 OA
BRANCH  26  27
HETATM   27  P   UNK N   1      36.408  14.969  10.408  0.00  0.00     0.243 P 
HETATM   28  O   UNK N   1      37.083  13.983  11.667  0.00  0.00    -0.337 OA
HETATM   29  H   UNK N   1      36.895  14.154  12.602  0.00  0.00     0.218 HD
HETATM   30  S   UNK N   1      35.279  14.101  12.050  0.00  0.00    -0.087 SA
HETATM   31  H   UNK N   1      34.048  14.024  12.625  0.00  0.00     0.111 HD
HETATM   32  S   UNK N   1      37.801  14.128   9.714  0.00  0.00    -0.026 SA
ENDBRANCH  26  27
ENDBRANCH  25  26
ENDBRANCH   1  25
TORSDOF 7
ENDMDL
MODEL 9
REMARK VINA RESULT:      -5.5      7.554     10.094
REMARK  7 active torsions:
REMARK  status: ('A' for Active; 'I' for Inactive)
REMARK    1  A    between atoms: C_4  and  C_1 
REMARK    2  A    between atoms: O_22  and  C_1 
REMARK    3  A    between atoms: C_6  and  O_19 
REMARK    4  A    between atoms: O_20  and  C_7 
REMARK    5  A    between atoms: N_11  and  C_8 
REMARK    6  A    between atoms: C_10  and  N_18 
REMARK    7  A    between atoms: P_24  and  O_22 
ROOT
HETATM    1  C   UNK N   1      35.042  12.852  13.524  0.00  0.00     0.179 C 
HETATM    2  C   UNK N   1      34.661  11.598  12.747  0.00  0.00     0.182 C 
HETATM    3  C   UNK N   1      34.647  10.610  13.898  0.00  0.00     0.198 C 
HETATM    4  C   UNK N   1      35.888  11.088  14.677  0.00  0.00     0.262 C 
HETATM    5  O   UNK N   1      36.075  12.463  14.389  0.00  0.00    -0.353 OA
ENDROOT
BRANCH   4   6
HETATM    6  N   UNK N   1      35.790  10.930  16.135  0.00  0.00    -0.297 N 
HETATM    7  C   UNK N   1      35.838   9.733  16.781  0.00  0.00     0.188 A 
HETATM    8  N   UNK N   1      35.677   9.876  18.122  0.00  0.00    -0.346 N 
HETATM    9  C   UNK N   1      35.520  11.198  18.295  0.00  0.00     0.122 A 
ATOM     10  HN  UNK N   1      35.674   9.147  18.834  1.00  0.00     0.167 HD
HETATM   11  C   UNK N   1      35.289  11.907  19.456  0.00  0.00     0.131 A 
HETATM   12  C   UNK N   1      35.595  11.835  17.105  0.00  0.00     0.142 A 
HETATM   13  N   UNK N   1      35.148  13.262  19.359  0.00  0.00    -0.337 N 
HETATM   14  C   UNK N   1      35.231  13.896  18.139  0.00  0.00     0.183 A 
ATOM     15  HN  UNK N   1      34.976  13.811  20.201  1.00  0.00     0.168 HD
HETATM   16  N   UNK N   1      35.454  13.177  16.992  0.00  0.00    -0.336 N 
ATOM     17  HN  UNK N   1      35.511  13.638  16.084  1.00  0.00     0.168 HD
BRANCH  11  18
HETATM   18  N   UNK N   1      35.186  11.255  20.703  0.00  0.00    -0.383 N 
HETATM   19  H   UNK N   1      34.336  11.226  21.198  0.00  0.00     0.157 HD
HETATM   20  H   UNK N   1      35.981  10.820  21.085  0.00  0.00     0.157 HD
ENDBRANCH  11  18
ENDBRANCH   4   6
BRANCH   3  21
HETATM   21  O   UNK N   1      33.487  10.811  14.657  0.00  0.00    -0.388 OA
HETATM   22  H   UNK N   1      32.552  10.740  14.904  0.00  0.00     0.210 HD
ENDBRANCH   3  21
BRANCH   2  23
HETATM   23  O   UNK N   1      35.682  11.266  11.848  0.00  0.00    -0.390 OA
HETATM   24  H   UNK N   1      36.432  10.696  11.616  0.00  0.00     0.210 HD
ENDBRANCH   2  23
BRANCH   1  25
HETATM   25  C   UNK N   1      35.556  14.025  12.691  0.00  0.00     0.211 C 
BRANCH  25  26
HETATM   26  O   UNK N   1      34.960  14.177  11.427  0.00  0.00    -0.324 OA
BRANCH  26  27
HETATM   27  P   UNK N   1      36.140  14.840  10.304  0.00  0.00     0.243 P 
HETATM   28  O   UNK N   1      35.242  15.443   8.946  0.00  0.00    -0.337 OA
HETATM   29  H   UNK N   1      35.397  15.113   8.048  0.00  0.00     0.218 HD
HETATM   30  S   UNK N   1      35.160  13.602   8.810  0.00  0.00    -0.087 SA
HETATM   31  H   UNK N   1      34.950  12.321   8.403  0.00  0.00     0.111 HD
HETATM   32  S   UNK N   1      35.454  16.398  10.788  0.00  0.00    -0.026 SA
ENDBRANCH  26  27
ENDBRANCH  25  26
ENDBRANCH   1  25
TORSDOF 7
ENDMDL
