MODEL 1
REMARK VINA RESULT:      -5.9      0.000      0.000
REMARK  6 active torsions:
REMARK  status: ('A' for Active; 'I' for Inactive)
REMARK    1  A    between atoms: O_1  and  C_2 
REMARK    2  A    between atoms: C_2  and  C_4 
REMARK    3  A    between atoms: C_7  and  O_8 
REMARK    4  A    between atoms: O_8  and  C_9 
REMARK    5  A    between atoms: C_9  and  C_10 
REMARK    6  A    between atoms: C_10  and  N_11 
ROOT
HETATM    1  C   UNK N   1      33.685  17.866   7.742  0.00  0.00     0.037 A 
HETATM    2  C   UNK N   1      33.869  17.613   6.367  0.00  0.00     0.021 A 
HETATM    3  C   UNK N   1      32.780  17.233   5.558  0.00  0.00     0.038 A 
HETATM    4  C   UNK N   1      31.509  17.107   6.129  0.00  0.00     0.068 A 
HETATM    5  C   UNK N   1      31.358  17.368   7.511  0.00  0.00     0.038 A 
HETATM    6  C   UNK N   1      32.421  17.739   8.301  0.00  0.00     0.021 A 
ENDROOT
BRANCH   4   7
HETATM    7  O   UNK N   1      30.421  16.742   5.392  0.00  0.00    -0.350 OA
BRANCH   7   8
HETATM    8  C   UNK N   1      29.570  17.772   5.079  0.00  0.00     0.196 C 
BRANCH   8   9
HETATM    9  C   UNK N   1      28.094  17.807   5.347  0.00  0.00     0.156 C 
BRANCH   9  10
HETATM   10  N   UNK N   1      27.984  17.891   6.819  0.00  0.00    -0.350 N 
HETATM   11  C   UNK N   1      27.807  16.876   7.669  0.00  0.00     0.108 A 
HETATM   12  C   UNK N   1      27.760  17.412   8.950  0.00  0.00     0.106 A 
HETATM   13  N   UNK N   1      27.909  18.746   8.871  0.00  0.00    -0.361 N 
HETATM   14  C   UNK N   1      28.045  19.020   7.562  0.00  0.00     0.182 A 
ATOM     15  HN  UNK N   1      27.918  19.412   9.644  1.00  0.00     0.166 HD
ENDBRANCH   9  10
ENDBRANCH   8   9
ENDBRANCH   7   8
ENDBRANCH   4   7
BRANCH   1  16
HETATM   16  C   UNK N   1      34.792  18.265   8.624  0.00  0.00     0.176 C 
HETATM   17  O   UNK N   1      35.361  19.333   8.455  0.00  0.00    -0.646 OA
BRANCH  16  18
HETATM   18  O   UNK N   1      35.185  17.454   9.625  0.00  0.00    -0.773 OA
HETATM   19  H   UNK N   1      35.541  17.818  10.412  0.00  0.00     0.167 HD
ENDBRANCH  16  18
ENDBRANCH   1  16
TORSDOF 6
ENDMDL
MODEL 2
REMARK VINA RESULT:      -5.8      9.964     11.219
REMARK  6 active torsions:
REMARK  status: ('A' for Active; 'I' for Inactive)
REMARK    1  A    between atoms: O_1  and  C_2 
REMARK    2  A    between atoms: C_2  and  C_4 
REMARK    3  A    between atoms: C_7  and  O_8 
REMARK    4  A    between atoms: O_8  and  C_9 
REMARK    5  A    between atoms: C_9  and  C_10 
REMARK    6  A    between atoms: C_10  and  N_11 
ROOT
HETATM    1  C   UNK N   1      22.954  12.540  10.957  0.00  0.00     0.037 A 
HETATM    2  C   UNK N   1      21.575  12.528  11.255  0.00  0.00     0.021 A 
HETATM    3  C   UNK N   1      20.638  13.016  10.323  0.00  0.00     0.038 A 
HETATM    4  C   UNK N   1      21.084  13.514   9.094  0.00  0.00     0.068 A 
HETATM    5  C   UNK N   1      22.473  13.512   8.826  0.00  0.00     0.038 A 
HETATM    6  C   UNK N   1      23.388  13.036   9.736  0.00  0.00     0.021 A 
ENDROOT
BRANCH   4   7
HETATM    7  O   UNK N   1      20.220  13.998   8.156  0.00  0.00    -0.350 OA
BRANCH   7   8
HETATM    8  C   UNK N   1      20.335  15.343   7.912  0.00  0.00     0.196 C 
BRANCH   8   9
HETATM    9  C   UNK N   1      19.266  16.230   7.344  0.00  0.00     0.156 C 
BRANCH   9  10
HETATM   10  N   UNK N   1      18.941  17.169   8.438  0.00  0.00    -0.350 N 
HETATM   11  C   UNK N   1      19.739  18.107   8.954  0.00  0.00     0.108 A 
HETATM   12  C   UNK N   1      19.026  18.752   9.957  0.00  0.00     0.106 A 
HETATM   13  N   UNK N   1      17.801  18.203  10.045  0.00  0.00    -0.361 N 
HETATM   14  C   UNK N   1      17.768  17.239   9.110  0.00  0.00     0.182 A 
ATOM     15  HN  UNK N   1      17.053  18.465  10.687  1.00  0.00     0.166 HD
ENDBRANCH   9  10
ENDBRANCH   8   9
ENDBRANCH   7   8
ENDBRANCH   4   7
BRANCH   1  16
HETATM   16  C   UNK N   1      23.967  12.042  11.899  0.00  0.00     0.176 C 
HETATM   17  O   UNK N   1      23.667  11.805  13.059  0.00  0.00    -0.646 OA
BRANCH  16  18
HETATM   18  O   UNK N   1      25.234  11.844  11.486  0.00  0.00    -0.773 OA
HETATM   19  H   UNK N   1      25.950  12.180  11.991  0.00  0.00     0.167 HD
ENDBRANCH  16  18
ENDBRANCH   1  16
TORSDOF 6
ENDMDL
MODEL 3
REMARK VINA RESULT:      -5.7     10.577     11.975
REMARK  6 active torsions:
REMARK  status: ('A' for Active; 'I' for Inactive)
REMARK    1  A    between atoms: O_1  and  C_2 
REMARK    2  A    between atoms: C_2  and  C_4 
REMARK    3  A    between atoms: C_7  and  O_8 
REMARK    4  A    between atoms: O_8  and  C_9 
REMARK    5  A    between atoms: C_9  and  C_10 
REMARK    6  A    between atoms: C_10  and  N_11 
ROOT
HETATM    1  C   UNK N   1      20.850  19.348   2.380  0.00  0.00     0.037 A 
HETATM    2  C   UNK N   1      21.742  19.497   3.462  0.00  0.00     0.021 A 
HETATM    3  C   UNK N   1      21.744  18.566   4.520  0.00  0.00     0.038 A 
HETATM    4  C   UNK N   1      20.853  17.488   4.490  0.00  0.00     0.068 A 
HETATM    5  C   UNK N   1      19.972  17.367   3.390  0.00  0.00     0.038 A 
HETATM    6  C   UNK N   1      19.969  18.276   2.358  0.00  0.00     0.021 A 
ENDROOT
BRANCH   4   7
HETATM    7  O   UNK N   1      20.813  16.558   5.487  0.00  0.00    -0.350 OA
BRANCH   7   8
HETATM    8  C   UNK N   1      20.681  17.079   6.750  0.00  0.00     0.196 C 
BRANCH   8   9
HETATM    9  C   UNK N   1      20.482  16.290   8.011  0.00  0.00     0.156 C 
BRANCH   9  10
HETATM   10  N   UNK N   1      19.475  17.057   8.775  0.00  0.00    -0.350 N 
HETATM   11  C   UNK N   1      18.254  16.648   9.129  0.00  0.00     0.108 A 
HETATM   12  C   UNK N   1      17.656  17.686   9.832  0.00  0.00     0.106 A 
HETATM   13  N   UNK N   1      18.516  18.719   9.901  0.00  0.00    -0.361 N 
HETATM   14  C   UNK N   1      19.621  18.316   9.251  0.00  0.00     0.182 A 
ATOM     15  HN  UNK N   1      18.361  19.620  10.354  1.00  0.00     0.166 HD
ENDBRANCH   9  10
ENDBRANCH   8   9
ENDBRANCH   7   8
ENDBRANCH   4   7
BRANCH   1  16
HETATM   16  C   UNK N   1      20.812  20.294   1.255  0.00  0.00     0.176 C 
HETATM   17  O   UNK N   1      20.999  21.486   1.446  0.00  0.00    -0.646 OA
BRANCH  16  18
HETATM   18  O   UNK N   1      20.572  19.851   0.006  0.00  0.00    -0.773 OA
HETATM   19  H   UNK N   1      21.226  19.943  -0.659  0.00  0.00     0.167 HD
ENDBRANCH  16  18
ENDBRANCH   1  16
TORSDOF 6
ENDMDL
MODEL 4
REMARK VINA RESULT:      -5.6      9.066     10.560
REMARK  6 active torsions:
REMARK  status: ('A' for Active; 'I' for Inactive)
REMARK    1  A    between atoms: O_1  and  C_2 
REMARK    2  A    between atoms: C_2  and  C_4 
REMARK    3  A    between atoms: C_7  and  O_8 
REMARK    4  A    between atoms: O_8  and  C_9 
REMARK    5  A    between atoms: C_9  and  C_10 
REMARK    6  A    between atoms: C_10  and  N_11 
ROOT
HETATM    1  C   UNK N   1      22.935  12.520  11.101  0.00  0.00     0.037 A 
HETATM    2  C   UNK N   1      21.563  12.380  11.395  0.00  0.00     0.021 A 
HETATM    3  C   UNK N   1      20.587  12.853  10.496  0.00  0.00     0.038 A 
HETATM    4  C   UNK N   1      20.988  13.466   9.304  0.00  0.00     0.068 A 
HETATM    5  C   UNK N   1      22.372  13.591   9.038  0.00  0.00     0.038 A 
HETATM    6  C   UNK N   1      23.325  13.129   9.916  0.00  0.00     0.021 A 
ENDROOT
BRANCH   4   7
HETATM    7  O   UNK N   1      20.085  13.942   8.399  0.00  0.00    -0.350 OA
BRANCH   7   8
HETATM    8  C   UNK N   1      20.626  14.713   7.402  0.00  0.00     0.196 C 
BRANCH   8   9
HETATM    9  C   UNK N   1      20.120  16.053   6.953  0.00  0.00     0.156 C 
BRANCH   9  10
HETATM   10  N   UNK N   1      21.309  16.732   6.393  0.00  0.00    -0.350 N 
HETATM   11  C   UNK N   1      21.383  17.993   5.960  0.00  0.00     0.108 A 
HETATM   12  C   UNK N   1      22.683  18.205   5.521  0.00  0.00     0.106 A 
HETATM   13  N   UNK N   1      23.391  17.074   5.689  0.00  0.00    -0.361 N 
HETATM   14  C   UNK N   1      22.535  16.185   6.222  0.00  0.00     0.182 A 
ATOM     15  HN  UNK N   1      24.373  16.922   5.459  1.00  0.00     0.166 HD
ENDBRANCH   9  10
ENDBRANCH   8   9
ENDBRANCH   7   8
ENDBRANCH   4   7
BRANCH   1  16
HETATM   16  C   UNK N   1      23.988  12.042  12.008  0.00  0.00     0.176 C 
HETATM   17  O   UNK N   1      23.730  11.794  13.176  0.00  0.00    -0.646 OA
BRANCH  16  18
HETATM   18  O   UNK N   1      25.246  11.873  11.556  0.00  0.00    -0.773 OA
HETATM   19  H   UNK N   1      25.946  11.720  12.161  0.00  0.00     0.167 HD
ENDBRANCH  16  18
ENDBRANCH   1  16
TORSDOF 6
ENDMDL
MODEL 5
REMARK VINA RESULT:      -5.5      1.393      2.000
REMARK  6 active torsions:
REMARK  status: ('A' for Active; 'I' for Inactive)
REMARK    1  A    between atoms: O_1  and  C_2 
REMARK    2  A    between atoms: C_2  and  C_4 
REMARK    3  A    between atoms: C_7  and  O_8 
REMARK    4  A    between atoms: O_8  and  C_9 
REMARK    5  A    between atoms: C_9  and  C_10 
REMARK    6  A    between atoms: C_10  and  N_11 
ROOT
HETATM    1  C   UNK N   1      33.494  17.767   7.684  0.00  0.00     0.037 A 
HETATM    2  C   UNK N   1      33.729  17.618   6.301  0.00  0.00     0.021 A 
HETATM    3  C   UNK N   1      32.674  17.284   5.428  0.00  0.00     0.038 A 
HETATM    4  C   UNK N   1      31.386  17.100   5.944  0.00  0.00     0.068 A 
HETATM    5  C   UNK N   1      31.185  17.257   7.335  0.00  0.00     0.038 A 
HETATM    6  C   UNK N   1      32.214  17.583   8.187  0.00  0.00     0.021 A 
ENDROOT
BRANCH   4   7
HETATM    7  O   UNK N   1      30.330  16.776   5.144  0.00  0.00    -0.350 OA
BRANCH   7   8
HETATM    8  C   UNK N   1      29.382  17.761   5.023  0.00  0.00     0.196 C 
BRANCH   8   9
HETATM    9  C   UNK N   1      27.900  17.579   5.173  0.00  0.00     0.156 C 
BRANCH   9  10
HETATM   10  N   UNK N   1      27.398  18.915   5.559  0.00  0.00    -0.350 N 
HETATM   11  C   UNK N   1      27.700  19.597   6.667  0.00  0.00     0.108 A 
HETATM   12  C   UNK N   1      27.006  20.799   6.617  0.00  0.00     0.106 A 
HETATM   13  N   UNK N   1      26.287  20.842   5.480  0.00  0.00    -0.361 N 
HETATM   14  C   UNK N   1      26.540  19.683   4.847  0.00  0.00     0.182 A 
ATOM     15  HN  UNK N   1      25.678  21.596   5.165  1.00  0.00     0.166 HD
ENDBRANCH   9  10
ENDBRANCH   8   9
ENDBRANCH   7   8
ENDBRANCH   4   7
BRANCH   1  16
HETATM   16  C   UNK N   1      34.564  18.114   8.630  0.00  0.00     0.176 C 
HETATM   17  O   UNK N   1      34.787  17.402   9.597  0.00  0.00    -0.646 OA
BRANCH  16  18
HETATM   18  O   UNK N   1      35.305  19.223   8.436  0.00  0.00    -0.773 OA
HETATM   19  H   UNK N   1      34.903  20.069   8.473  0.00  0.00     0.167 HD
ENDBRANCH  16  18
ENDBRANCH   1  16
TORSDOF 6
ENDMDL
MODEL 6
REMARK VINA RESULT:      -5.4      9.766     11.400
REMARK  6 active torsions:
REMARK  status: ('A' for Active; 'I' for Inactive)
REMARK    1  A    between atoms: O_1  and  C_2 
REMARK    2  A    between atoms: C_2  and  C_4 
REMARK    3  A    between atoms: C_7  and  O_8 
REMARK    4  A    between atoms: O_8  and  C_9 
REMARK    5  A    between atoms: C_9  and  C_10 
REMARK    6  A    between atoms: C_10  and  N_11 
ROOT
HETATM    1  C   UNK N   1      20.150  16.664   8.458  0.00  0.00     0.037 A 
HETATM    2  C   UNK N   1      20.059  15.416   9.108  0.00  0.00     0.021 A 
HETATM    3  C   UNK N   1      20.755  14.297   8.610  0.00  0.00     0.038 A 
HETATM    4  C   UNK N   1      21.542  14.431   7.460  0.00  0.00     0.068 A 
HETATM    5  C   UNK N   1      21.612  15.697   6.832  0.00  0.00     0.038 A 
HETATM    6  C   UNK N   1      20.933  16.789   7.318  0.00  0.00     0.021 A 
ENDROOT
BRANCH   4   7
HETATM    7  O   UNK N   1      22.236  13.381   6.936  0.00  0.00    -0.350 OA
BRANCH   7   8
HETATM    8  C   UNK N   1      22.156  12.221   7.664  0.00  0.00     0.196 C 
BRANCH   8   9
HETATM    9  C   UNK N   1      23.317  11.392   8.131  0.00  0.00     0.156 C 
BRANCH   9  10
HETATM   10  N   UNK N   1      23.472  11.739   9.559  0.00  0.00    -0.350 N 
HETATM   11  C   UNK N   1      22.549  11.623  10.518  0.00  0.00     0.108 A 
HETATM   12  C   UNK N   1      23.125  12.062  11.703  0.00  0.00     0.106 A 
HETATM   13  N   UNK N   1      24.393  12.441  11.459  0.00  0.00    -0.361 N 
HETATM   14  C   UNK N   1      24.586  12.236  10.145  0.00  0.00     0.182 A 
ATOM     15  HN  UNK N   1      25.066  12.807  12.132  1.00  0.00     0.166 HD
ENDBRANCH   9  10
ENDBRANCH   8   9
ENDBRANCH   7   8
ENDBRANCH   4   7
BRANCH   1  16
HETATM   16  C   UNK N   1      19.442  17.858   8.941  0.00  0.00     0.176 C 
HETATM   17  O   UNK N   1      20.061  18.878   9.205  0.00  0.00    -0.646 OA
BRANCH  16  18
HETATM   18  O   UNK N   1      18.104  17.833   9.097  0.00  0.00    -0.773 OA
HETATM   19  H   UNK N   1      17.554  17.557   8.390  0.00  0.00     0.167 HD
ENDBRANCH  16  18
ENDBRANCH   1  16
TORSDOF 6
ENDMDL
MODEL 7
REMARK VINA RESULT:      -5.4      3.764      6.031
REMARK  6 active torsions:
REMARK  status: ('A' for Active; 'I' for Inactive)
REMARK    1  A    between atoms: O_1  and  C_2 
REMARK    2  A    between atoms: C_2  and  C_4 
REMARK    3  A    between atoms: C_7  and  O_8 
REMARK    4  A    between atoms: O_8  and  C_9 
REMARK    5  A    between atoms: C_9  and  C_10 
REMARK    6  A    between atoms: C_10  and  N_11 
ROOT
HETATM    1  C   UNK N   1      29.461  18.081   7.992  0.00  0.00     0.037 A 
HETATM    2  C   UNK N   1      29.610  17.361   6.788  0.00  0.00     0.021 A 
HETATM    3  C   UNK N   1      30.876  16.892   6.387  0.00  0.00     0.038 A 
HETATM    4  C   UNK N   1      31.991  17.145   7.193  0.00  0.00     0.068 A 
HETATM    5  C   UNK N   1      31.809  17.870   8.395  0.00  0.00     0.038 A 
HETATM    6  C   UNK N   1      30.573  18.327   8.787  0.00  0.00     0.021 A 
ENDROOT
BRANCH   4   7
HETATM    7  O   UNK N   1      33.240  16.714   6.852  0.00  0.00    -0.350 OA
BRANCH   7   8
HETATM    8  C   UNK N   1      33.606  15.519   7.416  0.00  0.00     0.196 C 
BRANCH   8   9
HETATM    9  C   UNK N   1      34.989  15.141   7.860  0.00  0.00     0.156 C 
BRANCH   9  10
HETATM   10  N   UNK N   1      35.053  15.559   9.277  0.00  0.00    -0.350 N 
HETATM   11  C   UNK N   1      35.142  14.763  10.345  0.00  0.00     0.108 A 
HETATM   12  C   UNK N   1      35.175  15.578  11.469  0.00  0.00     0.106 A 
HETATM   13  N   UNK N   1      35.107  16.864  11.078  0.00  0.00    -0.361 N 
HETATM   14  C   UNK N   1      35.033  16.832   9.737  0.00  0.00     0.182 A 
ATOM     15  HN  UNK N   1      35.110  17.690  11.676  1.00  0.00     0.166 HD
ENDBRANCH   9  10
ENDBRANCH   8   9
ENDBRANCH   7   8
ENDBRANCH   4   7
BRANCH   1  16
HETATM   16  C   UNK N   1      28.160  18.589   8.450  0.00  0.00     0.176 C 
HETATM   17  O   UNK N   1      27.645  19.551   7.901  0.00  0.00    -0.646 OA
BRANCH  16  18
HETATM   18  O   UNK N   1      27.527  17.995   9.481  0.00  0.00    -0.773 OA
HETATM   19  H   UNK N   1      27.922  17.264   9.916  0.00  0.00     0.167 HD
ENDBRANCH  16  18
ENDBRANCH   1  16
TORSDOF 6
ENDMDL
MODEL 8
REMARK VINA RESULT:      -5.3     12.701     14.481
REMARK  6 active torsions:
REMARK  status: ('A' for Active; 'I' for Inactive)
REMARK    1  A    between atoms: O_1  and  C_2 
REMARK    2  A    between atoms: C_2  and  C_4 
REMARK    3  A    between atoms: C_7  and  O_8 
REMARK    4  A    between atoms: O_8  and  C_9 
REMARK    5  A    between atoms: C_9  and  C_10 
REMARK    6  A    between atoms: C_10  and  N_11 
ROOT
HETATM    1  C   UNK N   1      29.151  23.192  -3.474  0.00  0.00     0.037 A 
HETATM    2  C   UNK N   1      27.994  23.798  -2.941  0.00  0.00     0.021 A 
HETATM    3  C   UNK N   1      27.010  24.334  -3.795  0.00  0.00     0.038 A 
HETATM    4  C   UNK N   1      27.186  24.260  -5.181  0.00  0.00     0.068 A 
HETATM    5  C   UNK N   1      28.357  23.646  -5.683  0.00  0.00     0.038 A 
HETATM    6  C   UNK N   1      29.319  23.123  -4.850  0.00  0.00     0.021 A 
ENDROOT
BRANCH   4   7
HETATM    7  O   UNK N   1      26.265  24.763  -6.052  0.00  0.00    -0.350 OA
BRANCH   7   8
HETATM    8  C   UNK N   1      25.350  25.616  -5.488  0.00  0.00     0.196 C 
BRANCH   8   9
HETATM    9  C   UNK N   1      25.099  27.036  -5.903  0.00  0.00     0.156 C 
BRANCH   9  10
HETATM   10  N   UNK N   1      25.840  27.850  -4.916  0.00  0.00    -0.350 N 
HETATM   11  C   UNK N   1      26.800  28.742  -5.171  0.00  0.00     0.108 A 
HETATM   12  C   UNK N   1      27.213  29.266  -3.953  0.00  0.00     0.106 A 
HETATM   13  N   UNK N   1      26.503  28.691  -2.966  0.00  0.00    -0.361 N 
HETATM   14  C   UNK N   1      25.670  27.829  -3.574  0.00  0.00     0.182 A 
ATOM     15  HN  UNK N   1      26.581  28.871  -1.965  1.00  0.00     0.166 HD
ENDBRANCH   9  10
ENDBRANCH   8   9
ENDBRANCH   7   8
ENDBRANCH   4   7
BRANCH   1  16
HETATM   16  C   UNK N   1      30.204  22.621  -2.622  0.00  0.00     0.176 C 
HETATM   17  O   UNK N   1      30.922  21.727  -3.044  0.00  0.00    -0.646 OA
BRANCH  16  18
HETATM   18  O   UNK N   1      30.383  23.080  -1.368  0.00  0.00    -0.773 OA
HETATM   19  H   UNK N   1      29.949  22.663  -0.649  0.00  0.00     0.167 HD
ENDBRANCH  16  18
ENDBRANCH   1  16
TORSDOF 6
ENDMDL
MODEL 9
REMARK VINA RESULT:      -5.3     14.353     16.337
REMARK  6 active torsions:
REMARK  status: ('A' for Active; 'I' for Inactive)
REMARK    1  A    between atoms: O_1  and  C_2 
REMARK    2  A    between atoms: C_2  and  C_4 
REMARK    3  A    between atoms: C_7  and  O_8 
REMARK    4  A    between atoms: O_8  and  C_9 
REMARK    5  A    between atoms: C_9  and  C_10 
REMARK    6  A    between atoms: C_10  and  N_11 
ROOT
HETATM    1  C   UNK N   1      26.314  28.698  -4.598  0.00  0.00     0.037 A 
HETATM    2  C   UNK N   1      27.280  28.538  -5.613  0.00  0.00     0.021 A 
HETATM    3  C   UNK N   1      27.086  27.597  -6.643  0.00  0.00     0.038 A 
HETATM    4  C   UNK N   1      25.924  26.819  -6.655  0.00  0.00     0.068 A 
HETATM    5  C   UNK N   1      24.974  27.004  -5.623  0.00  0.00     0.038 A 
HETATM    6  C   UNK N   1      25.163  27.922  -4.617  0.00  0.00     0.021 A 
ENDROOT
BRANCH   4   7
HETATM    7  O   UNK N   1      25.686  25.893  -7.629  0.00  0.00    -0.350 OA
BRANCH   7   8
HETATM    8  C   UNK N   1      26.368  24.713  -7.475  0.00  0.00     0.196 C 
BRANCH   8   9
HETATM    9  C   UNK N   1      25.996  23.596  -6.546  0.00  0.00     0.156 C 
BRANCH   9  10
HETATM   10  N   UNK N   1      26.825  23.820  -5.342  0.00  0.00    -0.350 N 
HETATM   11  C   UNK N   1      28.158  23.781  -5.267  0.00  0.00     0.108 A 
HETATM   12  C   UNK N   1      28.507  24.049  -3.950  0.00  0.00     0.106 A 
HETATM   13  N   UNK N   1      27.386  24.250  -3.233  0.00  0.00    -0.361 N 
HETATM   14  C   UNK N   1      26.370  24.105  -4.100  0.00  0.00     0.182 A 
ATOM     15  HN  UNK N   1      27.322  24.466  -2.238  1.00  0.00     0.166 HD
ENDBRANCH   9  10
ENDBRANCH   8   9
ENDBRANCH   7   8
ENDBRANCH   4   7
BRANCH   1  16
HETATM   16  C   UNK N   1      26.474  29.667  -3.504  0.00  0.00     0.176 C 
HETATM   17  O   UNK N   1      27.087  29.360  -2.493  0.00  0.00    -0.646 OA
BRANCH  16  18
HETATM   18  O   UNK N   1      25.945  30.902  -3.611  0.00  0.00    -0.773 OA
HETATM   19  H   UNK N   1      25.303  31.082  -4.271  0.00  0.00     0.167 HD
ENDBRANCH  16  18
ENDBRANCH   1  16
TORSDOF 6
ENDMDL
