MODEL 1
REMARK VINA RESULT:      -6.4      0.000      0.000
REMARK  21 active torsions:
REMARK  status: ('A' for Active; 'I' for Inactive)
REMARK    1  A    between atoms: C_3  and  C_2 
REMARK    2  A    between atoms: C_4  and  C_3 
REMARK    3  A    between atoms: C_5  and  C_4 
REMARK    4  A    between atoms: C_6  and  C_5 
REMARK    5  A    between atoms: C_7  and  C_6 
REMARK    6  A    between atoms: C_10  and  C_7 
REMARK    7  A    between atoms: C_9  and  C_8 
REMARK    8  A    between atoms: C_13  and  C_8 
REMARK    9  A    between atoms: C_15  and  C_9 
REMARK   10  A    between atoms: S_30  and  C_10 
REMARK   11  A    between atoms: C_16  and  C_11 
REMARK   12  A    between atoms: N_20  and  C_11 
REMARK   13  A    between atoms: C_14  and  C_12 
REMARK   14  A    between atoms: S_30  and  C_12 
REMARK   15  A    between atoms: C_18  and  C_13 
REMARK   16  A    between atoms: C_13  and  N_19 
REMARK   17  A    between atoms: C_17  and  C_14 
REMARK   18  A    between atoms: C_14  and  N_22 
REMARK   19  A    between atoms: O_26  and  C_16 
REMARK   20  A    between atoms: O_27  and  C_17 
REMARK   21  A    between atoms: O_29  and  C_18 
ROOT
HETATM    1  C   UNK N   1      20.991  14.390   8.859  0.00  0.00     0.111 C 
HETATM    2  N   UNK N   1      20.688  15.644   8.939  0.00  0.00    -0.362 N 
ATOM      3  HN  UNK N   1      21.197  16.214   9.615  1.00  0.00     0.162 HD
HETATM    4  O   UNK N   1      20.354  13.572   7.999  0.00  0.00    -0.350 OA
HETATM    5  H   UNK N   1      20.006  12.887   7.462  0.00  0.00     0.219 HD
ENDROOT
BRANCH   1   6
HETATM    6  C   UNK N   1      22.101  13.846   9.698  0.00  0.00     0.086 C 
BRANCH   6   7
HETATM    7  C   UNK N   1      21.667  12.654  10.546  0.00  0.00     0.043 C 
BRANCH   7   8
HETATM    8  C   UNK N   1      22.783  11.616  10.684  0.00  0.00     0.173 C 
BRANCH   8   9
HETATM    9  C   UNK N   1      23.642  11.940  11.869  0.00  0.00     0.163 C 
HETATM   10  O   UNK N   1      23.172  11.908  12.996  0.00  0.00    -0.648 OA
BRANCH   9  11
HETATM   11  O   UNK N   1      24.930  12.289  11.694  0.00  0.00    -0.775 OA
HETATM   12  H   UNK N   1      25.360  12.155  10.872  0.00  0.00     0.167 HD
ENDBRANCH   9  11
ENDBRANCH   8   9
BRANCH   8  13
HETATM   13  N   UNK N   1      23.611  11.603   9.487  0.00  0.00    -0.418 N 
HETATM   14  H   UNK N   1      23.426  11.445   8.497  0.00  0.00     0.150 HD
HETATM   15  H   UNK N   1      24.594  11.794   9.682  0.00  0.00     0.150 HD
ENDBRANCH   8  13
ENDBRANCH   7   8
ENDBRANCH   6   7
ENDBRANCH   1   6
BRANCH   2  16
HETATM   16  C   UNK N   1      19.675  16.296   8.136  0.00  0.00     0.167 C 
BRANCH  16  17
HETATM   17  C   UNK N   1      20.361  17.489   7.458  0.00  0.00     0.107 C 
BRANCH  17  18
HETATM   18  S   UNK N   1      20.803  17.234   5.712  0.00  0.00    -0.167 SA
BRANCH  18  19
HETATM   19  C   UNK N   1      22.419  18.055   5.853  0.00  0.00     0.074 C 
BRANCH  19  20
HETATM   20  C   UNK N   1      22.875  18.509   4.474  0.00  0.00     0.010 C 
BRANCH  20  21
HETATM   21  C   UNK N   1      24.183  17.848   4.043  0.00  0.00     0.001 C 
BRANCH  21  22
HETATM   22  C   UNK N   1      25.215  18.858   3.562  0.00  0.00     0.000 C 
BRANCH  22  23
HETATM   23  C   UNK N   1      26.605  18.297   3.792  0.00  0.00     0.000 C 
BRANCH  23  24
HETATM   24  C   UNK N   1      27.460  19.311   4.526  0.00  0.00    -0.000 C 
BRANCH  24  25
HETATM   25  C   UNK N   1      26.720  20.631   4.645  0.00  0.00    -0.005 C 
HETATM   26  C   UNK N   1      27.103  21.330   5.936  0.00  0.00     0.005 C 
ENDBRANCH  24  25
ENDBRANCH  23  24
ENDBRANCH  22  23
ENDBRANCH  21  22
ENDBRANCH  20  21
ENDBRANCH  19  20
ENDBRANCH  18  19
ENDBRANCH  17  18
ENDBRANCH  16  17
BRANCH  16  27
HETATM   27  C   UNK N   1      18.531  16.692   9.040  0.00  0.00     0.136 C 
HETATM   28  N   UNK N   1      18.391  17.941   9.355  0.00  0.00    -0.363 N 
ATOM     29  HN  UNK N   1      19.069  18.619   9.011  1.00  0.00     0.161 HD
BRANCH  28  30
HETATM   30  C   UNK N   1      17.301  18.397  10.183  0.00  0.00     0.231 C 
BRANCH  30  31
HETATM   31  C   UNK N   1      17.841  19.101  11.385  0.00  0.00     0.158 C 
HETATM   32  O   UNK N   1      17.211  19.106  12.430  0.00  0.00    -0.649 OA
BRANCH  31  33
HETATM   33  O   UNK N   1      19.035  19.718  11.318  0.00  0.00    -0.775 OA
HETATM   34  H   UNK N   1      19.912  19.431  11.151  0.00  0.00     0.167 HD
ENDBRANCH  31  33
ENDBRANCH  30  31
ENDBRANCH  28  30
BRANCH  27  35
HETATM   35  O   UNK N   1      17.660  15.774   9.499  0.00  0.00    -0.348 OA
HETATM   36  H   UNK N   1      17.133  15.726  10.273  0.00  0.00     0.219 HD
ENDBRANCH  27  35
ENDBRANCH  16  27
ENDBRANCH   2  16
TORSDOF 21
ENDMDL
MODEL 2
REMARK VINA RESULT:      -6.1      3.757      6.494
REMARK  21 active torsions:
REMARK  status: ('A' for Active; 'I' for Inactive)
REMARK    1  A    between atoms: C_3  and  C_2 
REMARK    2  A    between atoms: C_4  and  C_3 
REMARK    3  A    between atoms: C_5  and  C_4 
REMARK    4  A    between atoms: C_6  and  C_5 
REMARK    5  A    between atoms: C_7  and  C_6 
REMARK    6  A    between atoms: C_10  and  C_7 
REMARK    7  A    between atoms: C_9  and  C_8 
REMARK    8  A    between atoms: C_13  and  C_8 
REMARK    9  A    between atoms: C_15  and  C_9 
REMARK   10  A    between atoms: S_30  and  C_10 
REMARK   11  A    between atoms: C_16  and  C_11 
REMARK   12  A    between atoms: N_20  and  C_11 
REMARK   13  A    between atoms: C_14  and  C_12 
REMARK   14  A    between atoms: S_30  and  C_12 
REMARK   15  A    between atoms: C_18  and  C_13 
REMARK   16  A    between atoms: C_13  and  N_19 
REMARK   17  A    between atoms: C_17  and  C_14 
REMARK   18  A    between atoms: C_14  and  N_22 
REMARK   19  A    between atoms: O_26  and  C_16 
REMARK   20  A    between atoms: O_27  and  C_17 
REMARK   21  A    between atoms: O_29  and  C_18 
ROOT
HETATM    1  C   UNK N   1      21.084  17.498   5.730  0.00  0.00     0.111 C 
HETATM    2  N   UNK N   1      20.905  16.337   6.272  0.00  0.00    -0.362 N 
ATOM      3  HN  UNK N   1      20.471  15.610   5.703  1.00  0.00     0.162 HD
HETATM    4  O   UNK N   1      21.639  18.511   6.423  0.00  0.00    -0.350 OA
HETATM    5  H   UNK N   1      22.003  19.303   6.768  0.00  0.00     0.219 HD
ENDROOT
BRANCH   1   6
HETATM    6  C   UNK N   1      20.715  17.707   4.298  0.00  0.00     0.086 C 
BRANCH   6   7
HETATM    7  C   UNK N   1      21.155  19.069   3.770  0.00  0.00     0.043 C 
BRANCH   7   8
HETATM    8  C   UNK N   1      20.735  19.279   2.314  0.00  0.00     0.173 C 
BRANCH   8   9
HETATM    9  C   UNK N   1      21.258  20.591   1.813  0.00  0.00     0.163 C 
HETATM   10  O   UNK N   1      21.445  20.763   0.618  0.00  0.00    -0.648 OA
BRANCH   9  11
HETATM   11  O   UNK N   1      21.543  21.580   2.680  0.00  0.00    -0.775 OA
HETATM   12  H   UNK N   1      21.694  21.399   3.588  0.00  0.00     0.167 HD
ENDBRANCH   9  11
ENDBRANCH   8   9
BRANCH   8  13
HETATM   13  N   UNK N   1      19.285  19.271   2.200  0.00  0.00    -0.418 N 
HETATM   14  H   UNK N   1      18.585  19.977   1.972  0.00  0.00     0.150 HD
HETATM   15  H   UNK N   1      18.877  18.355   2.392  0.00  0.00     0.150 HD
ENDBRANCH   8  13
ENDBRANCH   7   8
ENDBRANCH   6   7
ENDBRANCH   1   6
BRANCH   2  16
HETATM   16  C   UNK N   1      21.278  15.999   7.629  0.00  0.00     0.167 C 
BRANCH  16  17
HETATM   17  C   UNK N   1      21.713  14.528   7.604  0.00  0.00     0.107 C 
BRANCH  17  18
HETATM   18  S   UNK N   1      23.437  14.243   7.098  0.00  0.00    -0.167 SA
BRANCH  18  19
HETATM   19  C   UNK N   1      23.039  14.064   5.333  0.00  0.00     0.074 C 
BRANCH  19  20
HETATM   20  C   UNK N   1      24.238  14.496   4.501  0.00  0.00     0.010 C 
BRANCH  20  21
HETATM   21  C   UNK N   1      23.909  15.654   3.560  0.00  0.00     0.001 C 
BRANCH  21  22
HETATM   22  C   UNK N   1      24.959  16.755   3.602  0.00  0.00     0.000 C 
BRANCH  22  23
HETATM   23  C   UNK N   1      24.664  17.679   4.767  0.00  0.00     0.000 C 
BRANCH  23  24
HETATM   24  C   UNK N   1      25.382  19.001   4.577  0.00  0.00    -0.000 C 
BRANCH  24  25
HETATM   25  C   UNK N   1      24.558  19.921   3.694  0.00  0.00    -0.005 C 
HETATM   26  C   UNK N   1      25.428  20.506   2.596  0.00  0.00     0.005 C 
ENDBRANCH  24  25
ENDBRANCH  23  24
ENDBRANCH  22  23
ENDBRANCH  21  22
ENDBRANCH  20  21
ENDBRANCH  19  20
ENDBRANCH  18  19
ENDBRANCH  17  18
ENDBRANCH  16  17
BRANCH  16  27
HETATM   27  C   UNK N   1      20.092  16.262   8.529  0.00  0.00     0.136 C 
HETATM   28  N   UNK N   1      19.700  17.484   8.700  0.00  0.00    -0.363 N 
ATOM     29  HN  UNK N   1      20.215  18.238   8.249  1.00  0.00     0.161 HD
BRANCH  28  30
HETATM   30  C   UNK N   1      18.554  17.806   9.515  0.00  0.00     0.231 C 
BRANCH  30  31
HETATM   31  C   UNK N   1      18.822  19.053  10.293  0.00  0.00     0.158 C 
HETATM   32  O   UNK N   1      19.922  19.580  10.250  0.00  0.00    -0.649 OA
BRANCH  31  33
HETATM   33  O   UNK N   1      17.841  19.604  11.031  0.00  0.00    -0.775 OA
HETATM   34  H   UNK N   1      16.954  19.852  10.859  0.00  0.00     0.167 HD
ENDBRANCH  31  33
ENDBRANCH  30  31
ENDBRANCH  28  30
BRANCH  27  35
HETATM   35  O   UNK N   1      19.441  15.248   9.131  0.00  0.00    -0.348 OA
HETATM   36  H   UNK N   1      19.661  14.687   9.849  0.00  0.00     0.219 HD
ENDBRANCH  27  35
ENDBRANCH  16  27
ENDBRANCH   2  16
TORSDOF 21
ENDMDL
MODEL 3
REMARK VINA RESULT:      -6.0     12.338     13.811
REMARK  21 active torsions:
REMARK  status: ('A' for Active; 'I' for Inactive)
REMARK    1  A    between atoms: C_3  and  C_2 
REMARK    2  A    between atoms: C_4  and  C_3 
REMARK    3  A    between atoms: C_5  and  C_4 
REMARK    4  A    between atoms: C_6  and  C_5 
REMARK    5  A    between atoms: C_7  and  C_6 
REMARK    6  A    between atoms: C_10  and  C_7 
REMARK    7  A    between atoms: C_9  and  C_8 
REMARK    8  A    between atoms: C_13  and  C_8 
REMARK    9  A    between atoms: C_15  and  C_9 
REMARK   10  A    between atoms: S_30  and  C_10 
REMARK   11  A    between atoms: C_16  and  C_11 
REMARK   12  A    between atoms: N_20  and  C_11 
REMARK   13  A    between atoms: C_14  and  C_12 
REMARK   14  A    between atoms: S_30  and  C_12 
REMARK   15  A    between atoms: C_18  and  C_13 
REMARK   16  A    between atoms: C_13  and  N_19 
REMARK   17  A    between atoms: C_17  and  C_14 
REMARK   18  A    between atoms: C_14  and  N_22 
REMARK   19  A    between atoms: O_26  and  C_16 
REMARK   20  A    between atoms: O_27  and  C_17 
REMARK   21  A    between atoms: O_29  and  C_18 
ROOT
HETATM    1  C   UNK N   1      35.408  13.691  12.244  0.00  0.00     0.111 C 
HETATM    2  N   UNK N   1      35.385  14.488  11.226  0.00  0.00    -0.362 N 
ATOM      3  HN  UNK N   1      36.231  15.019  11.020  1.00  0.00     0.162 HD
HETATM    4  O   UNK N   1      34.325  12.967  12.586  0.00  0.00    -0.350 OA
HETATM    5  H   UNK N   1      33.664  12.408  12.945  0.00  0.00     0.219 HD
ENDROOT
BRANCH   1   6
HETATM    6  C   UNK N   1      36.670  13.532  13.026  0.00  0.00     0.086 C 
BRANCH   6   7
HETATM    7  C   UNK N   1      36.538  12.514  14.156  0.00  0.00     0.043 C 
BRANCH   7   8
HETATM    8  C   UNK N   1      36.648  13.173  15.532  0.00  0.00     0.173 C 
BRANCH   8   9
HETATM    9  C   UNK N   1      35.300  13.230  16.185  0.00  0.00     0.163 C 
HETATM   10  O   UNK N   1      34.288  13.071  15.520  0.00  0.00    -0.648 OA
BRANCH   9  11
HETATM   11  O   UNK N   1      35.199  13.477  17.504  0.00  0.00    -0.775 OA
HETATM   12  H   UNK N   1      35.818  13.122  18.112  0.00  0.00     0.167 HD
ENDBRANCH   9  11
ENDBRANCH   8   9
BRANCH   8  13
HETATM   13  N   UNK N   1      37.171  14.525  15.404  0.00  0.00    -0.418 N 
HETATM   14  H   UNK N   1      37.076  15.260  14.703  0.00  0.00     0.150 HD
HETATM   15  H   UNK N   1      37.765  14.797  16.187  0.00  0.00     0.150 HD
ENDBRANCH   8  13
ENDBRANCH   7   8
ENDBRANCH   6   7
ENDBRANCH   1   6
BRANCH   2  16
HETATM   16  C   UNK N   1      34.241  14.680  10.359  0.00  0.00     0.167 C 
BRANCH  16  17
HETATM   17  C   UNK N   1      34.458  13.763   9.149  0.00  0.00     0.107 C 
BRANCH  17  18
HETATM   18  S   UNK N   1      36.030  14.008   8.268  0.00  0.00    -0.167 SA
BRANCH  18  19
HETATM   19  C   UNK N   1      35.364  13.516   6.649  0.00  0.00     0.074 C 
BRANCH  19  20
HETATM   20  C   UNK N   1      34.397  14.583   6.157  0.00  0.00     0.010 C 
BRANCH  20  21
HETATM   21  C   UNK N   1      33.617  14.140   4.921  0.00  0.00     0.001 C 
BRANCH  21  22
HETATM   22  C   UNK N   1      34.465  14.170   3.657  0.00  0.00     0.000 C 
BRANCH  22  23
HETATM   23  C   UNK N   1      33.798  15.067   2.632  0.00  0.00     0.000 C 
BRANCH  23  24
HETATM   24  C   UNK N   1      32.414  15.462   3.107  0.00  0.00    -0.000 C 
BRANCH  24  25
HETATM   25  C   UNK N   1      32.201  16.952   2.912  0.00  0.00    -0.005 C 
HETATM   26  C   UNK N   1      32.218  17.662   4.253  0.00  0.00     0.005 C 
ENDBRANCH  24  25
ENDBRANCH  23  24
ENDBRANCH  22  23
ENDBRANCH  21  22
ENDBRANCH  20  21
ENDBRANCH  19  20
ENDBRANCH  18  19
ENDBRANCH  17  18
ENDBRANCH  16  17
BRANCH  16  27
HETATM   27  C   UNK N   1      34.156  16.145   9.999  0.00  0.00     0.136 C 
HETATM   28  N   UNK N   1      33.365  16.504   9.037  0.00  0.00    -0.363 N 
ATOM     29  HN  UNK N   1      32.844  15.790   8.531  1.00  0.00     0.161 HD
BRANCH  28  30
HETATM   30  C   UNK N   1      33.205  17.887   8.664  0.00  0.00     0.231 C 
BRANCH  30  31
HETATM   31  C   UNK N   1      34.411  18.351   7.913  0.00  0.00     0.158 C 
HETATM   32  O   UNK N   1      34.603  17.980   6.767  0.00  0.00    -0.649 OA
BRANCH  31  33
HETATM   33  O   UNK N   1      35.282  19.192   8.501  0.00  0.00    -0.775 OA
HETATM   34  H   UNK N   1      35.762  19.179   9.305  0.00  0.00     0.167 HD
ENDBRANCH  31  33
ENDBRANCH  30  31
ENDBRANCH  28  30
BRANCH  27  35
HETATM   35  O   UNK N   1      34.871  17.067  10.670  0.00  0.00    -0.348 OA
HETATM   36  H   UNK N   1      35.590  17.005  11.268  0.00  0.00     0.219 HD
ENDBRANCH  27  35
ENDBRANCH  16  27
ENDBRANCH   2  16
TORSDOF 21
ENDMDL
MODEL 4
REMARK VINA RESULT:      -6.0      3.735      7.110
REMARK  21 active torsions:
REMARK  status: ('A' for Active; 'I' for Inactive)
REMARK    1  A    between atoms: C_3  and  C_2 
REMARK    2  A    between atoms: C_4  and  C_3 
REMARK    3  A    between atoms: C_5  and  C_4 
REMARK    4  A    between atoms: C_6  and  C_5 
REMARK    5  A    between atoms: C_7  and  C_6 
REMARK    6  A    between atoms: C_10  and  C_7 
REMARK    7  A    between atoms: C_9  and  C_8 
REMARK    8  A    between atoms: C_13  and  C_8 
REMARK    9  A    between atoms: C_15  and  C_9 
REMARK   10  A    between atoms: S_30  and  C_10 
REMARK   11  A    between atoms: C_16  and  C_11 
REMARK   12  A    between atoms: N_20  and  C_11 
REMARK   13  A    between atoms: C_14  and  C_12 
REMARK   14  A    between atoms: S_30  and  C_12 
REMARK   15  A    between atoms: C_18  and  C_13 
REMARK   16  A    between atoms: C_13  and  N_19 
REMARK   17  A    between atoms: C_17  and  C_14 
REMARK   18  A    between atoms: C_14  and  N_22 
REMARK   19  A    between atoms: O_26  and  C_16 
REMARK   20  A    between atoms: O_27  and  C_17 
REMARK   21  A    between atoms: O_29  and  C_18 
ROOT
HETATM    1  C   UNK N   1      21.268  17.469   5.570  0.00  0.00     0.111 C 
HETATM    2  N   UNK N   1      21.533  16.226   5.814  0.00  0.00    -0.362 N 
ATOM      3  HN  UNK N   1      21.214  15.531   5.140  1.00  0.00     0.162 HD
HETATM    4  O   UNK N   1      21.647  18.442   6.420  0.00  0.00    -0.350 OA
HETATM    5  H   UNK N   1      21.838  19.220   6.906  0.00  0.00     0.219 HD
ENDROOT
BRANCH   1   6
HETATM    6  C   UNK N   1      20.573  17.836   4.300  0.00  0.00     0.086 C 
BRANCH   6   7
HETATM    7  C   UNK N   1      21.418  18.741   3.408  0.00  0.00     0.043 C 
BRANCH   7   8
HETATM    8  C   UNK N   1      20.654  19.183   2.158  0.00  0.00     0.173 C 
BRANCH   8   9
HETATM    9  C   UNK N   1      21.157  20.517   1.693  0.00  0.00     0.163 C 
HETATM   10  O   UNK N   1      21.349  20.721   0.504  0.00  0.00    -0.648 OA
BRANCH   9  11
HETATM   11  O   UNK N   1      21.419  21.488   2.587  0.00  0.00    -0.775 OA
HETATM   12  H   UNK N   1      20.803  22.176   2.749  0.00  0.00     0.167 HD
ENDBRANCH   9  11
ENDBRANCH   8   9
BRANCH   8  13
HETATM   13  N   UNK N   1      19.232  19.286   2.446  0.00  0.00    -0.418 N 
HETATM   14  H   UNK N   1      18.387  19.254   1.876  0.00  0.00     0.150 HD
HETATM   15  H   UNK N   1      19.036  19.422   3.438  0.00  0.00     0.150 HD
ENDBRANCH   8  13
ENDBRANCH   7   8
ENDBRANCH   6   7
ENDBRANCH   1   6
BRANCH   2  16
HETATM   16  C   UNK N   1      22.252  15.755   6.979  0.00  0.00     0.167 C 
BRANCH  16  17
HETATM   17  C   UNK N   1      23.683  15.458   6.513  0.00  0.00     0.107 C 
BRANCH  17  18
HETATM   18  S   UNK N   1      23.815  14.693   4.868  0.00  0.00    -0.167 SA
BRANCH  18  19
HETATM   19  C   UNK N   1      25.273  15.663   4.377  0.00  0.00     0.074 C 
BRANCH  19  20
HETATM   20  C   UNK N   1      24.978  17.144   4.563  0.00  0.00     0.010 C 
BRANCH  20  21
HETATM   21  C   UNK N   1      25.660  18.013   3.508  0.00  0.00     0.001 C 
BRANCH  21  22
HETATM   22  C   UNK N   1      25.052  19.406   3.419  0.00  0.00     0.000 C 
BRANCH  22  23
HETATM   23  C   UNK N   1      26.166  20.429   3.307  0.00  0.00     0.000 C 
BRANCH  23  24
HETATM   24  C   UNK N   1      27.390  19.951   4.063  0.00  0.00    -0.000 C 
BRANCH  24  25
HETATM   25  C   UNK N   1      27.519  20.703   5.376  0.00  0.00    -0.005 C 
HETATM   26  C   UNK N   1      27.565  19.724   6.535  0.00  0.00     0.005 C 
ENDBRANCH  24  25
ENDBRANCH  23  24
ENDBRANCH  22  23
ENDBRANCH  21  22
ENDBRANCH  20  21
ENDBRANCH  19  20
ENDBRANCH  18  19
ENDBRANCH  17  18
ENDBRANCH  16  17
BRANCH  16  27
HETATM   27  C   UNK N   1      21.533  14.544   7.527  0.00  0.00     0.136 C 
HETATM   28  N   UNK N   1      22.228  13.616   8.103  0.00  0.00    -0.363 N 
ATOM     29  HN  UNK N   1      23.241  13.711   8.149  1.00  0.00     0.161 HD
BRANCH  28  30
HETATM   30  C   UNK N   1      21.605  12.451   8.682  0.00  0.00     0.231 C 
BRANCH  30  31
HETATM   31  C   UNK N   1      21.218  12.735  10.097  0.00  0.00     0.158 C 
HETATM   32  O   UNK N   1      20.105  13.163  10.356  0.00  0.00    -0.649 OA
BRANCH  31  33
HETATM   33  O   UNK N   1      22.097  12.505  11.090  0.00  0.00    -0.775 OA
HETATM   34  H   UNK N   1      23.002  12.711  11.223  0.00  0.00     0.167 HD
ENDBRANCH  31  33
ENDBRANCH  30  31
ENDBRANCH  28  30
BRANCH  27  35
HETATM   35  O   UNK N   1      20.194  14.433   7.435  0.00  0.00    -0.348 OA
HETATM   36  H   UNK N   1      19.573  13.861   7.842  0.00  0.00     0.219 HD
ENDBRANCH  27  35
ENDBRANCH  16  27
ENDBRANCH   2  16
TORSDOF 21
ENDMDL
MODEL 5
REMARK VINA RESULT:      -6.0      8.332     11.090
REMARK  21 active torsions:
REMARK  status: ('A' for Active; 'I' for Inactive)
REMARK    1  A    between atoms: C_3  and  C_2 
REMARK    2  A    between atoms: C_4  and  C_3 
REMARK    3  A    between atoms: C_5  and  C_4 
REMARK    4  A    between atoms: C_6  and  C_5 
REMARK    5  A    between atoms: C_7  and  C_6 
REMARK    6  A    between atoms: C_10  and  C_7 
REMARK    7  A    between atoms: C_9  and  C_8 
REMARK    8  A    between atoms: C_13  and  C_8 
REMARK    9  A    between atoms: C_15  and  C_9 
REMARK   10  A    between atoms: S_30  and  C_10 
REMARK   11  A    between atoms: C_16  and  C_11 
REMARK   12  A    between atoms: N_20  and  C_11 
REMARK   13  A    between atoms: C_14  and  C_12 
REMARK   14  A    between atoms: S_30  and  C_12 
REMARK   15  A    between atoms: C_18  and  C_13 
REMARK   16  A    between atoms: C_13  and  N_19 
REMARK   17  A    between atoms: C_17  and  C_14 
REMARK   18  A    between atoms: C_14  and  N_22 
REMARK   19  A    between atoms: O_26  and  C_16 
REMARK   20  A    between atoms: O_27  and  C_17 
REMARK   21  A    between atoms: O_29  and  C_18 
ROOT
HETATM    1  C   UNK N   1      33.477  13.700   9.342  0.00  0.00     0.111 C 
HETATM    2  N   UNK N   1      33.299  14.864   8.806  0.00  0.00    -0.362 N 
ATOM      3  HN  UNK N   1      34.018  15.571   8.956  1.00  0.00     0.162 HD
HETATM    4  O   UNK N   1      32.565  12.720   9.199  0.00  0.00    -0.350 OA
HETATM    5  H   UNK N   1      32.031  11.950   9.192  0.00  0.00     0.219 HD
ENDROOT
BRANCH   1   6
HETATM    6  C   UNK N   1      34.739  13.421  10.090  0.00  0.00     0.086 C 
BRANCH   6   7
HETATM    7  C   UNK N   1      34.642  13.793  11.567  0.00  0.00     0.043 C 
BRANCH   7   8
HETATM    8  C   UNK N   1      35.794  14.699  12.004  0.00  0.00     0.173 C 
BRANCH   8   9
HETATM    9  C   UNK N   1      35.816  15.942  11.167  0.00  0.00     0.163 C 
HETATM   10  O   UNK N   1      36.858  16.320  10.653  0.00  0.00    -0.648 OA
BRANCH   9  11
HETATM   11  O   UNK N   1      34.691  16.660  10.995  0.00  0.00    -0.775 OA
HETATM   12  H   UNK N   1      34.659  17.374  10.387  0.00  0.00     0.167 HD
ENDBRANCH   9  11
ENDBRANCH   8   9
BRANCH   8  13
HETATM   13  N   UNK N   1      37.065  14.006  11.858  0.00  0.00    -0.418 N 
HETATM   14  H   UNK N   1      38.028  14.309  11.714  0.00  0.00     0.150 HD
HETATM   15  H   UNK N   1      36.972  12.991  11.910  0.00  0.00     0.150 HD
ENDBRANCH   8  13
ENDBRANCH   7   8
ENDBRANCH   6   7
ENDBRANCH   1   6
BRANCH   2  16
HETATM   16  C   UNK N   1      32.147  15.232   8.011  0.00  0.00     0.167 C 
BRANCH  16  17
HETATM   17  C   UNK N   1      32.630  15.301   6.556  0.00  0.00     0.107 C 
BRANCH  17  18
HETATM   18  S   UNK N   1      33.997  16.462   6.253  0.00  0.00    -0.167 SA
BRANCH  18  19
HETATM   19  C   UNK N   1      33.103  17.404   4.980  0.00  0.00     0.074 C 
BRANCH  19  20
HETATM   20  C   UNK N   1      31.798  16.693   4.651  0.00  0.00     0.010 C 
BRANCH  20  21
HETATM   21  C   UNK N   1      30.640  17.667   4.441  0.00  0.00     0.001 C 
BRANCH  21  22
HETATM   22  C   UNK N   1      29.315  17.111   4.945  0.00  0.00     0.000 C 
BRANCH  22  23
HETATM   23  C   UNK N   1      28.180  17.943   4.381  0.00  0.00     0.000 C 
BRANCH  23  24
HETATM   24  C   UNK N   1      28.339  19.393   4.796  0.00  0.00    -0.000 C 
BRANCH  24  25
HETATM   25  C   UNK N   1      27.140  19.836   5.615  0.00  0.00    -0.005 C 
HETATM   26  C   UNK N   1      27.387  21.216   6.196  0.00  0.00     0.005 C 
ENDBRANCH  24  25
ENDBRANCH  23  24
ENDBRANCH  22  23
ENDBRANCH  21  22
ENDBRANCH  20  21
ENDBRANCH  19  20
ENDBRANCH  18  19
ENDBRANCH  17  18
ENDBRANCH  16  17
BRANCH  16  27
HETATM   27  C   UNK N   1      31.607  16.545   8.530  0.00  0.00     0.136 C 
HETATM   28  N   UNK N   1      30.378  16.858   8.272  0.00  0.00    -0.363 N 
ATOM     29  HN  UNK N   1      29.814  16.228   7.703  1.00  0.00     0.161 HD
BRANCH  28  30
HETATM   30  C   UNK N   1      29.785  18.077   8.766  0.00  0.00     0.231 C 
BRANCH  30  31
HETATM   31  C   UNK N   1      28.490  17.769   9.446  0.00  0.00     0.158 C 
HETATM   32  O   UNK N   1      28.424  16.864  10.261  0.00  0.00    -0.649 OA
BRANCH  31  33
HETATM   33  O   UNK N   1      27.398  18.503   9.167  0.00  0.00    -0.775 OA
HETATM   34  H   UNK N   1      27.022  19.281   9.530  0.00  0.00     0.167 HD
ENDBRANCH  31  33
ENDBRANCH  30  31
ENDBRANCH  28  30
BRANCH  27  35
HETATM   35  O   UNK N   1      32.379  17.371   9.262  0.00  0.00    -0.348 OA
HETATM   36  H   UNK N   1      33.235  17.281   9.633  0.00  0.00     0.219 HD
ENDBRANCH  27  35
ENDBRANCH  16  27
ENDBRANCH   2  16
TORSDOF 21
ENDMDL
MODEL 6
REMARK VINA RESULT:      -5.9     13.169     17.183
REMARK  21 active torsions:
REMARK  status: ('A' for Active; 'I' for Inactive)
REMARK    1  A    between atoms: C_3  and  C_2 
REMARK    2  A    between atoms: C_4  and  C_3 
REMARK    3  A    between atoms: C_5  and  C_4 
REMARK    4  A    between atoms: C_6  and  C_5 
REMARK    5  A    between atoms: C_7  and  C_6 
REMARK    6  A    between atoms: C_10  and  C_7 
REMARK    7  A    between atoms: C_9  and  C_8 
REMARK    8  A    between atoms: C_13  and  C_8 
REMARK    9  A    between atoms: C_15  and  C_9 
REMARK   10  A    between atoms: S_30  and  C_10 
REMARK   11  A    between atoms: C_16  and  C_11 
REMARK   12  A    between atoms: N_20  and  C_11 
REMARK   13  A    between atoms: C_14  and  C_12 
REMARK   14  A    between atoms: S_30  and  C_12 
REMARK   15  A    between atoms: C_18  and  C_13 
REMARK   16  A    between atoms: C_13  and  N_19 
REMARK   17  A    between atoms: C_17  and  C_14 
REMARK   18  A    between atoms: C_14  and  N_22 
REMARK   19  A    between atoms: O_26  and  C_16 
REMARK   20  A    between atoms: O_27  and  C_17 
REMARK   21  A    between atoms: O_29  and  C_18 
ROOT
HETATM    1  C   UNK N   1      36.088  14.873  10.692  0.00  0.00     0.111 C 
HETATM    2  N   UNK N   1      35.906  13.824  11.427  0.00  0.00    -0.362 N 
ATOM      3  HN  UNK N   1      35.055  13.282  11.279  1.00  0.00     0.162 HD
HETATM    4  O   UNK N   1      37.182  15.645  10.838  0.00  0.00    -0.350 OA
HETATM    5  H   UNK N   1      37.878  16.272  10.821  0.00  0.00     0.219 HD
ENDROOT
BRANCH   1   6
HETATM    6  C   UNK N   1      35.093  15.208   9.630  0.00  0.00     0.086 C 
BRANCH   6   7
HETATM    7  C   UNK N   1      34.688  16.679   9.646  0.00  0.00     0.043 C 
BRANCH   7   8
HETATM    8  C   UNK N   1      33.753  17.026   8.486  0.00  0.00     0.173 C 
BRANCH   8   9
HETATM    9  C   UNK N   1      34.339  18.138   7.669  0.00  0.00     0.163 C 
HETATM   10  O   UNK N   1      34.254  18.117   6.451  0.00  0.00    -0.648 OA
BRANCH   9  11
HETATM   11  O   UNK N   1      34.979  19.155   8.275  0.00  0.00    -0.775 OA
HETATM   12  H   UNK N   1      35.753  19.006   8.783  0.00  0.00     0.167 HD
ENDBRANCH   9  11
ENDBRANCH   8   9
BRANCH   8  13
HETATM   13  N   UNK N   1      32.454  17.442   8.992  0.00  0.00    -0.418 N 
HETATM   14  H   UNK N   1      32.109  17.740   9.905  0.00  0.00     0.150 HD
HETATM   15  H   UNK N   1      31.727  17.433   8.276  0.00  0.00     0.150 HD
ENDBRANCH   8  13
ENDBRANCH   7   8
ENDBRANCH   6   7
ENDBRANCH   1   6
BRANCH   2  16
HETATM   16  C   UNK N   1      36.828  13.367  12.445  0.00  0.00     0.167 C 
BRANCH  16  17
HETATM   17  C   UNK N   1      37.124  11.894  12.131  0.00  0.00     0.107 C 
BRANCH  17  18
HETATM   18  S   UNK N   1      37.649  10.892  13.555  0.00  0.00    -0.167 SA
BRANCH  18  19
HETATM   19  C   UNK N   1      36.784   9.392  13.000  0.00  0.00     0.074 C 
BRANCH  19  20
HETATM   20  C   UNK N   1      35.780   8.968  14.062  0.00  0.00     0.010 C 
BRANCH  20  21
HETATM   21  C   UNK N   1      34.601   9.933  14.170  0.00  0.00     0.001 C 
BRANCH  21  22
HETATM   22  C   UNK N   1      34.519  10.600  15.536  0.00  0.00     0.000 C 
BRANCH  22  23
HETATM   23  C   UNK N   1      35.131   9.683  16.576  0.00  0.00     0.000 C 
BRANCH  23  24
HETATM   24  C   UNK N   1      36.093  10.460  17.454  0.00  0.00    -0.000 C 
BRANCH  24  25
HETATM   25  C   UNK N   1      35.327  11.422  18.343  0.00  0.00    -0.005 C 
HETATM   26  C   UNK N   1      35.194  10.848  19.741  0.00  0.00     0.005 C 
ENDBRANCH  24  25
ENDBRANCH  23  24
ENDBRANCH  22  23
ENDBRANCH  21  22
ENDBRANCH  20  21
ENDBRANCH  19  20
ENDBRANCH  18  19
ENDBRANCH  17  18
ENDBRANCH  16  17
BRANCH  16  27
HETATM   27  C   UNK N   1      36.189  13.578  13.798  0.00  0.00     0.136 C 
HETATM   28  N   UNK N   1      36.948  13.871  14.805  0.00  0.00    -0.363 N 
ATOM     29  HN  UNK N   1      37.956  13.924  14.669  1.00  0.00     0.161 HD
BRANCH  28  30
HETATM   30  C   UNK N   1      36.404  14.123  16.117  0.00  0.00     0.231 C 
BRANCH  30  31
HETATM   31  C   UNK N   1      37.022  15.356  16.693  0.00  0.00     0.158 C 
HETATM   32  O   UNK N   1      37.843  15.989  16.050  0.00  0.00    -0.649 OA
BRANCH  31  33
HETATM   33  O   UNK N   1      36.660  15.775  17.919  0.00  0.00    -0.775 OA
HETATM   34  H   UNK N   1      36.315  16.577  18.260  0.00  0.00     0.167 HD
ENDBRANCH  31  33
ENDBRANCH  30  31
ENDBRANCH  28  30
BRANCH  27  35
HETATM   35  O   UNK N   1      34.856  13.481  13.957  0.00  0.00    -0.348 OA
HETATM   36  H   UNK N   1      34.316  12.941  14.501  0.00  0.00     0.219 HD
ENDBRANCH  27  35
ENDBRANCH  16  27
ENDBRANCH   2  16
TORSDOF 21
ENDMDL
MODEL 7
REMARK VINA RESULT:      -5.9      3.583      5.961
REMARK  21 active torsions:
REMARK  status: ('A' for Active; 'I' for Inactive)
REMARK    1  A    between atoms: C_3  and  C_2 
REMARK    2  A    between atoms: C_4  and  C_3 
REMARK    3  A    between atoms: C_5  and  C_4 
REMARK    4  A    between atoms: C_6  and  C_5 
REMARK    5  A    between atoms: C_7  and  C_6 
REMARK    6  A    between atoms: C_10  and  C_7 
REMARK    7  A    between atoms: C_9  and  C_8 
REMARK    8  A    between atoms: C_13  and  C_8 
REMARK    9  A    between atoms: C_15  and  C_9 
REMARK   10  A    between atoms: S_30  and  C_10 
REMARK   11  A    between atoms: C_16  and  C_11 
REMARK   12  A    between atoms: N_20  and  C_11 
REMARK   13  A    between atoms: C_14  and  C_12 
REMARK   14  A    between atoms: S_30  and  C_12 
REMARK   15  A    between atoms: C_18  and  C_13 
REMARK   16  A    between atoms: C_13  and  N_19 
REMARK   17  A    between atoms: C_17  and  C_14 
REMARK   18  A    between atoms: C_14  and  N_22 
REMARK   19  A    between atoms: O_26  and  C_16 
REMARK   20  A    between atoms: O_27  and  C_17 
REMARK   21  A    between atoms: O_29  and  C_18 
ROOT
HETATM    1  C   UNK N   1      20.602  15.637   6.889  0.00  0.00     0.111 C 
HETATM    2  N   UNK N   1      21.187  16.437   6.058  0.00  0.00    -0.362 N 
ATOM      3  HN  UNK N   1      21.686  17.240   6.443  1.00  0.00     0.162 HD
HETATM    4  O   UNK N   1      19.914  14.564   6.456  0.00  0.00    -0.350 OA
HETATM    5  H   UNK N   1      19.405  13.790   6.312  0.00  0.00     0.219 HD
ENDROOT
BRANCH   1   6
HETATM    6  C   UNK N   1      20.731  15.878   8.358  0.00  0.00     0.086 C 
BRANCH   6   7
HETATM    7  C   UNK N   1      19.386  16.127   9.033  0.00  0.00     0.043 C 
BRANCH   7   8
HETATM    8  C   UNK N   1      18.805  17.493   8.662  0.00  0.00     0.173 C 
BRANCH   8   9
HETATM    9  C   UNK N   1      19.830  18.564   8.883  0.00  0.00     0.163 C 
HETATM   10  O   UNK N   1      19.954  19.079   9.983  0.00  0.00    -0.648 OA
BRANCH   9  11
HETATM   11  O   UNK N   1      20.604  18.977   7.863  0.00  0.00    -0.775 OA
HETATM   12  H   UNK N   1      20.230  19.373   7.099  0.00  0.00     0.167 HD
ENDBRANCH   9  11
ENDBRANCH   8   9
BRANCH   8  13
HETATM   13  N   UNK N   1      17.634  17.781   9.476  0.00  0.00    -0.418 N 
HETATM   14  H   UNK N   1      17.405  17.655  10.462  0.00  0.00     0.150 HD
HETATM   15  H   UNK N   1      16.873  18.201   8.942  0.00  0.00     0.150 HD
ENDBRANCH   8  13
ENDBRANCH   7   8
ENDBRANCH   6   7
ENDBRANCH   1   6
BRANCH   2  16
HETATM   16  C   UNK N   1      21.183  16.273   4.620  0.00  0.00     0.167 C 
BRANCH  16  17
HETATM   17  C   UNK N   1      22.647  16.361   4.170  0.00  0.00     0.107 C 
BRANCH  17  18
HETATM   18  S   UNK N   1      23.760  15.135   4.924  0.00  0.00    -0.167 SA
BRANCH  18  19
HETATM   19  C   UNK N   1      25.084  16.335   5.260  0.00  0.00     0.074 C 
BRANCH  19  20
HETATM   20  C   UNK N   1      26.154  16.219   4.183  0.00  0.00     0.010 C 
BRANCH  20  21
HETATM   21  C   UNK N   1      27.490  16.817   4.619  0.00  0.00     0.001 C 
BRANCH  21  22
HETATM   22  C   UNK N   1      27.329  18.173   5.290  0.00  0.00     0.000 C 
BRANCH  22  23
HETATM   23  C   UNK N   1      27.820  19.256   4.350  0.00  0.00     0.000 C 
BRANCH  23  24
HETATM   24  C   UNK N   1      26.783  20.355   4.233  0.00  0.00    -0.000 C 
BRANCH  24  25
HETATM   25  C   UNK N   1      25.468  19.781   3.737  0.00  0.00    -0.005 C 
HETATM   26  C   UNK N   1      24.952  20.596   2.564  0.00  0.00     0.005 C 
ENDBRANCH  24  25
ENDBRANCH  23  24
ENDBRANCH  22  23
ENDBRANCH  21  22
ENDBRANCH  20  21
ENDBRANCH  19  20
ENDBRANCH  18  19
ENDBRANCH  17  18
ENDBRANCH  16  17
BRANCH  16  27
HETATM   27  C   UNK N   1      20.302  17.344   4.020  0.00  0.00     0.136 C 
HETATM   28  N   UNK N   1      20.838  18.473   3.682  0.00  0.00    -0.363 N 
ATOM     29  HN  UNK N   1      21.831  18.623   3.855  1.00  0.00     0.161 HD
BRANCH  28  30
HETATM   30  C   UNK N   1      20.066  19.527   3.070  0.00  0.00     0.231 C 
BRANCH  30  31
HETATM   31  C   UNK N   1      20.949  20.356   2.194  0.00  0.00     0.158 C 
HETATM   32  O   UNK N   1      21.125  20.045   1.028  0.00  0.00    -0.649 OA
BRANCH  31  33
HETATM   33  O   UNK N   1      21.540  21.457   2.693  0.00  0.00    -0.775 OA
HETATM   34  H   UNK N   1      21.264  22.342   2.830  0.00  0.00     0.167 HD
ENDBRANCH  31  33
ENDBRANCH  30  31
ENDBRANCH  28  30
BRANCH  27  35
HETATM   35  O   UNK N   1      18.987  17.129   3.821  0.00  0.00    -0.348 OA
HETATM   36  H   UNK N   1      18.241  17.697   3.825  0.00  0.00     0.219 HD
ENDBRANCH  27  35
ENDBRANCH  16  27
ENDBRANCH   2  16
TORSDOF 21
ENDMDL
MODEL 8
REMARK VINA RESULT:      -5.9      1.821      2.608
REMARK  21 active torsions:
REMARK  status: ('A' for Active; 'I' for Inactive)
REMARK    1  A    between atoms: C_3  and  C_2 
REMARK    2  A    between atoms: C_4  and  C_3 
REMARK    3  A    between atoms: C_5  and  C_4 
REMARK    4  A    between atoms: C_6  and  C_5 
REMARK    5  A    between atoms: C_7  and  C_6 
REMARK    6  A    between atoms: C_10  and  C_7 
REMARK    7  A    between atoms: C_9  and  C_8 
REMARK    8  A    between atoms: C_13  and  C_8 
REMARK    9  A    between atoms: C_15  and  C_9 
REMARK   10  A    between atoms: S_30  and  C_10 
REMARK   11  A    between atoms: C_16  and  C_11 
REMARK   12  A    between atoms: N_20  and  C_11 
REMARK   13  A    between atoms: C_14  and  C_12 
REMARK   14  A    between atoms: S_30  and  C_12 
REMARK   15  A    between atoms: C_18  and  C_13 
REMARK   16  A    between atoms: C_13  and  N_19 
REMARK   17  A    between atoms: C_17  and  C_14 
REMARK   18  A    between atoms: C_14  and  N_22 
REMARK   19  A    between atoms: O_26  and  C_16 
REMARK   20  A    between atoms: O_27  and  C_17 
REMARK   21  A    between atoms: O_29  and  C_18 
ROOT
HETATM    1  C   UNK N   1      21.614  14.272   7.349  0.00  0.00     0.111 C 
HETATM    2  N   UNK N   1      21.962  15.385   6.787  0.00  0.00    -0.362 N 
ATOM      3  HN  UNK N   1      22.949  15.639   6.809  1.00  0.00     0.162 HD
HETATM    4  O   UNK N   1      20.327  13.876   7.371  0.00  0.00    -0.350 OA
HETATM    5  H   UNK N   1      19.487  13.471   7.469  0.00  0.00     0.219 HD
ENDROOT
BRANCH   1   6
HETATM    6  C   UNK N   1      22.661  13.387   7.940  0.00  0.00     0.086 C 
BRANCH   6   7
HETATM    7  C   UNK N   1      22.077  12.134   8.586  0.00  0.00     0.043 C 
BRANCH   7   8
HETATM    8  C   UNK N   1      22.301  12.115  10.099  0.00  0.00     0.173 C 
BRANCH   8   9
HETATM    9  C   UNK N   1      21.006  12.359  10.813  0.00  0.00     0.163 C 
HETATM   10  O   UNK N   1      20.184  13.134  10.349  0.00  0.00    -0.648 OA
BRANCH   9  11
HETATM   11  O   UNK N   1      20.752  11.740  11.981  0.00  0.00    -0.775 OA
HETATM   12  H   UNK N   1      20.928  10.825  12.093  0.00  0.00     0.167 HD
ENDBRANCH   9  11
ENDBRANCH   8   9
BRANCH   8  13
HETATM   13  N   UNK N   1      23.255  13.144  10.481  0.00  0.00    -0.418 N 
HETATM   14  H   UNK N   1      23.815  13.321  11.315  0.00  0.00     0.150 HD
HETATM   15  H   UNK N   1      23.395  13.846   9.753  0.00  0.00     0.150 HD
ENDBRANCH   8  13
ENDBRANCH   7   8
ENDBRANCH   6   7
ENDBRANCH   1   6
BRANCH   2  16
HETATM   16  C   UNK N   1      21.046  16.293   6.131  0.00  0.00     0.167 C 
BRANCH  16  17
HETATM   17  C   UNK N   1      21.805  16.884   4.936  0.00  0.00     0.107 C 
BRANCH  17  18
HETATM   18  S   UNK N   1      23.616  16.897   5.104  0.00  0.00    -0.167 SA
BRANCH  18  19
HETATM   19  C   UNK N   1      23.813  18.558   4.391  0.00  0.00     0.074 C 
BRANCH  19  20
HETATM   20  C   UNK N   1      25.120  18.622   3.615  0.00  0.00     0.010 C 
BRANCH  20  21
HETATM   21  C   UNK N   1      26.111  17.543   4.050  0.00  0.00     0.001 C 
BRANCH  21  22
HETATM   22  C   UNK N   1      27.549  17.898   3.699  0.00  0.00     0.000 C 
BRANCH  22  23
HETATM   23  C   UNK N   1      28.257  18.395   4.944  0.00  0.00     0.000 C 
BRANCH  23  24
HETATM   24  C   UNK N   1      28.087  19.896   5.077  0.00  0.00    -0.000 C 
BRANCH  24  25
HETATM   25  C   UNK N   1      27.254  20.219   6.304  0.00  0.00    -0.005 C 
HETATM   26  C   UNK N   1      26.944  21.705   6.348  0.00  0.00     0.005 C 
ENDBRANCH  24  25
ENDBRANCH  23  24
ENDBRANCH  22  23
ENDBRANCH  21  22
ENDBRANCH  20  21
ENDBRANCH  19  20
ENDBRANCH  18  19
ENDBRANCH  17  18
ENDBRANCH  16  17
BRANCH  16  27
HETATM   27  C   UNK N   1      20.600  17.331   7.135  0.00  0.00     0.136 C 
HETATM   28  N   UNK N   1      19.782  16.977   8.075  0.00  0.00    -0.363 N 
ATOM     29  HN  UNK N   1      19.437  16.018   8.097  1.00  0.00     0.161 HD
BRANCH  28  30
HETATM   30  C   UNK N   1      19.344  17.904   9.089  0.00  0.00     0.231 C 
BRANCH  30  31
HETATM   31  C   UNK N   1      17.939  17.590   9.487  0.00  0.00     0.158 C 
HETATM   32  O   UNK N   1      17.391  16.584   9.069  0.00  0.00    -0.649 OA
BRANCH  31  33
HETATM   33  O   UNK N   1      17.281  18.415  10.323  0.00  0.00    -0.775 OA
HETATM   34  H   UNK N   1      16.544  18.316  10.893  0.00  0.00     0.167 HD
ENDBRANCH  31  33
ENDBRANCH  30  31
ENDBRANCH  28  30
BRANCH  27  35
HETATM   35  O   UNK N   1      21.055  18.597   7.072  0.00  0.00    -0.348 OA
HETATM   36  H   UNK N   1      21.359  19.130   6.363  0.00  0.00     0.219 HD
ENDBRANCH  27  35
ENDBRANCH  16  27
ENDBRANCH   2  16
TORSDOF 21
ENDMDL
MODEL 9
REMARK VINA RESULT:      -5.8      9.971     12.267
REMARK  21 active torsions:
REMARK  status: ('A' for Active; 'I' for Inactive)
REMARK    1  A    between atoms: C_3  and  C_2 
REMARK    2  A    between atoms: C_4  and  C_3 
REMARK    3  A    between atoms: C_5  and  C_4 
REMARK    4  A    between atoms: C_6  and  C_5 
REMARK    5  A    between atoms: C_7  and  C_6 
REMARK    6  A    between atoms: C_10  and  C_7 
REMARK    7  A    between atoms: C_9  and  C_8 
REMARK    8  A    between atoms: C_13  and  C_8 
REMARK    9  A    between atoms: C_15  and  C_9 
REMARK   10  A    between atoms: S_30  and  C_10 
REMARK   11  A    between atoms: C_16  and  C_11 
REMARK   12  A    between atoms: N_20  and  C_11 
REMARK   13  A    between atoms: C_14  and  C_12 
REMARK   14  A    between atoms: S_30  and  C_12 
REMARK   15  A    between atoms: C_18  and  C_13 
REMARK   16  A    between atoms: C_13  and  N_19 
REMARK   17  A    between atoms: C_17  and  C_14 
REMARK   18  A    between atoms: C_14  and  N_22 
REMARK   19  A    between atoms: O_26  and  C_16 
REMARK   20  A    between atoms: O_27  and  C_17 
REMARK   21  A    between atoms: O_29  and  C_18 
ROOT
HETATM    1  C   UNK N   1      34.808  16.641  10.155  0.00  0.00     0.111 C 
HETATM    2  N   UNK N   1      33.684  16.368   9.575  0.00  0.00    -0.362 N 
ATOM      3  HN  UNK N   1      33.243  15.475   9.792  1.00  0.00     0.162 HD
HETATM    4  O   UNK N   1      35.456  17.796   9.909  0.00  0.00    -0.350 OA
HETATM    5  H   UNK N   1      36.019  18.542   9.841  0.00  0.00     0.219 HD
ENDROOT
BRANCH   1   6
HETATM    6  C   UNK N   1      35.374  15.683  11.151  0.00  0.00     0.086 C 
BRANCH   6   7
HETATM    7  C   UNK N   1      35.084  14.227  10.798  0.00  0.00     0.043 C 
BRANCH   7   8
HETATM    8  C   UNK N   1      35.849  13.258  11.701  0.00  0.00     0.173 C 
BRANCH   8   9
HETATM    9  C   UNK N   1      34.957  12.768  12.801  0.00  0.00     0.163 C 
HETATM   10  O   UNK N   1      34.859  13.400  13.842  0.00  0.00    -0.648 OA
BRANCH   9  11
HETATM   11  O   UNK N   1      34.274  11.617  12.654  0.00  0.00    -0.775 OA
HETATM   12  H   UNK N   1      33.721  11.474  11.911  0.00  0.00     0.167 HD
ENDBRANCH   9  11
ENDBRANCH   8   9
BRANCH   8  13
HETATM   13  N   UNK N   1      37.005  13.920  12.286  0.00  0.00    -0.418 N 
HETATM   14  H   UNK N   1      37.896  14.252  11.918  0.00  0.00     0.150 HD
HETATM   15  H   UNK N   1      36.902  14.088  13.287  0.00  0.00     0.150 HD
ENDBRANCH   8  13
ENDBRANCH   7   8
ENDBRANCH   6   7
ENDBRANCH   1   6
BRANCH   2  16
HETATM   16  C   UNK N   1      33.011  17.244   8.639  0.00  0.00     0.167 C 
BRANCH  16  17
HETATM   17  C   UNK N   1      31.543  16.797   8.609  0.00  0.00     0.107 C 
BRANCH  17  18
HETATM   18  S   UNK N   1      30.328  18.121   8.889  0.00  0.00    -0.167 SA
BRANCH  18  19
HETATM   19  C   UNK N   1      29.248  17.615   7.517  0.00  0.00     0.074 C 
BRANCH  19  20
HETATM   20  C   UNK N   1      30.096  17.336   6.284  0.00  0.00     0.010 C 
BRANCH  20  21
HETATM   21  C   UNK N   1      29.251  17.099   5.035  0.00  0.00     0.001 C 
BRANCH  21  22
HETATM   22  C   UNK N   1      27.812  17.565   5.208  0.00  0.00     0.000 C 
BRANCH  22  23
HETATM   23  C   UNK N   1      27.464  18.534   4.096  0.00  0.00     0.000 C 
BRANCH  23  24
HETATM   24  C   UNK N   1      27.952  19.927   4.446  0.00  0.00    -0.000 C 
BRANCH  24  25
HETATM   25  C   UNK N   1      26.827  20.731   5.071  0.00  0.00    -0.005 C 
HETATM   26  C   UNK N   1      27.282  21.326   6.391  0.00  0.00     0.005 C 
ENDBRANCH  24  25
ENDBRANCH  23  24
ENDBRANCH  22  23
ENDBRANCH  21  22
ENDBRANCH  20  21
ENDBRANCH  19  20
ENDBRANCH  18  19
ENDBRANCH  17  18
ENDBRANCH  16  17
BRANCH  16  27
HETATM   27  C   UNK N   1      33.702  17.133   7.300  0.00  0.00     0.136 C 
HETATM   28  N   UNK N   1      33.475  16.090   6.567  0.00  0.00    -0.363 N 
ATOM     29  HN  UNK N   1      32.861  15.358   6.921  1.00  0.00     0.161 HD
BRANCH  28  30
HETATM   30  C   UNK N   1      34.071  15.936   5.262  0.00  0.00     0.231 C 
BRANCH  30  31
HETATM   31  C   UNK N   1      33.126  16.428   4.214  0.00  0.00     0.158 C 
HETATM   32  O   UNK N   1      32.986  17.625   4.026  0.00  0.00    -0.649 OA
BRANCH  31  33
HETATM   33  O   UNK N   1      32.438  15.546   3.467  0.00  0.00    -0.775 OA
HETATM   34  H   UNK N   1      31.591  15.149   3.536  0.00  0.00     0.167 HD
ENDBRANCH  31  33
ENDBRANCH  30  31
ENDBRANCH  28  30
BRANCH  27  35
HETATM   35  O   UNK N   1      34.526  18.104   6.863  0.00  0.00    -0.348 OA
HETATM   36  H   UNK N   1      35.148  18.656   7.297  0.00  0.00     0.219 HD
ENDBRANCH  27  35
ENDBRANCH  16  27
ENDBRANCH   2  16
TORSDOF 21
ENDMDL
