MODEL 1
REMARK VINA RESULT:      -4.8      0.000      0.000
REMARK  3 active torsions:
REMARK  status: ('A' for Active; 'I' for Inactive)
REMARK    1  A    between atoms: N_1  and  C_2 
REMARK    2  A    between atoms: C_7  and  C_8 
REMARK    3  A    between atoms: C_8  and  O_9 
ROOT
HETATM    1  C   UNK N   1      23.747  12.577  10.697  0.00  0.00     0.034 A 
HETATM    2  C   UNK N   1      23.394  13.087   9.443  0.00  0.00     0.029 A 
HETATM    3  C   UNK N   1      22.049  13.218   9.090  0.00  0.00     0.002 A 
HETATM    4  C   UNK N   1      21.050  12.841   9.988  0.00  0.00     0.001 A 
HETATM    5  C   UNK N   1      21.396  12.331  11.241  0.00  0.00     0.011 A 
HETATM    6  C   UNK N   1      22.744  12.194  11.608  0.00  0.00    -0.009 A 
ENDROOT
BRANCH   1   7
HETATM    7  N   UNK N   1      25.113  12.453  11.032  0.00  0.00    -0.399 N 
HETATM    8  H   UNK N   1      25.468  12.909  11.828  0.00  0.00     0.156 HD
HETATM    9  H   UNK N   1      25.711  11.909  10.469  0.00  0.00     0.156 HD
ENDBRANCH   1   7
BRANCH   6  10
HETATM   10  C   UNK N   1      23.107  11.645  12.959  0.00  0.00     0.205 C 
BRANCH  10  11
HETATM   11  O   UNK N   1      23.853  12.563  13.703  0.00  0.00    -0.396 OA
HETATM   12  H   UNK N   1      24.060  13.435  13.331  0.00  0.00     0.209 HD
ENDBRANCH  10  11
ENDBRANCH   6  10
TORSDOF 3
ENDMDL
MODEL 2
REMARK VINA RESULT:      -4.6      1.650      2.326
REMARK  3 active torsions:
REMARK  status: ('A' for Active; 'I' for Inactive)
REMARK    1  A    between atoms: N_1  and  C_2 
REMARK    2  A    between atoms: C_7  and  C_8 
REMARK    3  A    between atoms: C_8  and  O_9 
ROOT
HETATM    1  C   UNK N   1      21.958  12.138  10.995  0.00  0.00     0.034 A 
HETATM    2  C   UNK N   1      21.990  12.387   9.618  0.00  0.00     0.029 A 
HETATM    3  C   UNK N   1      23.212  12.522   8.955  0.00  0.00     0.002 A 
HETATM    4  C   UNK N   1      24.409  12.410   9.665  0.00  0.00     0.001 A 
HETATM    5  C   UNK N   1      24.384  12.162  11.038  0.00  0.00     0.011 A 
HETATM    6  C   UNK N   1      23.162  12.024  11.716  0.00  0.00    -0.009 A 
ENDROOT
BRANCH   1   7
HETATM    7  N   UNK N   1      20.711  12.004  11.643  0.00  0.00    -0.399 N 
HETATM    8  H   UNK N   1      20.670  11.955  12.625  0.00  0.00     0.156 HD
HETATM    9  H   UNK N   1      19.883  11.960  11.113  0.00  0.00     0.156 HD
ENDBRANCH   1   7
BRANCH   6  10
HETATM   10  C   UNK N   1      23.145  11.757  13.195  0.00  0.00     0.205 C 
BRANCH  10  11
HETATM   11  O   UNK N   1      23.957  12.659  13.889  0.00  0.00    -0.396 OA
HETATM   12  H   UNK N   1      24.257  12.449  14.787  0.00  0.00     0.209 HD
ENDBRANCH  10  11
ENDBRANCH   6  10
TORSDOF 3
ENDMDL
MODEL 3
REMARK VINA RESULT:      -4.5      1.498      2.332
REMARK  3 active torsions:
REMARK  status: ('A' for Active; 'I' for Inactive)
REMARK    1  A    between atoms: N_1  and  C_2 
REMARK    2  A    between atoms: C_7  and  C_8 
REMARK    3  A    between atoms: C_8  and  O_9 
ROOT
HETATM    1  C   UNK N   1      22.302  12.108  11.408  0.00  0.00     0.034 A 
HETATM    2  C   UNK N   1      20.944  12.427  11.297  0.00  0.00     0.029 A 
HETATM    3  C   UNK N   1      20.492  13.222  10.241  0.00  0.00     0.002 A 
HETATM    4  C   UNK N   1      21.394  13.703   9.291  0.00  0.00     0.001 A 
HETATM    5  C   UNK N   1      22.750  13.388   9.397  0.00  0.00     0.011 A 
HETATM    6  C   UNK N   1      23.218  12.590  10.453  0.00  0.00    -0.009 A 
ENDROOT
BRANCH   1   7
HETATM    7  N   UNK N   1      22.735  11.303  12.484  0.00  0.00    -0.399 N 
HETATM    8  H   UNK N   1      22.155  10.587  12.828  0.00  0.00     0.156 HD
HETATM    9  H   UNK N   1      23.619  11.458  12.889  0.00  0.00     0.156 HD
ENDBRANCH   1   7
BRANCH   6  10
HETATM   10  C   UNK N   1      24.678  12.256  10.559  0.00  0.00     0.205 C 
BRANCH  10  11
HETATM   11  O   UNK N   1      25.196  12.608  11.809  0.00  0.00    -0.396 OA
HETATM   12  H   UNK N   1      26.152  12.735  11.920  0.00  0.00     0.209 HD
ENDBRANCH  10  11
ENDBRANCH   6  10
TORSDOF 3
ENDMDL
MODEL 4
REMARK VINA RESULT:      -4.4     10.371     11.768
REMARK  3 active torsions:
REMARK  status: ('A' for Active; 'I' for Inactive)
REMARK    1  A    between atoms: N_1  and  C_2 
REMARK    2  A    between atoms: C_7  and  C_8 
REMARK    3  A    between atoms: C_8  and  O_9 
ROOT
HETATM    1  C   UNK N   1      20.140  18.968   2.718  0.00  0.00     0.034 A 
HETATM    2  C   UNK N   1      20.577  18.052   3.681  0.00  0.00     0.029 A 
HETATM    3  C   UNK N   1      21.867  18.147   4.209  0.00  0.00     0.002 A 
HETATM    4  C   UNK N   1      22.726  19.159   3.779  0.00  0.00     0.001 A 
HETATM    5  C   UNK N   1      22.296  20.076   2.819  0.00  0.00     0.011 A 
HETATM    6  C   UNK N   1      21.002  19.992   2.280  0.00  0.00    -0.009 A 
ENDROOT
BRANCH   1   7
HETATM    7  N   UNK N   1      18.832  18.853   2.198  0.00  0.00    -0.399 N 
HETATM    8  H   UNK N   1      18.585  18.068   1.659  0.00  0.00     0.156 HD
HETATM    9  H   UNK N   1      18.168  19.558   2.375  0.00  0.00     0.156 HD
ENDBRANCH   1   7
BRANCH   6  10
HETATM   10  C   UNK N   1      20.548  20.984   1.247  0.00  0.00     0.205 C 
BRANCH  10  11
HETATM   11  O   UNK N   1      20.577  20.437  -0.039  0.00  0.00    -0.396 OA
HETATM   12  H   UNK N   1      20.051  19.647  -0.242  0.00  0.00     0.209 HD
ENDBRANCH  10  11
ENDBRANCH   6  10
TORSDOF 3
ENDMDL
MODEL 5
REMARK VINA RESULT:      -4.3     19.568     20.762
REMARK  3 active torsions:
REMARK  status: ('A' for Active; 'I' for Inactive)
REMARK    1  A    between atoms: N_1  and  C_2 
REMARK    2  A    between atoms: C_7  and  C_8 
REMARK    3  A    between atoms: C_8  and  O_9 
ROOT
HETATM    1  C   UNK N   1      25.546  25.593  -5.407  0.00  0.00     0.034 A 
HETATM    2  C   UNK N   1      24.962  26.828  -5.713  0.00  0.00     0.029 A 
HETATM    3  C   UNK N   1      25.093  27.905  -4.833  0.00  0.00     0.002 A 
HETATM    4  C   UNK N   1      25.808  27.755  -3.644  0.00  0.00     0.001 A 
HETATM    5  C   UNK N   1      26.393  26.526  -3.333  0.00  0.00     0.011 A 
HETATM    6  C   UNK N   1      26.269  25.435  -4.208  0.00  0.00    -0.009 A 
ENDROOT
BRANCH   1   7
HETATM    7  N   UNK N   1      25.401  24.519  -6.311  0.00  0.00    -0.399 N 
HETATM    8  H   UNK N   1      25.283  24.696  -7.272  0.00  0.00     0.156 HD
HETATM    9  H   UNK N   1      25.418  23.592  -5.980  0.00  0.00     0.156 HD
ENDBRANCH   1   7
BRANCH   6  10
HETATM   10  C   UNK N   1      26.901  24.116  -3.866  0.00  0.00     0.205 C 
BRANCH  10  11
HETATM   11  O   UNK N   1      26.960  23.918  -2.484  0.00  0.00    -0.396 OA
HETATM   12  H   UNK N   1      26.693  24.629  -1.880  0.00  0.00     0.209 HD
ENDBRANCH  10  11
ENDBRANCH   6  10
TORSDOF 3
ENDMDL
MODEL 6
REMARK VINA RESULT:      -4.2     10.989     12.086
REMARK  3 active torsions:
REMARK  status: ('A' for Active; 'I' for Inactive)
REMARK    1  A    between atoms: N_1  and  C_2 
REMARK    2  A    between atoms: C_7  and  C_8 
REMARK    3  A    between atoms: C_8  and  O_9 
ROOT
HETATM    1  C   UNK N   1      32.075  17.437   7.721  0.00  0.00     0.034 A 
HETATM    2  C   UNK N   1      31.116  17.211   6.728  0.00  0.00     0.029 A 
HETATM    3  C   UNK N   1      31.493  17.160   5.383  0.00  0.00     0.002 A 
HETATM    4  C   UNK N   1      32.831  17.335   5.025  0.00  0.00     0.001 A 
HETATM    5  C   UNK N   1      33.792  17.561   6.011  0.00  0.00     0.011 A 
HETATM    6  C   UNK N   1      33.426  17.614   7.366  0.00  0.00    -0.009 A 
ENDROOT
BRANCH   1   7
HETATM    7  N   UNK N   1      31.670  17.484   9.073  0.00  0.00    -0.399 N 
HETATM    8  H   UNK N   1      31.663  16.662   9.614  0.00  0.00     0.156 HD
HETATM    9  H   UNK N   1      31.395  18.340   9.474  0.00  0.00     0.156 HD
ENDBRANCH   1   7
BRANCH   6  10
HETATM   10  C   UNK N   1      34.468  17.858   8.421  0.00  0.00     0.205 C 
BRANCH  10  11
HETATM   11  O   UNK N   1      34.998  19.149   8.331  0.00  0.00    -0.396 OA
HETATM   12  H   UNK N   1      34.435  19.918   8.510  0.00  0.00     0.209 HD
ENDBRANCH  10  11
ENDBRANCH   6  10
TORSDOF 3
ENDMDL
MODEL 7
REMARK VINA RESULT:      -4.2      2.227      2.987
REMARK  3 active torsions:
REMARK  status: ('A' for Active; 'I' for Inactive)
REMARK    1  A    between atoms: N_1  and  C_2 
REMARK    2  A    between atoms: C_7  and  C_8 
REMARK    3  A    between atoms: C_8  and  O_9 
ROOT
HETATM    1  C   UNK N   1      23.039  12.019  11.630  0.00  0.00     0.034 A 
HETATM    2  C   UNK N   1      24.400  12.081  11.314  0.00  0.00     0.029 A 
HETATM    3  C   UNK N   1      24.817  12.641  10.104  0.00  0.00     0.002 A 
HETATM    4  C   UNK N   1      23.876  13.143   9.204  0.00  0.00     0.001 A 
HETATM    5  C   UNK N   1      22.517  13.084   9.513  0.00  0.00     0.011 A 
HETATM    6  C   UNK N   1      22.083  12.523  10.726  0.00  0.00    -0.009 A 
ENDROOT
BRANCH   1   7
HETATM    7  N   UNK N   1      22.640  11.449  12.858  0.00  0.00    -0.399 N 
HETATM    8  H   UNK N   1      22.461  12.026  13.634  0.00  0.00     0.156 HD
HETATM    9  H   UNK N   1      22.542  10.472  12.938  0.00  0.00     0.156 HD
ENDBRANCH   1   7
BRANCH   6  10
HETATM   10  C   UNK N   1      20.618  12.464  11.050  0.00  0.00     0.205 C 
BRANCH  10  11
HETATM   11  O   UNK N   1      19.880  13.346  10.255  0.00  0.00    -0.396 OA
HETATM   12  H   UNK N   1      20.261  14.199   9.995  0.00  0.00     0.209 HD
ENDBRANCH  10  11
ENDBRANCH   6  10
TORSDOF 3
ENDMDL
MODEL 8
REMARK VINA RESULT:      -4.1     11.328     11.931
REMARK  3 active torsions:
REMARK  status: ('A' for Active; 'I' for Inactive)
REMARK    1  A    between atoms: N_1  and  C_2 
REMARK    2  A    between atoms: C_7  and  C_8 
REMARK    3  A    between atoms: C_8  and  O_9 
ROOT
HETATM    1  C   UNK N   1      34.445  17.011   9.277  0.00  0.00     0.034 A 
HETATM    2  C   UNK N   1      34.429  18.052   8.343  0.00  0.00     0.029 A 
HETATM    3  C   UNK N   1      33.812  17.875   7.102  0.00  0.00     0.002 A 
HETATM    4  C   UNK N   1      33.209  16.656   6.788  0.00  0.00     0.001 A 
HETATM    5  C   UNK N   1      33.221  15.614   7.716  0.00  0.00     0.011 A 
HETATM    6  C   UNK N   1      33.838  15.779   8.967  0.00  0.00    -0.009 A 
ENDROOT
BRANCH   1   7
HETATM    7  N   UNK N   1      35.074  17.213  10.525  0.00  0.00    -0.399 N 
HETATM    8  H   UNK N   1      34.889  18.029  11.044  0.00  0.00     0.156 HD
HETATM    9  H   UNK N   1      35.699  16.538  10.876  0.00  0.00     0.156 HD
ENDBRANCH   1   7
BRANCH   6  10
HETATM   10  C   UNK N   1      33.847  14.651   9.960  0.00  0.00     0.205 C 
BRANCH  10  11
HETATM   11  O   UNK N   1      33.163  14.992  11.131  0.00  0.00    -0.396 OA
HETATM   12  H   UNK N   1      32.202  15.122  11.111  0.00  0.00     0.209 HD
ENDBRANCH  10  11
ENDBRANCH   6  10
TORSDOF 3
ENDMDL
MODEL 9
REMARK VINA RESULT:      -4.1      1.746      2.535
REMARK  3 active torsions:
REMARK  status: ('A' for Active; 'I' for Inactive)
REMARK    1  A    between atoms: N_1  and  C_2 
REMARK    2  A    between atoms: C_7  and  C_8 
REMARK    3  A    between atoms: C_8  and  O_9 
ROOT
HETATM    1  C   UNK N   1      22.445  13.257   9.483  0.00  0.00     0.034 A 
HETATM    2  C   UNK N   1      21.069  13.267   9.734  0.00  0.00     0.029 A 
HETATM    3  C   UNK N   1      20.558  12.653  10.880  0.00  0.00     0.002 A 
HETATM    4  C   UNK N   1      21.419  12.027  11.782  0.00  0.00     0.001 A 
HETATM    5  C   UNK N   1      22.793  12.014  11.537  0.00  0.00     0.011 A 
HETATM    6  C   UNK N   1      23.320  12.626  10.389  0.00  0.00    -0.009 A 
ENDROOT
BRANCH   1   7
HETATM    7  N   UNK N   1      22.939  13.883   8.318  0.00  0.00    -0.399 N 
HETATM    8  H   UNK N   1      23.903  13.863   8.119  0.00  0.00     0.156 HD
HETATM    9  H   UNK N   1      22.320  14.339   7.704  0.00  0.00     0.156 HD
ENDBRANCH   1   7
BRANCH   6  10
HETATM   10  C   UNK N   1      24.801  12.607  10.134  0.00  0.00     0.205 C 
BRANCH  10  11
HETATM   11  O   UNK N   1      25.523  12.969  11.275  0.00  0.00    -0.396 OA
HETATM   12  H   UNK N   1      25.182  12.748  12.155  0.00  0.00     0.209 HD
ENDBRANCH  10  11
ENDBRANCH   6  10
TORSDOF 3
ENDMDL
