MODEL 1
REMARK VINA RESULT:      -6.4      0.000      0.000
REMARK  5 active torsions:
REMARK  status: ('A' for Active; 'I' for Inactive)
REMARK    1  A    between atoms: C_12  and  C_7 
REMARK    2  A    between atoms: O_22  and  C_10 
REMARK    3  A    between atoms: C_13  and  C_11 
REMARK    4  A    between atoms: N_14  and  C_12 
REMARK    5  A    between atoms: N_16  and  C_12 
ROOT
HETATM    1  C   UNK N   1      29.804  17.401   6.335  0.00  0.00     0.017 A 
HETATM    2  C   UNK N   1      31.032  16.751   6.072  0.00  0.00     0.033 A 
HETATM    3  C   UNK N   1      30.362  17.550   8.712  0.00  0.00     0.047 A 
HETATM    4  C   UNK N   1      29.465  17.802   7.659  0.00  0.00     0.009 A 
HETATM    5  C   UNK N   1      31.880  16.526   7.152  0.00  0.00     0.060 A 
HETATM    6  C   UNK N   1      31.552  16.912   8.412  0.00  0.00     0.061 A 
HETATM    7  C   UNK N   1      33.454  15.979   8.477  0.00  0.00     0.136 A 
HETATM    8  N   UNK N   1      33.088  15.929   7.167  0.00  0.00    -0.339 N 
ATOM      9  HN  UNK N   1      33.606  15.535   6.382  1.00  0.00     0.167 HD
HETATM   10  N   UNK N   1      32.523  16.579   9.260  0.00  0.00    -0.339 N 
HETATM   11  H   UNK N   1      32.558  16.734  10.231  0.00  0.00     0.167 HD
ENDROOT
BRANCH   7  12
HETATM   12  C   UNK N   1      34.720  15.434   9.012  0.00  0.00     0.110 A 
HETATM   13  C   UNK N   1      35.361  16.025  10.124  0.00  0.00     0.096 A 
HETATM   14  C   UNK N   1      36.552  15.480  10.599  0.00  0.00     0.040 A 
HETATM   15  C   UNK N   1      37.100  14.362   9.976  0.00  0.00     0.020 A 
HETATM   16  C   UNK N   1      36.445  13.799   8.880  0.00  0.00     0.088 A 
HETATM   17  N   UNK N   1      35.281  14.339   8.424  0.00  0.00    -0.361 N 
ATOM     18  HN  UNK N   1      34.818  13.914   7.622  1.00  0.00     0.165 HD
BRANCH  13  19
HETATM   19  O   UNK N   1      34.845  17.105  10.739  0.00  0.00    -0.358 OA
HETATM   20  H   UNK N   1      35.415  17.750  11.110  0.00  0.00     0.217 HD
ENDBRANCH  13  19
ENDBRANCH   7  12
BRANCH   4  21
HETATM   21  C   UNK N   1      28.185  18.480   7.954  0.00  0.00     0.102 C 
BRANCH  21  22
HETATM   22  N   UNK N   1      27.711  18.489   9.145  0.00  0.00    -0.385 N 
HETATM   23  H   UNK N   1      28.145  19.031   9.843  0.00  0.00     0.157 HD
ATOM     24  HN  UNK N   1      26.886  17.934   9.370  1.00  0.00     0.157 HD
ENDBRANCH  21  22
BRANCH  21  25
HETATM   25  N   UNK N   1      27.474  19.131   6.918  0.00  0.00    -0.385 N 
HETATM   26  H   UNK N   1      26.692  18.696   6.508  0.00  0.00     0.157 HD
HETATM   27  H   UNK N   1      27.762  20.021   6.608  0.00  0.00     0.157 HD
ENDBRANCH  21  25
ENDBRANCH   4  21
TORSDOF 5
ENDMDL
MODEL 2
REMARK VINA RESULT:      -6.3      4.674      7.254
REMARK  5 active torsions:
REMARK  status: ('A' for Active; 'I' for Inactive)
REMARK    1  A    between atoms: C_12  and  C_7 
REMARK    2  A    between atoms: O_22  and  C_10 
REMARK    3  A    between atoms: C_13  and  C_11 
REMARK    4  A    between atoms: N_14  and  C_12 
REMARK    5  A    between atoms: N_16  and  C_12 
ROOT
HETATM    1  C   UNK N   1      24.833  20.513   2.773  0.00  0.00     0.017 A 
HETATM    2  C   UNK N   1      26.205  20.506   3.116  0.00  0.00     0.033 A 
HETATM    3  C   UNK N   1      24.336  18.980   4.614  0.00  0.00     0.047 A 
HETATM    4  C   UNK N   1      23.894  19.748   3.523  0.00  0.00     0.009 A 
HETATM    5  C   UNK N   1      26.587  19.727   4.205  0.00  0.00     0.060 A 
HETATM    6  C   UNK N   1      25.687  19.001   4.916  0.00  0.00     0.061 A 
HETATM    7  C   UNK N   1      27.606  18.693   5.763  0.00  0.00     0.136 A 
HETATM    8  N   UNK N   1      27.817  19.549   4.725  0.00  0.00    -0.339 N 
ATOM      9  HN  UNK N   1      28.697  19.959   4.414  1.00  0.00     0.167 HD
HETATM   10  N   UNK N   1      26.302  18.344   5.898  0.00  0.00    -0.339 N 
HETATM   11  H   UNK N   1      25.903  17.744   6.567  0.00  0.00     0.167 HD
ENDROOT
BRANCH   7  12
HETATM   12  C   UNK N   1      28.669  18.181   6.652  0.00  0.00     0.110 A 
HETATM   13  C   UNK N   1      28.604  18.362   8.052  0.00  0.00     0.096 A 
HETATM   14  C   UNK N   1      29.626  17.861   8.856  0.00  0.00     0.040 A 
HETATM   15  C   UNK N   1      30.700  17.190   8.277  0.00  0.00     0.020 A 
HETATM   16  C   UNK N   1      30.737  17.026   6.891  0.00  0.00     0.088 A 
HETATM   17  N   UNK N   1      29.733  17.519   6.114  0.00  0.00    -0.361 N 
ATOM     18  HN  UNK N   1      29.778  17.389   5.104  1.00  0.00     0.165 HD
BRANCH  13  19
HETATM   19  O   UNK N   1      27.574  19.006   8.629  0.00  0.00    -0.358 OA
HETATM   20  H   UNK N   1      27.407  19.904   8.420  0.00  0.00     0.217 HD
ENDBRANCH  13  19
ENDBRANCH   7  12
BRANCH   4  21
HETATM   21  C   UNK N   1      22.456  19.740   3.177  0.00  0.00     0.102 C 
BRANCH  21  22
HETATM   22  N   UNK N   1      21.943  20.701   2.502  0.00  0.00    -0.385 N 
HETATM   23  H   UNK N   1      22.510  21.446   2.199  0.00  0.00     0.157 HD
ATOM     24  HN  UNK N   1      20.948  20.693   2.281  1.00  0.00     0.157 HD
ENDBRANCH  21  22
BRANCH  21  25
HETATM   25  N   UNK N   1      21.636  18.661   3.587  0.00  0.00    -0.385 N 
HETATM   26  H   UNK N   1      20.663  18.785   3.665  0.00  0.00     0.157 HD
HETATM   27  H   UNK N   1      22.041  17.787   3.795  0.00  0.00     0.157 HD
ENDBRANCH  21  25
ENDBRANCH   4  21
TORSDOF 5
ENDMDL
MODEL 3
REMARK VINA RESULT:      -6.2      6.491      9.638
REMARK  5 active torsions:
REMARK  status: ('A' for Active; 'I' for Inactive)
REMARK    1  A    between atoms: C_12  and  C_7 
REMARK    2  A    between atoms: O_22  and  C_10 
REMARK    3  A    between atoms: C_13  and  C_11 
REMARK    4  A    between atoms: N_14  and  C_12 
REMARK    5  A    between atoms: N_16  and  C_12 
ROOT
HETATM    1  C   UNK N   1      35.743  10.871  17.561  0.00  0.00     0.017 A 
HETATM    2  C   UNK N   1      36.051  10.554  16.217  0.00  0.00     0.033 A 
HETATM    3  C   UNK N   1      35.535  13.239  16.982  0.00  0.00     0.047 A 
HETATM    4  C   UNK N   1      35.484  12.218  17.947  0.00  0.00     0.009 A 
HETATM    5  C   UNK N   1      36.089  11.605  15.305  0.00  0.00     0.060 A 
HETATM    6  C   UNK N   1      35.840  12.886  15.680  0.00  0.00     0.061 A 
HETATM    7  C   UNK N   1      36.261  12.870  13.602  0.00  0.00     0.136 A 
HETATM    8  N   UNK N   1      36.359  11.568  13.986  0.00  0.00    -0.339 N 
ATOM      9  HN  UNK N   1      36.582  10.756  13.411  1.00  0.00     0.167 HD
HETATM   10  N   UNK N   1      35.943  13.698  14.628  0.00  0.00    -0.339 N 
HETATM   11  H   UNK N   1      35.816  14.673  14.603  0.00  0.00     0.167 HD
ENDROOT
BRANCH   7  12
HETATM   12  C   UNK N   1      36.483  13.353  12.223  0.00  0.00     0.110 A 
HETATM   13  C   UNK N   1      35.443  13.959  11.482  0.00  0.00     0.096 A 
HETATM   14  C   UNK N   1      35.695  14.404  10.185  0.00  0.00     0.040 A 
HETATM   15  C   UNK N   1      36.962  14.248   9.631  0.00  0.00     0.020 A 
HETATM   16  C   UNK N   1      37.970  13.646  10.387  0.00  0.00     0.088 A 
HETATM   17  N   UNK N   1      37.714  13.215  11.653  0.00  0.00    -0.361 N 
ATOM     18  HN  UNK N   1      38.464  12.778  12.189  1.00  0.00     0.165 HD
BRANCH  13  19
HETATM   19  O   UNK N   1      34.213  14.120  12.001  0.00  0.00    -0.358 OA
HETATM   20  H   UNK N   1      33.512  13.562  11.725  0.00  0.00     0.217 HD
ENDBRANCH  13  19
ENDBRANCH   7  12
BRANCH   4  21
HETATM   21  C   UNK N   1      35.164  12.569  19.347  0.00  0.00     0.102 C 
BRANCH  21  22
HETATM   22  N   UNK N   1      35.230  11.685  20.272  0.00  0.00    -0.385 N 
HETATM   23  H   UNK N   1      34.580  10.946  20.292  0.00  0.00     0.157 HD
ATOM     24  HN  UNK N   1      35.954  11.748  20.987  1.00  0.00     0.157 HD
ENDBRANCH  21  22
BRANCH  21  25
HETATM   25  N   UNK N   1      34.787  13.894  19.675  0.00  0.00    -0.385 N 
HETATM   26  H   UNK N   1      33.836  14.121  19.786  0.00  0.00     0.157 HD
HETATM   27  H   UNK N   1      35.477  14.587  19.792  0.00  0.00     0.157 HD
ENDBRANCH  21  25
ENDBRANCH   4  21
TORSDOF 5
ENDMDL
MODEL 4
REMARK VINA RESULT:      -6.2      6.987      9.975
REMARK  5 active torsions:
REMARK  status: ('A' for Active; 'I' for Inactive)
REMARK    1  A    between atoms: C_12  and  C_7 
REMARK    2  A    between atoms: O_22  and  C_10 
REMARK    3  A    between atoms: C_13  and  C_11 
REMARK    4  A    between atoms: N_14  and  C_12 
REMARK    5  A    between atoms: N_16  and  C_12 
ROOT
HETATM    1  C   UNK N   1      35.252  10.425  17.895  0.00  0.00     0.017 A 
HETATM    2  C   UNK N   1      35.242  10.195  16.499  0.00  0.00     0.033 A 
HETATM    3  C   UNK N   1      35.296  12.842  17.523  0.00  0.00     0.047 A 
HETATM    4  C   UNK N   1      35.279  11.753  18.411  0.00  0.00     0.009 A 
HETATM    5  C   UNK N   1      35.261  11.311  15.668  0.00  0.00     0.060 A 
HETATM    6  C   UNK N   1      35.286  12.574  16.166  0.00  0.00     0.061 A 
HETATM    7  C   UNK N   1      35.290  12.694  14.049  0.00  0.00     0.136 A 
HETATM    8  N   UNK N   1      35.262  11.360  14.322  0.00  0.00    -0.339 N 
ATOM      9  HN  UNK N   1      35.245  10.582  13.663  1.00  0.00     0.167 HD
HETATM   10  N   UNK N   1      35.305  13.458  15.169  0.00  0.00    -0.339 N 
HETATM   11  H   UNK N   1      35.324  14.439  15.233  0.00  0.00     0.167 HD
ENDROOT
BRANCH   7  12
HETATM   12  C   UNK N   1      35.311  13.267  12.687  0.00  0.00     0.110 A 
HETATM   13  C   UNK N   1      36.043  14.441  12.398  0.00  0.00     0.096 A 
HETATM   14  C   UNK N   1      36.040  14.948  11.100  0.00  0.00     0.040 A 
HETATM   15  C   UNK N   1      35.319  14.299  10.102  0.00  0.00     0.020 A 
HETATM   16  C   UNK N   1      34.605  13.141  10.418  0.00  0.00     0.088 A 
HETATM   17  N   UNK N   1      34.615  12.653  11.689  0.00  0.00    -0.361 N 
ATOM     18  HN  UNK N   1      34.088  11.806  11.899  1.00  0.00     0.165 HD
BRANCH  13  19
HETATM   19  O   UNK N   1      36.747  15.082  13.349  0.00  0.00    -0.358 OA
HETATM   20  H   UNK N   1      37.671  15.198  13.249  0.00  0.00     0.217 HD
ENDBRANCH  13  19
ENDBRANCH   7  12
BRANCH   4  21
HETATM   21  C   UNK N   1      35.293  12.013  19.866  0.00  0.00     0.102 C 
BRANCH  21  22
HETATM   22  N   UNK N   1      35.713  11.121  20.684  0.00  0.00    -0.385 N 
HETATM   23  H   UNK N   1      36.174  10.319  20.344  0.00  0.00     0.157 HD
ATOM     24  HN  UNK N   1      35.570  11.239  21.686  1.00  0.00     0.157 HD
ENDBRANCH  21  22
BRANCH  21  25
HETATM   25  N   UNK N   1      34.844  13.259  20.365  0.00  0.00    -0.385 N 
HETATM   26  H   UNK N   1      35.475  14.010  20.455  0.00  0.00     0.157 HD
HETATM   27  H   UNK N   1      33.900  13.374  20.623  0.00  0.00     0.157 HD
ENDBRANCH  21  25
ENDBRANCH   4  21
TORSDOF 5
ENDMDL
MODEL 5
REMARK VINA RESULT:      -6.2      3.655      8.426
REMARK  5 active torsions:
REMARK  status: ('A' for Active; 'I' for Inactive)
REMARK    1  A    between atoms: C_12  and  C_7 
REMARK    2  A    between atoms: O_22  and  C_10 
REMARK    3  A    between atoms: C_13  and  C_11 
REMARK    4  A    between atoms: N_14  and  C_12 
REMARK    5  A    between atoms: N_16  and  C_12 
ROOT
HETATM    1  C   UNK N   1      30.040  17.495   9.636  0.00  0.00     0.017 A 
HETATM    2  C   UNK N   1      28.887  18.261   9.345  0.00  0.00     0.033 A 
HETATM    3  C   UNK N   1      30.287  16.920   7.271  0.00  0.00     0.047 A 
HETATM    4  C   UNK N   1      30.744  16.821   8.597  0.00  0.00     0.009 A 
HETATM    5  C   UNK N   1      28.479  18.322   8.016  0.00  0.00     0.060 A 
HETATM    6  C   UNK N   1      29.155  17.678   7.030  0.00  0.00     0.061 A 
HETATM    7  C   UNK N   1      27.506  18.684   6.157  0.00  0.00     0.136 A 
HETATM    8  N   UNK N   1      27.425  18.971   7.485  0.00  0.00    -0.339 N 
ATOM      9  HN  UNK N   1      26.730  19.543   7.966  1.00  0.00     0.167 HD
HETATM   10  N   UNK N   1      28.563  17.890   5.855  0.00  0.00    -0.339 N 
HETATM   11  H   UNK N   1      28.832  17.550   4.973  0.00  0.00     0.167 HD
ENDROOT
BRANCH   7  12
HETATM   12  C   UNK N   1      26.550  19.167   5.138  0.00  0.00     0.110 A 
HETATM   13  C   UNK N   1      26.991  19.874   3.997  0.00  0.00     0.096 A 
HETATM   14  C   UNK N   1      26.058  20.310   3.058  0.00  0.00     0.040 A 
HETATM   15  C   UNK N   1      24.704  20.048   3.251  0.00  0.00     0.020 A 
HETATM   16  C   UNK N   1      24.299  19.347   4.388  0.00  0.00     0.088 A 
HETATM   17  N   UNK N   1      25.218  18.925   5.299  0.00  0.00    -0.361 N 
ATOM     18  HN  UNK N   1      24.902  18.414   6.123  1.00  0.00     0.165 HD
BRANCH  13  19
HETATM   19  O   UNK N   1      28.295  20.136   3.793  0.00  0.00    -0.358 OA
HETATM   20  H   UNK N   1      28.620  21.008   3.898  0.00  0.00     0.217 HD
ENDBRANCH  13  19
ENDBRANCH   7  12
BRANCH   4  21
HETATM   21  C   UNK N   1      31.949  16.014   8.882  0.00  0.00     0.102 C 
BRANCH  21  22
HETATM   22  N   UNK N   1      32.906  15.949   8.033  0.00  0.00    -0.385 N 
HETATM   23  H   UNK N   1      33.037  16.678   7.383  0.00  0.00     0.157 HD
ATOM     24  HN  UNK N   1      33.532  15.145   8.029  1.00  0.00     0.157 HD
ENDBRANCH  21  22
BRANCH  21  25
HETATM   25  N   UNK N   1      32.055  15.308  10.105  0.00  0.00    -0.385 N 
HETATM   26  H   UNK N   1      32.869  14.794  10.308  0.00  0.00     0.157 HD
HETATM   27  H   UNK N   1      31.313  15.333  10.752  0.00  0.00     0.157 HD
ENDBRANCH  21  25
ENDBRANCH   4  21
TORSDOF 5
ENDMDL
MODEL 6
REMARK VINA RESULT:      -6.1      7.075     10.265
REMARK  5 active torsions:
REMARK  status: ('A' for Active; 'I' for Inactive)
REMARK    1  A    between atoms: C_12  and  C_7 
REMARK    2  A    between atoms: O_22  and  C_10 
REMARK    3  A    between atoms: C_13  and  C_11 
REMARK    4  A    between atoms: N_14  and  C_12 
REMARK    5  A    between atoms: N_16  and  C_12 
ROOT
HETATM    1  C   UNK N   1      35.162  12.972  18.597  0.00  0.00     0.017 A 
HETATM    2  C   UNK N   1      35.304  13.821  17.476  0.00  0.00     0.033 A 
HETATM    3  C   UNK N   1      35.773  11.031  17.239  0.00  0.00     0.047 A 
HETATM    4  C   UNK N   1      35.396  11.571  18.481  0.00  0.00     0.009 A 
HETATM    5  C   UNK N   1      35.678  13.231  16.271  0.00  0.00     0.060 A 
HETATM    6  C   UNK N   1      35.900  11.896  16.167  0.00  0.00     0.061 A 
HETATM    7  C   UNK N   1      36.216  12.773  14.263  0.00  0.00     0.136 A 
HETATM    8  N   UNK N   1      35.873  13.812  15.072  0.00  0.00    -0.339 N 
ATOM      9  HN  UNK N   1      35.786  14.799  14.828  1.00  0.00     0.167 HD
HETATM   10  N   UNK N   1      36.239  11.585  14.917  0.00  0.00    -0.339 N 
HETATM   11  H   UNK N   1      36.456  10.697  14.552  0.00  0.00     0.167 HD
ENDROOT
BRANCH   7  12
HETATM   12  C   UNK N   1      36.524  12.901  12.823  0.00  0.00     0.110 A 
HETATM   13  C   UNK N   1      35.566  13.395  11.910  0.00  0.00     0.096 A 
HETATM   14  C   UNK N   1      35.897  13.504  10.560  0.00  0.00     0.040 A 
HETATM   15  C   UNK N   1      37.164  13.125  10.124  0.00  0.00     0.020 A 
HETATM   16  C   UNK N   1      38.090  12.641  11.050  0.00  0.00     0.088 A 
HETATM   17  N   UNK N   1      37.757  12.540  12.365  0.00  0.00    -0.361 N 
ATOM     18  HN  UNK N   1      38.447  12.184  13.026  1.00  0.00     0.165 HD
BRANCH  13  19
HETATM   19  O   UNK N   1      34.338  13.767  12.313  0.00  0.00    -0.358 OA
HETATM   20  H   UNK N   1      33.621  13.167  12.246  0.00  0.00     0.217 HD
ENDBRANCH  13  19
ENDBRANCH   7  12
BRANCH   4  21
HETATM   21  C   UNK N   1      35.249  10.667  19.642  0.00  0.00     0.102 C 
BRANCH  21  22
HETATM   22  N   UNK N   1      34.496   9.633  19.571  0.00  0.00    -0.385 N 
HETATM   23  H   UNK N   1      33.518   9.739  19.521  0.00  0.00     0.157 HD
ATOM     24  HN  UNK N   1      34.909   8.701  19.567  1.00  0.00     0.157 HD
ENDBRANCH  21  22
BRANCH  21  25
HETATM   25  N   UNK N   1      35.948  10.939  20.842  0.00  0.00    -0.385 N 
HETATM   26  H   UNK N   1      36.641  10.316  21.160  0.00  0.00     0.157 HD
HETATM   27  H   UNK N   1      35.740  11.752  21.359  0.00  0.00     0.157 HD
ENDBRANCH  21  25
ENDBRANCH   4  21
TORSDOF 5
ENDMDL
MODEL 7
REMARK VINA RESULT:      -6.1     10.340     12.389
REMARK  5 active torsions:
REMARK  status: ('A' for Active; 'I' for Inactive)
REMARK    1  A    between atoms: C_12  and  C_7 
REMARK    2  A    between atoms: O_22  and  C_10 
REMARK    3  A    between atoms: C_13  and  C_11 
REMARK    4  A    between atoms: N_14  and  C_12 
REMARK    5  A    between atoms: N_16  and  C_12 
ROOT
HETATM    1  C   UNK N   1      21.193  13.292  10.367  0.00  0.00     0.017 A 
HETATM    2  C   UNK N   1      20.404  14.147   9.563  0.00  0.00     0.033 A 
HETATM    3  C   UNK N   1      23.125  13.664   8.914  0.00  0.00     0.047 A 
HETATM    4  C   UNK N   1      22.558  13.048  10.043  0.00  0.00     0.009 A 
HETATM    5  C   UNK N   1      21.017  14.728   8.456  0.00  0.00     0.060 A 
HETATM    6  C   UNK N   1      22.319  14.492   8.153  0.00  0.00     0.061 A 
HETATM    7  C   UNK N   1      21.525  15.809   6.694  0.00  0.00     0.136 A 
HETATM    8  N   UNK N   1      20.489  15.565   7.542  0.00  0.00    -0.339 N 
ATOM      9  HN  UNK N   1      19.538  15.930   7.497  1.00  0.00     0.167 HD
HETATM   10  N   UNK N   1      22.660  15.159   7.051  0.00  0.00    -0.339 N 
HETATM   11  H   UNK N   1      23.535  15.176   6.602  0.00  0.00     0.167 HD
ENDROOT
BRANCH   7  12
HETATM   12  C   UNK N   1      21.441  16.677   5.501  0.00  0.00     0.110 A 
HETATM   13  C   UNK N   1      21.312  18.079   5.622  0.00  0.00     0.096 A 
HETATM   14  C   UNK N   1      21.239  18.863   4.472  0.00  0.00     0.040 A 
HETATM   15  C   UNK N   1      21.293  18.262   3.218  0.00  0.00     0.020 A 
HETATM   16  C   UNK N   1      21.422  16.875   3.129  0.00  0.00     0.088 A 
HETATM   17  N   UNK N   1      21.493  16.118   4.258  0.00  0.00    -0.361 N 
ATOM     18  HN  UNK N   1      21.587  15.106   4.172  1.00  0.00     0.165 HD
BRANCH  13  19
HETATM   19  O   UNK N   1      21.259  18.678   6.826  0.00  0.00    -0.358 OA
HETATM   20  H   UNK N   1      21.100  18.168   7.596  0.00  0.00     0.217 HD
ENDBRANCH  13  19
ENDBRANCH   7  12
BRANCH   4  21
HETATM   21  C   UNK N   1      23.398  12.155  10.870  0.00  0.00     0.102 C 
BRANCH  21  22
HETATM   22  N   UNK N   1      22.883  11.143  11.465  0.00  0.00    -0.385 N 
HETATM   23  H   UNK N   1      23.464  10.502  11.936  0.00  0.00     0.157 HD
ATOM     24  HN  UNK N   1      21.874  11.002  11.451  1.00  0.00     0.157 HD
ENDBRANCH  21  22
BRANCH  21  25
HETATM   25  N   UNK N   1      24.783  12.411  11.004  0.00  0.00    -0.385 N 
HETATM   26  H   UNK N   1      25.278  12.053  11.776  0.00  0.00     0.157 HD
HETATM   27  H   UNK N   1      25.252  12.947  10.323  0.00  0.00     0.157 HD
ENDBRANCH  21  25
ENDBRANCH   4  21
TORSDOF 5
ENDMDL
MODEL 8
REMARK VINA RESULT:      -6.1      1.824      2.270
REMARK  5 active torsions:
REMARK  status: ('A' for Active; 'I' for Inactive)
REMARK    1  A    between atoms: C_12  and  C_7 
REMARK    2  A    between atoms: O_22  and  C_10 
REMARK    3  A    between atoms: C_13  and  C_11 
REMARK    4  A    between atoms: N_14  and  C_12 
REMARK    5  A    between atoms: N_16  and  C_12 
ROOT
HETATM    1  C   UNK N   1      31.977  17.353   5.237  0.00  0.00     0.017 A 
HETATM    2  C   UNK N   1      33.224  17.044   5.827  0.00  0.00     0.033 A 
HETATM    3  C   UNK N   1      30.817  16.723   7.297  0.00  0.00     0.047 A 
HETATM    4  C   UNK N   1      30.767  17.192   5.973  0.00  0.00     0.009 A 
HETATM    5  C   UNK N   1      33.213  16.582   7.140  0.00  0.00     0.060 A 
HETATM    6  C   UNK N   1      32.057  16.432   7.836  0.00  0.00     0.061 A 
HETATM    7  C   UNK N   1      33.667  15.851   9.088  0.00  0.00     0.136 A 
HETATM    8  N   UNK N   1      34.253  16.220   7.916  0.00  0.00    -0.339 N 
ATOM      9  HN  UNK N   1      35.246  16.222   7.681  1.00  0.00     0.167 HD
HETATM   10  N   UNK N   1      32.316  15.974   9.060  0.00  0.00    -0.339 N 
HETATM   11  H   UNK N   1      31.675  15.773   9.778  0.00  0.00     0.167 HD
ENDROOT
BRANCH   7  12
HETATM   12  C   UNK N   1      34.402  15.359  10.271  0.00  0.00     0.110 A 
HETATM   13  C   UNK N   1      35.383  16.153  10.907  0.00  0.00     0.096 A 
HETATM   14  C   UNK N   1      36.052  15.653  12.023  0.00  0.00     0.040 A 
HETATM   15  C   UNK N   1      35.751  14.380  12.500  0.00  0.00     0.020 A 
HETATM   16  C   UNK N   1      34.777  13.619  11.851  0.00  0.00     0.088 A 
HETATM   17  N   UNK N   1      34.129  14.117  10.763  0.00  0.00    -0.361 N 
ATOM     18  HN  UNK N   1      33.421  13.545  10.303  1.00  0.00     0.165 HD
BRANCH  13  19
HETATM   19  O   UNK N   1      35.686  17.385  10.462  0.00  0.00    -0.358 OA
HETATM   20  H   UNK N   1      35.765  18.096  11.067  0.00  0.00     0.217 HD
ENDBRANCH  13  19
ENDBRANCH   7  12
BRANCH   4  21
HETATM   21  C   UNK N   1      29.453  17.506   5.372  0.00  0.00     0.102 C 
BRANCH  21  22
HETATM   22  N   UNK N   1      29.380  18.128   4.254  0.00  0.00    -0.385 N 
HETATM   23  H   UNK N   1      29.483  19.107   4.228  0.00  0.00     0.157 HD
ATOM     24  HN  UNK N   1      29.214  17.609   3.392  1.00  0.00     0.157 HD
ENDBRANCH  21  22
BRANCH  21  25
HETATM   25  N   UNK N   1      28.263  17.115   6.030  0.00  0.00    -0.385 N 
HETATM   26  H   UNK N   1      27.530  16.703   5.519  0.00  0.00     0.157 HD
HETATM   27  H   UNK N   1      28.170  17.254   7.001  0.00  0.00     0.157 HD
ENDBRANCH  21  25
ENDBRANCH   4  21
TORSDOF 5
ENDMDL
MODEL 9
REMARK VINA RESULT:      -5.9      1.771      2.079
REMARK  5 active torsions:
REMARK  status: ('A' for Active; 'I' for Inactive)
REMARK    1  A    between atoms: C_12  and  C_7 
REMARK    2  A    between atoms: O_22  and  C_10 
REMARK    3  A    between atoms: C_13  and  C_11 
REMARK    4  A    between atoms: N_14  and  C_12 
REMARK    5  A    between atoms: N_16  and  C_12 
ROOT
HETATM    1  C   UNK N   1      29.150  17.546   5.546  0.00  0.00     0.017 A 
HETATM    2  C   UNK N   1      30.354  16.812   5.660  0.00  0.00     0.033 A 
HETATM    3  C   UNK N   1      29.325  18.247   7.883  0.00  0.00     0.047 A 
HETATM    4  C   UNK N   1      28.632  18.266   6.661  0.00  0.00     0.009 A 
HETATM    5  C   UNK N   1      30.997  16.828   6.894  0.00  0.00     0.060 A 
HETATM    6  C   UNK N   1      30.499  17.517   7.952  0.00  0.00     0.061 A 
HETATM    7  C   UNK N   1      32.292  16.566   8.564  0.00  0.00     0.136 A 
HETATM    8  N   UNK N   1      32.140  16.214   7.258  0.00  0.00    -0.339 N 
ATOM      9  HN  UNK N   1      32.748  15.626   6.688  1.00  0.00     0.167 HD
HETATM   10  N   UNK N   1      31.293  17.367   9.011  0.00  0.00    -0.339 N 
HETATM   11  H   UNK N   1      31.181  17.751   9.910  0.00  0.00     0.167 HD
ENDROOT
BRANCH   7  12
HETATM   12  C   UNK N   1      33.412  16.127   9.422  0.00  0.00     0.110 A 
HETATM   13  C   UNK N   1      33.564  14.771   9.791  0.00  0.00     0.096 A 
HETATM   14  C   UNK N   1      34.635  14.397  10.600  0.00  0.00     0.040 A 
HETATM   15  C   UNK N   1      35.544  15.357  11.037  0.00  0.00     0.020 A 
HETATM   16  C   UNK N   1      35.368  16.688  10.656  0.00  0.00     0.088 A 
HETATM   17  N   UNK N   1      34.319  17.044   9.866  0.00  0.00    -0.361 N 
ATOM     18  HN  UNK N   1      34.208  18.021   9.598  1.00  0.00     0.165 HD
BRANCH  13  19
HETATM   19  O   UNK N   1      32.697  13.829   9.377  0.00  0.00    -0.358 OA
HETATM   20  H   UNK N   1      32.514  13.089   9.922  0.00  0.00     0.217 HD
ENDBRANCH  13  19
ENDBRANCH   7  12
BRANCH   4  21
HETATM   21  C   UNK N   1      27.374  19.036   6.562  0.00  0.00     0.102 C 
BRANCH  21  22
HETATM   22  N   UNK N   1      27.151  20.025   7.346  0.00  0.00    -0.385 N 
HETATM   23  H   UNK N   1      27.628  20.876   7.212  0.00  0.00     0.157 HD
ATOM     24  HN  UNK N   1      26.481  19.930   8.109  1.00  0.00     0.157 HD
ENDBRANCH  21  22
BRANCH  21  25
HETATM   25  N   UNK N   1      26.405  18.685   5.592  0.00  0.00    -0.385 N 
HETATM   26  H   UNK N   1      26.254  19.269   4.813  0.00  0.00     0.157 HD
HETATM   27  H   UNK N   1      25.882  17.857   5.695  0.00  0.00     0.157 HD
ENDBRANCH  21  25
ENDBRANCH   4  21
TORSDOF 5
ENDMDL
