MODEL 1
REMARK VINA RESULT:      -7.8      0.000      0.000
REMARK  3 active torsions:
REMARK  status: ('A' for Active; 'I' for Inactive)
REMARK    1  A    between atoms: C_6  and  N_7 
REMARK    2  A    between atoms: C_21  and  C_22 
REMARK    3  A    between atoms: C_22  and  O_23 
ROOT
HETATM    1  C   UNK N   1      21.953  16.042   5.200  0.00  0.00     0.035 C 
HETATM    2  C   UNK N   1      23.349  16.645   5.169  0.00  0.00     0.110 A 
HETATM    3  C   UNK N   1      24.507  15.949   5.863  0.00  0.00     0.201 A 
HETATM    4  O   UNK N   1      25.709  16.622   5.744  0.00  0.00    -0.344 OA
HETATM    5  C   UNK N   1      25.927  17.795   5.097  0.00  0.00     0.126 A 
HETATM    6  C   UNK N   1      27.241  18.371   5.071  0.00  0.00     0.105 A 
HETATM    7  C   UNK N   1      27.418  19.598   4.371  0.00  0.00     0.146 A 
HETATM    8  F   UNK N   1      28.621  20.215   4.282  0.00  0.00    -0.204 F 
HETATM    9  C   UNK N   1      26.351  20.218   3.742  0.00  0.00     0.062 A 
HETATM   10  C   UNK N   1      25.077  19.665   3.771  0.00  0.00     0.048 A 
HETATM   11  C   UNK N   1      24.853  18.449   4.448  0.00  0.00     0.085 A 
HETATM   12  N   UNK N   1      23.594  17.907   4.470  0.00  0.00    -0.346 N 
HETATM   13  C   UNK N   1      22.555  18.533   3.846  0.00  0.00     0.114 A 
HETATM   14  C   UNK N   1      22.731  19.740   3.163  0.00  0.00     0.104 A 
HETATM   15  C   UNK N   1      24.015  20.313   3.128  0.00  0.00     0.202 A 
HETATM   16  O   UNK N   1      24.208  21.366   2.542  0.00  0.00    -0.286 OA
ENDROOT
BRANCH   6  17
HETATM   17  N   UNK N   1      28.365  17.735   5.734  0.00  0.00    -0.373 N 
HETATM   18  C   UNK N   1      29.240  16.846   4.974  0.00  0.00     0.153 C 
HETATM   19  C   UNK N   1      30.086  15.938   5.856  0.00  0.00     0.291 C 
HETATM   20  N   UNK N   1      30.736  16.734   6.880  0.00  0.00     0.087 N 
HETATM   21  C   UNK N   1      31.601  15.847   7.632  0.00  0.00     0.310 C 
HETATM   22  C   UNK N   1      29.683  17.177   7.776  0.00  0.00     0.291 C 
HETATM   23  C   UNK N   1      28.792  18.183   7.057  0.00  0.00     0.153 C 
ENDBRANCH   6  17
BRANCH  14  24
HETATM   24  C   UNK N   1      21.560  20.368   2.503  0.00  0.00     0.181 C 
HETATM   25  O   UNK N   1      20.798  19.705   1.816  0.00  0.00    -0.646 OA
BRANCH  24  26
HETATM   26  O   UNK N   1      21.326  21.685   2.662  0.00  0.00    -0.772 OA
HETATM   27  H   UNK N   1      21.707  22.303   2.069  0.00  0.00     0.167 HD
ENDBRANCH  24  26
ENDBRANCH  14  24
TORSDOF 3
ENDMDL
MODEL 2
REMARK VINA RESULT:      -7.7      4.533      8.608
REMARK  3 active torsions:
REMARK  status: ('A' for Active; 'I' for Inactive)
REMARK    1  A    between atoms: C_6  and  N_7 
REMARK    2  A    between atoms: C_21  and  C_22 
REMARK    3  A    between atoms: C_22  and  O_23 
ROOT
HETATM    1  C   UNK N   1      29.716  18.241  10.004  0.00  0.00     0.035 C 
HETATM    2  C   UNK N   1      29.772  17.728   8.572  0.00  0.00     0.110 A 
HETATM    3  C   UNK N   1      28.499  17.346   7.838  0.00  0.00     0.201 A 
HETATM    4  O   UNK N   1      28.716  16.899   6.548  0.00  0.00    -0.344 OA
HETATM    5  C   UNK N   1      29.912  16.775   5.918  0.00  0.00     0.126 A 
HETATM    6  C   UNK N   1      29.969  16.286   4.570  0.00  0.00     0.105 A 
HETATM    7  C   UNK N   1      31.248  16.183   3.952  0.00  0.00     0.146 A 
HETATM    8  F   UNK N   1      31.405  15.741   2.681  0.00  0.00    -0.204 F 
HETATM    9  C   UNK N   1      32.399  16.538   4.636  0.00  0.00     0.062 A 
HETATM   10  C   UNK N   1      32.345  17.006   5.943  0.00  0.00     0.048 A 
HETATM   11  C   UNK N   1      31.102  17.130   6.596  0.00  0.00     0.085 A 
HETATM   12  N   UNK N   1      31.056  17.595   7.884  0.00  0.00    -0.346 N 
HETATM   13  C   UNK N   1      32.201  17.939   8.542  0.00  0.00     0.114 A 
HETATM   14  C   UNK N   1      33.455  17.833   7.934  0.00  0.00     0.104 A 
HETATM   15  C   UNK N   1      33.525  17.357   6.613  0.00  0.00     0.202 A 
HETATM   16  O   UNK N   1      34.602  17.250   6.047  0.00  0.00    -0.286 OA
ENDROOT
BRANCH   6  17
HETATM   17  N   UNK N   1      28.771  15.902   3.847  0.00  0.00    -0.373 N 
HETATM   18  C   UNK N   1      27.880  16.937   3.330  0.00  0.00     0.153 C 
HETATM   19  C   UNK N   1      26.492  16.418   2.986  0.00  0.00     0.291 C 
HETATM   20  N   UNK N   1      26.614  15.228   2.165  0.00  0.00     0.087 N 
HETATM   21  C   UNK N   1      25.274  14.826   1.785  0.00  0.00     0.310 C 
HETATM   22  C   UNK N   1      27.148  14.193   3.033  0.00  0.00     0.291 C 
HETATM   23  C   UNK N   1      28.591  14.526   3.393  0.00  0.00     0.153 C 
ENDBRANCH   6  17
BRANCH  14  24
HETATM   24  C   UNK N   1      34.661  18.225   8.704  0.00  0.00     0.181 C 
HETATM   25  O   UNK N   1      35.060  17.543   9.635  0.00  0.00    -0.646 OA
BRANCH  24  26
HETATM   26  O   UNK N   1      35.332  19.347   8.376  0.00  0.00    -0.772 OA
HETATM   27  H   UNK N   1      34.908  20.018   7.878  0.00  0.00     0.167 HD
ENDBRANCH  24  26
ENDBRANCH  14  24
TORSDOF 3
ENDMDL
MODEL 3
REMARK VINA RESULT:      -7.5     10.059     12.528
REMARK  3 active torsions:
REMARK  status: ('A' for Active; 'I' for Inactive)
REMARK    1  A    between atoms: C_6  and  N_7 
REMARK    2  A    between atoms: C_21  and  C_22 
REMARK    3  A    between atoms: C_22  and  O_23 
ROOT
HETATM    1  C   UNK N   1      33.083  13.166   6.929  0.00  0.00     0.035 C 
HETATM    2  C   UNK N   1      33.699  13.157   8.321  0.00  0.00     0.110 A 
HETATM    3  C   UNK N   1      33.758  11.873   9.131  0.00  0.00     0.201 A 
HETATM    4  O   UNK N   1      34.345  12.029  10.372  0.00  0.00    -0.344 OA
HETATM    5  C   UNK N   1      34.843  13.176  10.902  0.00  0.00     0.126 A 
HETATM    6  C   UNK N   1      35.418  13.173  12.216  0.00  0.00     0.105 A 
HETATM    7  C   UNK N   1      35.934  14.400  12.721  0.00  0.00     0.146 A 
HETATM    8  F   UNK N   1      36.504  14.498  13.947  0.00  0.00    -0.204 F 
HETATM    9  C   UNK N   1      35.873  15.561  11.967  0.00  0.00     0.062 A 
HETATM   10  C   UNK N   1      35.310  15.566  10.697  0.00  0.00     0.048 A 
HETATM   11  C   UNK N   1      34.791  14.375  10.152  0.00  0.00     0.085 A 
HETATM   12  N   UNK N   1      34.241  14.387   8.897  0.00  0.00    -0.346 N 
HETATM   13  C   UNK N   1      34.188  15.540   8.170  0.00  0.00     0.114 A 
HETATM   14  C   UNK N   1      34.691  16.744   8.671  0.00  0.00     0.104 A 
HETATM   15  C   UNK N   1      35.260  16.755   9.956  0.00  0.00     0.202 A 
HETATM   16  O   UNK N   1      35.710  17.787  10.428  0.00  0.00    -0.286 OA
ENDROOT
BRANCH   6  17
HETATM   17  N   UNK N   1      35.479  11.965  13.019  0.00  0.00    -0.373 N 
HETATM   18  C   UNK N   1      36.706  11.174  13.036  0.00  0.00     0.153 C 
HETATM   19  C   UNK N   1      36.500   9.756  13.550  0.00  0.00     0.291 C 
HETATM   20  N   UNK N   1      35.765   9.801  14.801  0.00  0.00     0.087 N 
HETATM   21  C   UNK N   1      35.676   8.443  15.298  0.00  0.00     0.310 C 
HETATM   22  C   UNK N   1      34.419  10.229  14.462  0.00  0.00     0.291 C 
HETATM   23  C   UNK N   1      34.446  11.686  14.012  0.00  0.00     0.153 C 
ENDBRANCH   6  17
BRANCH  14  24
HETATM   24  C   UNK N   1      34.606  17.963   7.828  0.00  0.00     0.181 C 
HETATM   25  O   UNK N   1      34.288  17.890   6.651  0.00  0.00    -0.646 OA
BRANCH  24  26
HETATM   26  O   UNK N   1      34.878  19.170   8.362  0.00  0.00    -0.772 OA
HETATM   27  H   UNK N   1      34.180  19.714   8.669  0.00  0.00     0.167 HD
ENDBRANCH  24  26
ENDBRANCH  14  24
TORSDOF 3
ENDMDL
MODEL 4
REMARK VINA RESULT:      -7.1      5.515      8.923
REMARK  3 active torsions:
REMARK  status: ('A' for Active; 'I' for Inactive)
REMARK    1  A    between atoms: C_6  and  N_7 
REMARK    2  A    between atoms: C_21  and  C_22 
REMARK    3  A    between atoms: C_22  and  O_23 
ROOT
HETATM    1  C   UNK N   1      29.780  18.869   9.246  0.00  0.00     0.035 C 
HETATM    2  C   UNK N   1      29.946  17.916   8.072  0.00  0.00     0.110 A 
HETATM    3  C   UNK N   1      28.733  17.400   7.317  0.00  0.00     0.201 A 
HETATM    4  O   UNK N   1      29.050  16.545   6.279  0.00  0.00    -0.344 OA
HETATM    5  C   UNK N   1      30.290  16.143   5.901  0.00  0.00     0.126 A 
HETATM    6  C   UNK N   1      30.451  15.240   4.798  0.00  0.00     0.105 A 
HETATM    7  C   UNK N   1      31.774  14.858   4.437  0.00  0.00     0.146 A 
HETATM    8  F   UNK N   1      32.029  14.016   3.405  0.00  0.00    -0.204 F 
HETATM    9  C   UNK N   1      32.869  15.339   5.135  0.00  0.00     0.062 A 
HETATM   10  C   UNK N   1      32.714  16.210   6.207  0.00  0.00     0.048 A 
HETATM   11  C   UNK N   1      31.425  16.621   6.599  0.00  0.00     0.085 A 
HETATM   12  N   UNK N   1      31.280  17.482   7.655  0.00  0.00    -0.346 N 
HETATM   13  C   UNK N   1      32.370  17.945   8.331  0.00  0.00     0.114 A 
HETATM   14  C   UNK N   1      33.667  17.564   7.977  0.00  0.00     0.104 A 
HETATM   15  C   UNK N   1      33.839  16.681   6.897  0.00  0.00     0.202 A 
HETATM   16  O   UNK N   1      34.956  16.325   6.557  0.00  0.00    -0.286 OA
ENDROOT
BRANCH   6  17
HETATM   17  N   UNK N   1      29.310  14.722   4.065  0.00  0.00    -0.373 N 
HETATM   18  C   UNK N   1      28.541  13.612   4.621  0.00  0.00     0.153 C 
HETATM   19  C   UNK N   1      27.673  12.907   3.589  0.00  0.00     0.291 C 
HETATM   20  N   UNK N   1      26.907  13.893   2.851  0.00  0.00     0.087 N 
HETATM   21  C   UNK N   1      26.029  13.173   1.950  0.00  0.00     0.310 C 
HETATM   22  C   UNK N   1      27.865  14.619   2.036  0.00  0.00     0.291 C 
HETATM   23  C   UNK N   1      28.761  15.464   2.934  0.00  0.00     0.153 C 
ENDBRANCH   6  17
BRANCH  14  24
HETATM   24  C   UNK N   1      34.811  18.106   8.752  0.00  0.00     0.181 C 
HETATM   25  O   UNK N   1      35.300  17.471   9.674  0.00  0.00    -0.646 OA
BRANCH  24  26
HETATM   26  O   UNK N   1      35.324  19.311   8.439  0.00  0.00    -0.772 OA
HETATM   27  H   UNK N   1      36.217  19.508   8.644  0.00  0.00     0.167 HD
ENDBRANCH  24  26
ENDBRANCH  14  24
TORSDOF 3
ENDMDL
MODEL 5
REMARK VINA RESULT:      -6.7      6.126     11.542
REMARK  3 active torsions:
REMARK  status: ('A' for Active; 'I' for Inactive)
REMARK    1  A    between atoms: C_6  and  N_7 
REMARK    2  A    between atoms: C_21  and  C_22 
REMARK    3  A    between atoms: C_22  and  O_23 
ROOT
HETATM    1  C   UNK N   1      34.805  11.016   7.466  0.00  0.00     0.035 C 
HETATM    2  C   UNK N   1      34.247  12.432   7.463  0.00  0.00     0.110 A 
HETATM    3  C   UNK N   1      33.074  12.799   6.571  0.00  0.00     0.201 A 
HETATM    4  O   UNK N   1      32.685  14.120   6.683  0.00  0.00    -0.344 OA
HETATM    5  C   UNK N   1      33.240  15.070   7.479  0.00  0.00     0.126 A 
HETATM    6  C   UNK N   1      32.721  16.407   7.475  0.00  0.00     0.105 A 
HETATM    7  C   UNK N   1      33.333  17.362   8.336  0.00  0.00     0.146 A 
HETATM    8  F   UNK N   1      32.909  18.648   8.410  0.00  0.00    -0.204 F 
HETATM    9  C   UNK N   1      34.400  17.010   9.145  0.00  0.00     0.062 A 
HETATM   10  C   UNK N   1      34.908  15.716   9.145  0.00  0.00     0.048 A 
HETATM   11  C   UNK N   1      34.332  14.734   8.314  0.00  0.00     0.085 A 
HETATM   12  N   UNK N   1      34.836  13.460   8.322  0.00  0.00    -0.346 N 
HETATM   13  C   UNK N   1      35.888  13.131   9.124  0.00  0.00     0.114 A 
HETATM   14  C   UNK N   1      36.490  14.073   9.965  0.00  0.00     0.104 A 
HETATM   15  C   UNK N   1      35.989  15.386   9.972  0.00  0.00     0.202 A 
HETATM   16  O   UNK N   1      36.488  16.237  10.692  0.00  0.00    -0.286 OA
ENDROOT
BRANCH   6  17
HETATM   17  N   UNK N   1      31.608  16.791   6.625  0.00  0.00    -0.373 N 
HETATM   18  C   UNK N   1      30.281  16.958   7.210  0.00  0.00     0.153 C 
HETATM   19  C   UNK N   1      29.163  16.935   6.177  0.00  0.00     0.291 C 
HETATM   20  N   UNK N   1      29.491  17.843   5.094  0.00  0.00     0.087 N 
HETATM   21  C   UNK N   1      28.360  17.860   4.187  0.00  0.00     0.310 C 
HETATM   22  C   UNK N   1      30.606  17.240   4.386  0.00  0.00     0.291 C 
HETATM   23  C   UNK N   1      31.849  17.276   5.269  0.00  0.00     0.153 C 
ENDBRANCH   6  17
BRANCH  14  24
HETATM   24  C   UNK N   1      37.631  13.650  10.815  0.00  0.00     0.181 C 
HETATM   25  O   UNK N   1      38.718  13.391  10.322  0.00  0.00    -0.646 OA
BRANCH  24  26
HETATM   26  O   UNK N   1      37.473  13.551  12.149  0.00  0.00    -0.772 OA
HETATM   27  H   UNK N   1      38.224  13.545  12.710  0.00  0.00     0.167 HD
ENDBRANCH  24  26
ENDBRANCH  14  24
TORSDOF 3
ENDMDL
MODEL 6
REMARK VINA RESULT:      -6.6      5.512      8.029
REMARK  3 active torsions:
REMARK  status: ('A' for Active; 'I' for Inactive)
REMARK    1  A    between atoms: C_6  and  N_7 
REMARK    2  A    between atoms: C_21  and  C_22 
REMARK    3  A    between atoms: C_22  and  O_23 
ROOT
HETATM    1  C   UNK N   1      28.868  14.652   4.864  0.00  0.00     0.035 C 
HETATM    2  C   UNK N   1      30.210  14.899   5.537  0.00  0.00     0.110 A 
HETATM    3  C   UNK N   1      31.416  14.043   5.192  0.00  0.00     0.201 A 
HETATM    4  O   UNK N   1      32.559  14.391   5.887  0.00  0.00    -0.344 OA
HETATM    5  C   UNK N   1      32.685  15.380   6.809  0.00  0.00     0.126 A 
HETATM    6  C   UNK N   1      33.947  15.612   7.450  0.00  0.00     0.105 A 
HETATM    7  C   UNK N   1      34.027  16.668   8.402  0.00  0.00     0.146 A 
HETATM    8  F   UNK N   1      35.176  16.970   9.055  0.00  0.00    -0.204 F 
HETATM    9  C   UNK N   1      32.917  17.440   8.703  0.00  0.00     0.062 A 
HETATM   10  C   UNK N   1      31.693  17.213   8.087  0.00  0.00     0.048 A 
HETATM   11  C   UNK N   1      31.565  16.182   7.134  0.00  0.00     0.085 A 
HETATM   12  N   UNK N   1      30.355  15.966   6.528  0.00  0.00    -0.346 N 
HETATM   13  C   UNK N   1      29.273  16.736   6.837  0.00  0.00     0.114 A 
HETATM   14  C   UNK N   1      29.354  17.768   7.776  0.00  0.00     0.104 A 
HETATM   15  C   UNK N   1      30.586  18.008   8.410  0.00  0.00     0.202 A 
HETATM   16  O   UNK N   1      30.696  18.900   9.235  0.00  0.00    -0.286 OA
ENDROOT
BRANCH   6  17
HETATM   17  N   UNK N   1      35.114  14.803   7.150  0.00  0.00    -0.373 N 
HETATM   18  C   UNK N   1      35.474  13.701   8.037  0.00  0.00     0.153 C 
HETATM   19  C   UNK N   1      36.909  13.227   7.856  0.00  0.00     0.291 C 
HETATM   20  N   UNK N   1      37.168  13.008   6.445  0.00  0.00     0.087 N 
HETATM   21  C   UNK N   1      38.509  12.470   6.331  0.00  0.00     0.310 C 
HETATM   22  C   UNK N   1      37.173  14.322   5.827  0.00  0.00     0.291 C 
HETATM   23  C   UNK N   1      35.762  14.898   5.844  0.00  0.00     0.153 C 
ENDBRANCH   6  17
BRANCH  14  24
HETATM   24  C   UNK N   1      28.139  18.571   8.066  0.00  0.00     0.181 C 
HETATM   25  O   UNK N   1      27.700  19.362   7.245  0.00  0.00    -0.646 OA
BRANCH  24  26
HETATM   26  O   UNK N   1      27.507  18.429   9.247  0.00  0.00    -0.772 OA
HETATM   27  H   UNK N   1      27.491  19.138   9.859  0.00  0.00     0.167 HD
ENDBRANCH  24  26
ENDBRANCH  14  24
TORSDOF 3
ENDMDL
MODEL 7
REMARK VINA RESULT:      -6.5      8.676     13.113
REMARK  3 active torsions:
REMARK  status: ('A' for Active; 'I' for Inactive)
REMARK    1  A    between atoms: C_6  and  N_7 
REMARK    2  A    between atoms: C_21  and  C_22 
REMARK    3  A    between atoms: C_22  and  O_23 
ROOT
HETATM    1  C   UNK N   1      34.580   9.861  11.376  0.00  0.00     0.035 C 
HETATM    2  C   UNK N   1      34.495  11.263  10.789  0.00  0.00     0.110 A 
HETATM    3  C   UNK N   1      33.864  11.493   9.426  0.00  0.00     0.201 A 
HETATM    4  O   UNK N   1      33.863  12.818   9.034  0.00  0.00    -0.344 OA
HETATM    5  C   UNK N   1      34.359  13.875   9.726  0.00  0.00     0.126 A 
HETATM    6  C   UNK N   1      34.286  15.197   9.172  0.00  0.00     0.105 A 
HETATM    7  C   UNK N   1      34.813  16.272   9.943  0.00  0.00     0.146 A 
HETATM    8  F   UNK N   1      34.784  17.556   9.511  0.00  0.00    -0.204 F 
HETATM    9  C   UNK N   1      35.384  16.044  11.185  0.00  0.00     0.062 A 
HETATM   10  C   UNK N   1      35.460  14.764  11.719  0.00  0.00     0.048 A 
HETATM   11  C   UNK N   1      34.948  13.668  10.995  0.00  0.00     0.085 A 
HETATM   12  N   UNK N   1      35.023  12.408  11.530  0.00  0.00    -0.346 N 
HETATM   13  C   UNK N   1      35.590  12.203  12.753  0.00  0.00     0.114 A 
HETATM   14  C   UNK N   1      36.111  13.260  13.505  0.00  0.00     0.104 A 
HETATM   15  C   UNK N   1      36.044  14.561  12.976  0.00  0.00     0.202 A 
HETATM   16  O   UNK N   1      36.487  15.510  13.602  0.00  0.00    -0.286 OA
ENDROOT
BRANCH   6  17
HETATM   17  N   UNK N   1      33.698  15.447   7.869  0.00  0.00    -0.373 N 
HETATM   18  C   UNK N   1      32.268  15.724   7.766  0.00  0.00     0.153 C 
HETATM   19  C   UNK N   1      31.722  15.543   6.357  0.00  0.00     0.291 C 
HETATM   20  N   UNK N   1      32.569  16.254   5.418  0.00  0.00     0.087 N 
HETATM   21  C   UNK N   1      31.959  16.133   4.109  0.00  0.00     0.310 C 
HETATM   22  C   UNK N   1      33.826  15.529   5.380  0.00  0.00     0.291 C 
HETATM   23  C   UNK N   1      34.551  15.697   6.710  0.00  0.00     0.153 C 
ENDBRANCH   6  17
BRANCH  14  24
HETATM   24  C   UNK N   1      36.712  12.969  14.831  0.00  0.00     0.181 C 
HETATM   25  O   UNK N   1      36.358  11.998  15.480  0.00  0.00    -0.646 OA
BRANCH  24  26
HETATM   26  O   UNK N   1      37.665  13.782  15.329  0.00  0.00    -0.772 OA
HETATM   27  H   UNK N   1      38.484  13.871  14.883  0.00  0.00     0.167 HD
ENDBRANCH  24  26
ENDBRANCH  14  24
TORSDOF 3
ENDMDL
MODEL 8
REMARK VINA RESULT:      -6.5     11.130     13.363
REMARK  3 active torsions:
REMARK  status: ('A' for Active; 'I' for Inactive)
REMARK    1  A    between atoms: C_6  and  N_7 
REMARK    2  A    between atoms: C_21  and  C_22 
REMARK    3  A    between atoms: C_22  and  O_23 
ROOT
HETATM    1  C   UNK N   1      30.561  19.006  -7.959  0.00  0.00     0.035 C 
HETATM    2  C   UNK N   1      30.217  20.198  -7.077  0.00  0.00     0.110 A 
HETATM    3  C   UNK N   1      29.046  21.102  -7.422  0.00  0.00     0.201 A 
HETATM    4  O   UNK N   1      28.864  22.138  -6.525  0.00  0.00    -0.344 OA
HETATM    5  C   UNK N   1      29.610  22.404  -5.423  0.00  0.00     0.126 A 
HETATM    6  C   UNK N   1      29.293  23.530  -4.592  0.00  0.00     0.105 A 
HETATM    7  C   UNK N   1      30.101  23.759  -3.443  0.00  0.00     0.146 A 
HETATM    8  F   UNK N   1      29.876  24.791  -2.593  0.00  0.00    -0.204 F 
HETATM    9  C   UNK N   1      31.164  22.924  -3.143  0.00  0.00     0.062 A 
HETATM   10  C   UNK N   1      31.476  21.836  -3.949  0.00  0.00     0.048 A 
HETATM   11  C   UNK N   1      30.702  21.565  -5.095  0.00  0.00     0.085 A 
HETATM   12  N   UNK N   1      31.013  20.489  -5.885  0.00  0.00    -0.346 N 
HETATM   13  C   UNK N   1      32.064  19.678  -5.574  0.00  0.00     0.114 A 
HETATM   14  C   UNK N   1      32.859  19.909  -4.447  0.00  0.00     0.104 A 
HETATM   15  C   UNK N   1      32.557  21.007  -3.623  0.00  0.00     0.202 A 
HETATM   16  O   UNK N   1      33.228  21.242  -2.631  0.00  0.00    -0.286 OA
ENDROOT
BRANCH   6  17
HETATM   17  N   UNK N   1      28.187  24.418  -4.902  0.00  0.00    -0.373 N 
HETATM   18  C   UNK N   1      26.890  24.200  -4.267  0.00  0.00     0.153 C 
HETATM   19  C   UNK N   1      25.746  24.905  -4.982  0.00  0.00     0.291 C 
HETATM   20  N   UNK N   1      26.106  26.292  -5.213  0.00  0.00     0.087 N 
HETATM   21  C   UNK N   1      24.956  26.944  -5.806  0.00  0.00     0.310 C 
HETATM   22  C   UNK N   1      27.159  26.273  -6.214  0.00  0.00     0.291 C 
HETATM   23  C   UNK N   1      28.424  25.673  -5.611  0.00  0.00     0.153 C 
ENDBRANCH   6  17
BRANCH  14  24
HETATM   24  C   UNK N   1      33.987  18.987  -4.163  0.00  0.00     0.181 C 
HETATM   25  O   UNK N   1      35.137  19.307  -4.419  0.00  0.00    -0.646 OA
BRANCH  24  26
HETATM   26  O   UNK N   1      33.746  17.780  -3.615  0.00  0.00    -0.772 OA
HETATM   27  H   UNK N   1      34.458  17.256  -3.305  0.00  0.00     0.167 HD
ENDBRANCH  24  26
ENDBRANCH  14  24
TORSDOF 3
ENDMDL
MODEL 9
REMARK VINA RESULT:      -6.4     13.936     16.675
REMARK  3 active torsions:
REMARK  status: ('A' for Active; 'I' for Inactive)
REMARK    1  A    between atoms: C_6  and  N_7 
REMARK    2  A    between atoms: C_21  and  C_22 
REMARK    3  A    between atoms: C_22  and  O_23 
ROOT
HETATM    1  C   UNK N   1      35.804   7.689  16.409  0.00  0.00     0.035 C 
HETATM    2  C   UNK N   1      35.904   8.954  15.567  0.00  0.00     0.110 A 
HETATM    3  C   UNK N   1      36.138   8.868  14.069  0.00  0.00     0.201 A 
HETATM    4  O   UNK N   1      36.206  10.100  13.448  0.00  0.00    -0.344 OA
HETATM    5  C   UNK N   1      36.092  11.319  14.036  0.00  0.00     0.126 A 
HETATM    6  C   UNK N   1      36.192  12.513  13.247  0.00  0.00     0.105 A 
HETATM    7  C   UNK N   1      36.056  13.764  13.912  0.00  0.00     0.146 A 
HETATM    8  F   UNK N   1      36.127  14.947  13.253  0.00  0.00    -0.204 F 
HETATM    9  C   UNK N   1      35.841  13.824  15.279  0.00  0.00     0.062 A 
HETATM   10  C   UNK N   1      35.750  12.668  16.045  0.00  0.00     0.048 A 
HETATM   11  C   UNK N   1      35.873  11.406  15.431  0.00  0.00     0.085 A 
HETATM   12  N   UNK N   1      35.778  10.270  16.192  0.00  0.00    -0.346 N 
HETATM   13  C   UNK N   1      35.568  10.348  17.538  0.00  0.00     0.114 A 
HETATM   14  C   UNK N   1      35.440  11.579  18.188  0.00  0.00     0.104 A 
HETATM   15  C   UNK N   1      35.533  12.757  17.426  0.00  0.00     0.202 A 
HETATM   16  O   UNK N   1      35.427  13.850  17.958  0.00  0.00    -0.286 OA
ENDROOT
BRANCH   6  17
HETATM   17  N   UNK N   1      36.426  12.463  11.815  0.00  0.00    -0.373 N 
HETATM   18  C   UNK N   1      35.293  12.546  10.898  0.00  0.00     0.153 C 
HETATM   19  C   UNK N   1      35.621  12.061   9.493  0.00  0.00     0.291 C 
HETATM   20  N   UNK N   1      36.844  12.697   9.039  0.00  0.00     0.087 N 
HETATM   21  C   UNK N   1      37.064  12.281   7.668  0.00  0.00     0.310 C 
HETATM   22  C   UNK N   1      37.914  12.131   9.842  0.00  0.00     0.291 C 
HETATM   23  C   UNK N   1      37.778  12.611  11.283  0.00  0.00     0.153 C 
ENDBRANCH   6  17
BRANCH  14  24
HETATM   24  C   UNK N   1      35.209  11.595  19.654  0.00  0.00     0.181 C 
HETATM   25  O   UNK N   1      34.641  10.667  20.209  0.00  0.00    -0.646 OA
BRANCH  24  26
HETATM   26  O   UNK N   1      35.632  12.642  20.389  0.00  0.00    -0.772 OA
HETATM   27  H   UNK N   1      35.979  12.502  21.248  0.00  0.00     0.167 HD
ENDBRANCH  24  26
ENDBRANCH  14  24
TORSDOF 3
ENDMDL
