MODEL 1
REMARK VINA RESULT:      -4.8      0.000      0.000
REMARK  1 active torsions:
REMARK  status: ('A' for Active; 'I' for Inactive)
REMARK    1  A    between atoms: C_5  and  N_6 
ROOT
HETATM    1  C   UNK N   1      25.761  23.770  -5.887  0.00  0.00     0.049 C 
HETATM    2  C   UNK N   1      25.780  25.099  -5.212  0.00  0.00    -0.056 A 
HETATM    3  C   UNK N   1      25.127  26.176  -5.823  0.00  0.00     0.009 A 
HETATM    4  C   UNK N   1      25.126  27.435  -5.216  0.00  0.00     0.029 A 
HETATM    5  C   UNK N   1      25.778  27.622  -3.995  0.00  0.00     0.026 A 
HETATM    6  C   UNK N   1      26.432  26.553  -3.379  0.00  0.00     0.036 A 
HETATM    7  C   UNK N   1      26.439  25.290  -3.979  0.00  0.00    -0.054 A 
HETATM    8  C   UNK N   1      27.147  24.174  -3.291  0.00  0.00     0.049 C 
ENDROOT
BRANCH   5   9
HETATM    9  N   UNK N   1      25.777  28.891  -3.384  0.00  0.00    -0.399 N 
HETATM   10  H   UNK N   1      25.080  29.121  -2.729  0.00  0.00     0.156 HD
HETATM   11  H   UNK N   1      26.475  29.547  -3.612  0.00  0.00     0.156 HD
ENDBRANCH   5   9
TORSDOF 1
ENDMDL
MODEL 2
REMARK VINA RESULT:      -4.5     19.166     20.734
REMARK  1 active torsions:
REMARK  status: ('A' for Active; 'I' for Inactive)
REMARK    1  A    between atoms: C_5  and  N_6 
ROOT
HETATM    1  C   UNK N   1      23.147  11.817  13.034  0.00  0.00     0.049 C 
HETATM    2  C   UNK N   1      23.138  12.068  11.564  0.00  0.00    -0.056 A 
HETATM    3  C   UNK N   1      24.359  12.136  10.884  0.00  0.00     0.009 A 
HETATM    4  C   UNK N   1      24.385  12.369   9.506  0.00  0.00     0.029 A 
HETATM    5  C   UNK N   1      23.190  12.536   8.803  0.00  0.00     0.026 A 
HETATM    6  C   UNK N   1      21.967  12.470   9.475  0.00  0.00     0.036 A 
HETATM    7  C   UNK N   1      21.932  12.236  10.853  0.00  0.00    -0.054 A 
HETATM    8  C   UNK N   1      20.608  12.172  11.534  0.00  0.00     0.049 C 
ENDROOT
BRANCH   5   9
HETATM    9  N   UNK N   1      23.216  12.771   7.415  0.00  0.00    -0.399 N 
HETATM   10  H   UNK N   1      22.442  12.526   6.859  0.00  0.00     0.156 HD
HETATM   11  H   UNK N   1      24.009  13.181   7.000  0.00  0.00     0.156 HD
ENDBRANCH   5   9
TORSDOF 1
ENDMDL
MODEL 3
REMARK VINA RESULT:      -4.5     26.674     27.989
REMARK  1 active torsions:
REMARK  status: ('A' for Active; 'I' for Inactive)
REMARK    1  A    between atoms: C_5  and  N_6 
ROOT
HETATM    1  C   UNK N   1      35.939  11.730  15.095  0.00  0.00     0.049 C 
HETATM    2  C   UNK N   1      35.668  12.081  16.519  0.00  0.00    -0.056 A 
HETATM    3  C   UNK N   1      35.428  13.419  16.850  0.00  0.00     0.009 A 
HETATM    4  C   UNK N   1      35.172  13.781  18.176  0.00  0.00     0.029 A 
HETATM    5  C   UNK N   1      35.154  12.806  19.175  0.00  0.00     0.026 A 
HETATM    6  C   UNK N   1      35.393  11.469  18.853  0.00  0.00     0.036 A 
HETATM    7  C   UNK N   1      35.650  11.097  17.530  0.00  0.00    -0.054 A 
HETATM    8  C   UNK N   1      35.900   9.660  17.225  0.00  0.00     0.049 C 
ENDROOT
BRANCH   5   9
HETATM    9  N   UNK N   1      34.896  13.171  20.511  0.00  0.00    -0.399 N 
HETATM   10  H   UNK N   1      34.719  12.477  21.186  0.00  0.00     0.156 HD
HETATM   11  H   UNK N   1      34.891  14.121  20.769  0.00  0.00     0.156 HD
ENDBRANCH   5   9
TORSDOF 1
ENDMDL
MODEL 4
REMARK VINA RESULT:      -4.5     18.929     20.480
REMARK  1 active torsions:
REMARK  status: ('A' for Active; 'I' for Inactive)
REMARK    1  A    between atoms: C_5  and  N_6 
ROOT
HETATM    1  C   UNK N   1      20.417  12.107  11.689  0.00  0.00     0.049 C 
HETATM    2  C   UNK N   1      21.621  12.367  10.847  0.00  0.00    -0.056 A 
HETATM    3  C   UNK N   1      21.441  12.761   9.516  0.00  0.00     0.009 A 
HETATM    4  C   UNK N   1      22.548  13.012   8.701  0.00  0.00     0.029 A 
HETATM    5  C   UNK N   1      23.839  12.871   9.214  0.00  0.00     0.026 A 
HETATM    6  C   UNK N   1      24.027  12.478  10.540  0.00  0.00     0.036 A 
HETATM    7  C   UNK N   1      22.926  12.225  11.363  0.00  0.00    -0.054 A 
HETATM    8  C   UNK N   1      23.166  11.808  12.774  0.00  0.00     0.049 C 
ENDROOT
BRANCH   5   9
HETATM    9  N   UNK N   1      24.955  13.124   8.392  0.00  0.00    -0.399 N 
HETATM   10  H   UNK N   1      25.557  12.388   8.138  0.00  0.00     0.156 HD
HETATM   11  H   UNK N   1      25.132  14.038   8.072  0.00  0.00     0.156 HD
ENDBRANCH   5   9
TORSDOF 1
ENDMDL
MODEL 5
REMARK VINA RESULT:      -4.4      2.217      3.032
REMARK  1 active torsions:
REMARK  status: ('A' for Active; 'I' for Inactive)
REMARK    1  A    between atoms: C_5  and  N_6 
ROOT
HETATM    1  C   UNK N   1      26.375  26.207  -8.158  0.00  0.00     0.049 C 
HETATM    2  C   UNK N   1      26.308  27.026  -6.913  0.00  0.00    -0.056 A 
HETATM    3  C   UNK N   1      25.277  26.782  -5.999  0.00  0.00     0.009 A 
HETATM    4  C   UNK N   1      25.186  27.532  -4.824  0.00  0.00     0.029 A 
HETATM    5  C   UNK N   1      26.127  28.529  -4.557  0.00  0.00     0.026 A 
HETATM    6  C   UNK N   1      27.159  28.778  -5.463  0.00  0.00     0.036 A 
HETATM    7  C   UNK N   1      27.258  28.033  -6.642  0.00  0.00    -0.054 A 
HETATM    8  C   UNK N   1      28.373  28.329  -7.585  0.00  0.00     0.049 C 
ENDROOT
BRANCH   5   9
HETATM    9  N   UNK N   1      26.035  29.284  -3.372  0.00  0.00    -0.399 N 
HETATM   10  H   UNK N   1      25.354  29.990  -3.289  0.00  0.00     0.156 HD
HETATM   11  H   UNK N   1      26.653  29.107  -2.626  0.00  0.00     0.156 HD
ENDBRANCH   5   9
TORSDOF 1
ENDMDL
MODEL 6
REMARK VINA RESULT:      -4.4     26.126     28.129
REMARK  1 active torsions:
REMARK  status: ('A' for Active; 'I' for Inactive)
REMARK    1  A    between atoms: C_5  and  N_6 
ROOT
HETATM    1  C   UNK N   1      35.828  10.179  15.723  0.00  0.00     0.049 C 
HETATM    2  C   UNK N   1      35.591  11.024  16.928  0.00  0.00    -0.056 A 
HETATM    3  C   UNK N   1      35.660  10.430  18.193  0.00  0.00     0.009 A 
HETATM    4  C   UNK N   1      35.443  11.194  19.343  0.00  0.00     0.029 A 
HETATM    5  C   UNK N   1      35.156  12.557  19.232  0.00  0.00     0.026 A 
HETATM    6  C   UNK N   1      35.086  13.157  17.974  0.00  0.00     0.036 A 
HETATM    7  C   UNK N   1      35.301  12.401  16.818  0.00  0.00    -0.054 A 
HETATM    8  C   UNK N   1      35.217  13.077  15.493  0.00  0.00     0.049 C 
ENDROOT
BRANCH   5   9
HETATM    9  N   UNK N   1      34.938  13.327  20.391  0.00  0.00    -0.399 N 
HETATM   10  H   UNK N   1      35.337  13.053  21.247  0.00  0.00     0.156 HD
HETATM   11  H   UNK N   1      34.385  14.141  20.344  0.00  0.00     0.156 HD
ENDBRANCH   5   9
TORSDOF 1
ENDMDL
MODEL 7
REMARK VINA RESULT:      -4.4     26.660     28.147
REMARK  1 active torsions:
REMARK  status: ('A' for Active; 'I' for Inactive)
REMARK    1  A    between atoms: C_5  and  N_6 
ROOT
HETATM    1  C   UNK N   1      35.269   9.650  17.080  0.00  0.00     0.049 C 
HETATM    2  C   UNK N   1      35.264  11.074  17.524  0.00  0.00    -0.056 A 
HETATM    3  C   UNK N   1      35.143  12.081  16.560  0.00  0.00     0.009 A 
HETATM    4  C   UNK N   1      35.136  13.425  16.942  0.00  0.00     0.029 A 
HETATM    5  C   UNK N   1      35.249  13.767  18.292  0.00  0.00     0.026 A 
HETATM    6  C   UNK N   1      35.370  12.769  19.260  0.00  0.00     0.036 A 
HETATM    7  C   UNK N   1      35.378  11.421  18.886  0.00  0.00    -0.054 A 
HETATM    8  C   UNK N   1      35.509  10.384  19.948  0.00  0.00     0.049 C 
ENDROOT
BRANCH   5   9
HETATM    9  N   UNK N   1      35.241  15.122  18.678  0.00  0.00    -0.399 N 
HETATM   10  H   UNK N   1      35.646  15.802  18.094  0.00  0.00     0.156 HD
HETATM   11  H   UNK N   1      34.831  15.387  19.532  0.00  0.00     0.156 HD
ENDBRANCH   5   9
TORSDOF 1
ENDMDL
MODEL 8
REMARK VINA RESULT:      -4.3     25.597     27.073
REMARK  1 active torsions:
REMARK  status: ('A' for Active; 'I' for Inactive)
REMARK    1  A    between atoms: C_5  and  N_6 
ROOT
HETATM    1  C   UNK N   1      35.359  11.205  19.103  0.00  0.00     0.049 C 
HETATM    2  C   UNK N   1      35.085  11.401  17.650  0.00  0.00    -0.056 A 
HETATM    3  C   UNK N   1      34.871  10.276  16.846  0.00  0.00     0.009 A 
HETATM    4  C   UNK N   1      34.613  10.425  15.481  0.00  0.00     0.029 A 
HETATM    5  C   UNK N   1      34.567  11.701  14.914  0.00  0.00     0.026 A 
HETATM    6  C   UNK N   1      34.780  12.829  15.709  0.00  0.00     0.036 A 
HETATM    7  C   UNK N   1      35.039  12.689  17.076  0.00  0.00    -0.054 A 
HETATM    8  C   UNK N   1      35.261  13.916  17.893  0.00  0.00     0.049 C 
ENDROOT
BRANCH   5   9
HETATM    9  N   UNK N   1      34.307  11.852  13.538  0.00  0.00    -0.399 N 
HETATM   10  H   UNK N   1      34.873  12.443  12.992  0.00  0.00     0.156 HD
HETATM   11  H   UNK N   1      33.558  11.366  13.123  0.00  0.00     0.156 HD
ENDBRANCH   5   9
TORSDOF 1
ENDMDL
MODEL 9
REMARK VINA RESULT:      -4.3     26.680     28.603
REMARK  1 active torsions:
REMARK  status: ('A' for Active; 'I' for Inactive)
REMARK    1  A    between atoms: C_5  and  N_6 
ROOT
HETATM    1  C   UNK N   1      35.247  12.896  15.847  0.00  0.00     0.049 C 
HETATM    2  C   UNK N   1      35.238  12.335  17.229  0.00  0.00    -0.056 A 
HETATM    3  C   UNK N   1      35.197  10.946  17.394  0.00  0.00     0.009 A 
HETATM    4  C   UNK N   1      35.187  10.389  18.675  0.00  0.00     0.029 A 
HETATM    5  C   UNK N   1      35.218  11.220  19.798  0.00  0.00     0.026 A 
HETATM    6  C   UNK N   1      35.259  12.606  19.642  0.00  0.00     0.036 A 
HETATM    7  C   UNK N   1      35.269  13.173  18.364  0.00  0.00    -0.054 A 
HETATM    8  C   UNK N   1      35.313  14.657  18.238  0.00  0.00     0.049 C 
ENDROOT
BRANCH   5   9
HETATM    9  N   UNK N   1      35.209  10.658  21.090  0.00  0.00    -0.399 N 
HETATM   10  H   UNK N   1      34.693  11.088  21.809  0.00  0.00     0.156 HD
HETATM   11  H   UNK N   1      35.718   9.836  21.273  0.00  0.00     0.156 HD
ENDBRANCH   5   9
TORSDOF 1
ENDMDL
