MODEL 1
REMARK VINA RESULT:      -5.9      0.000      0.000
REMARK WARNING: 32 MAX_TORS EXCEEDED!!!
REMARK  38 active torsions:
REMARK  status: ('A' for Active; 'I' for Inactive)
REMARK    1  A    between atoms: C_6  and  C_4 
REMARK    2  A    between atoms: C_7  and  C_5 
REMARK    3  A    between atoms: C_8  and  C_6 
REMARK    4  A    between atoms: C_9  and  C_7 
REMARK    5  A    between atoms: C_11  and  C_9 
REMARK    6  A    between atoms: C_12  and  C_10 
REMARK    7  A    between atoms: C_14  and  C_12 
REMARK    8  A    between atoms: C_15  and  C_13 
REMARK    9  A    between atoms: C_17  and  C_15 
REMARK   10  A    between atoms: C_19  and  C_16 
REMARK   11  A    between atoms: C_18  and  C_17 
REMARK   12  A    between atoms: C_22  and  C_19 
REMARK   13  A    between atoms: C_21  and  C_20 
REMARK   14  A    between atoms: C_23  and  C_21 
REMARK   15  A    between atoms: C_24  and  C_22 
REMARK   16  A    between atoms: C_25  and  C_23 
REMARK   17  A    between atoms: C_26  and  C_24 
REMARK   18  A    between atoms: C_27  and  C_25 
REMARK   19  A    between atoms: C_28  and  C_26 
REMARK   20  A    between atoms: C_29  and  C_27 
REMARK   21  A    between atoms: C_30  and  C_28 
REMARK   22  A    between atoms: C_31  and  C_29 
REMARK   23  A    between atoms: C_32  and  C_30 
REMARK   24  A    between atoms: C_38  and  C_31 
REMARK   25  A    between atoms: C_39  and  C_32 
REMARK   26  A    between atoms: C_34  and  C_33 
REMARK   27  A    between atoms: N_40  and  C_33 
REMARK   28  A    between atoms: O_46  and  C_34 
REMARK   29  A    between atoms: C_37  and  C_35 
REMARK   30  A    between atoms: O_45  and  C_35 
REMARK   31  A    between atoms: C_37  and  C_36 
REMARK   32  A    between atoms: O_47  and  C_36 
REMARK   33  A    between atoms: C_37  and  O_48 
REMARK   34  A    between atoms: O_45  and  C_38 
REMARK   35  A    between atoms: O_48  and  C_39 
REMARK   36  A    between atoms: P_49  and  O_43 
REMARK   37  A    between atoms: P_49  and  O_46 
REMARK   38  A    between atoms: P_49  and  O_47 
ROOT
HETATM    1  C   UNK N   1      20.315  15.849   6.971  0.00  0.00     0.180 C 
ENDROOT
BRANCH   1   2
HETATM    2  C   UNK N   1      21.686  16.503   6.803  0.00  0.00     0.213 C 
BRANCH   2   3
HETATM    3  O   UNK N   1      21.653  17.867   6.614  0.00  0.00    -0.319 OA
BRANCH   3   4
HETATM    4  C   UNK N   1      21.872  18.467   5.418  0.00  0.00     0.258 C 
HETATM    5  O   UNK N   1      21.194  19.430   5.103  0.00  0.00    -0.265 OA
BRANCH   4   6
HETATM    6  C   UNK N   1      22.990  18.041   4.511  0.00  0.00     0.111 C 
BRANCH   6   7
HETATM    7  C   UNK N   1      24.297  18.752   4.815  0.00  0.00     0.010 C 
BRANCH   7   8
HETATM    8  C   UNK N   1      25.289  18.514   3.688  0.00  0.00     0.000 C 
BRANCH   8   9
HETATM    9  C   UNK N   1      26.125  19.757   3.422  0.00  0.00     0.000 C 
BRANCH   9  10
HETATM   10  C   UNK N   1      27.302  19.874   4.387  0.00  0.00     0.004 C 
BRANCH  10  11
HETATM   11  C   UNK N   1      27.160  20.995   5.423  0.00  0.00     0.027 C 
BRANCH  11  12
HETATM   12  C   UNK N   1      27.508  20.557   6.817  0.00  0.00    -0.031 C 
HETATM   13  C   UNK N   1      27.944  19.311   7.064  0.00  0.00    -0.030 C 
BRANCH  13  14
HETATM   14  C   UNK N   1      28.271  18.802   8.444  0.00  0.00     0.030 C 
BRANCH  14  15
HETATM   15  C   UNK N   1      28.769  17.357   8.516  0.00  0.00     0.030 C 
BRANCH  15  16
HETATM   16  C   UNK N   1      30.266  17.196   8.420  0.00  0.00    -0.030 C 
HETATM   17  C   UNK N   1      31.136  18.215   8.546  0.00  0.00    -0.030 C 
BRANCH  17  18
HETATM   18  C   UNK N   1      32.605  17.993   8.373  0.00  0.00     0.030 C 
BRANCH  18  19
HETATM   19  C   UNK N   1      32.822  16.852   7.389  0.00  0.00     0.030 C 
BRANCH  19  20
HETATM   20  C   UNK N   1      33.116  17.348   6.010  0.00  0.00    -0.031 C 
HETATM   21  C   UNK N   1      32.362  16.980   4.969  0.00  0.00    -0.035 C 
HETATM   22  C   UNK N   1      32.684  17.464   3.596  0.00  0.00     0.036 C 
ENDBRANCH  19  20
ENDBRANCH  18  19
ENDBRANCH  17  18
ENDBRANCH  15  16
ENDBRANCH  14  15
ENDBRANCH  13  14
ENDBRANCH  11  12
ENDBRANCH  10  11
ENDBRANCH   9  10
ENDBRANCH   8   9
ENDBRANCH   7   8
ENDBRANCH   6   7
ENDBRANCH   4   6
ENDBRANCH   3   4
ENDBRANCH   2   3
ENDBRANCH   1   2
BRANCH   1  23
HETATM   23  C   UNK N   1      19.768  15.331   5.649  0.00  0.00     0.215 C 
BRANCH  23  24
HETATM   24  O   UNK N   1      20.836  15.083   4.767  0.00  0.00    -0.294 OA
BRANCH  24  25
HETATM   25  P   UNK N   1      20.225  14.061   3.497  0.00  0.00     0.393 P 
HETATM   26  O   UNK N   1      18.691  13.858   3.631  0.00  0.00    -0.631 OA
BRANCH  25  27
HETATM   27  O   UNK N   1      20.027  13.244   5.018  0.00  0.00    -0.307 OA
HETATM   28  H   UNK N   1      20.737  12.905   5.585  0.00  0.00     0.222 HD
ENDBRANCH  25  27
BRANCH  25  29
HETATM   29  O   UNK N   1      19.574  15.665   3.304  0.00  0.00    -0.295 OA
BRANCH  29  30
HETATM   30  C   UNK N   1      20.038  16.110   2.062  0.00  0.00     0.199 C 
BRANCH  30  31
HETATM   31  C   UNK N   1      20.248  17.612   2.088  0.00  0.00     0.138 C 
BRANCH  31  32
HETATM   32  N   UNK N   1      18.977  18.297   1.925  0.00  0.00    -0.428 N 
HETATM   33  H   UNK N   1      18.098  18.546   1.472  0.00  0.00     0.149 HD
HETATM   34  H   UNK N   1      18.946  18.874   2.765  0.00  0.00     0.149 HD
ENDBRANCH  31  32
ENDBRANCH  30  31
ENDBRANCH  29  30
ENDBRANCH  25  29
ENDBRANCH  24  25
ENDBRANCH  23  24
ENDBRANCH   1  23
BRANCH   1  35
HETATM   35  O   UNK N   1      20.319  14.817   7.894  0.00  0.00    -0.312 OA
BRANCH  35  36
HETATM   36  C   UNK N   1      19.696  14.833   9.100  0.00  0.00     0.259 C 
HETATM   37  O   UNK N   1      18.885  15.718   9.331  0.00  0.00    -0.265 OA
BRANCH  36  38
HETATM   38  C   UNK N   1      19.960  13.794  10.153  0.00  0.00     0.111 C 
BRANCH  38  39
HETATM   39  C   UNK N   1      21.443  13.440  10.207  0.00  0.00     0.010 C 
BRANCH  39  40
HETATM   40  C   UNK N   1      21.690  12.079  10.843  0.00  0.00     0.000 C 
BRANCH  40  41
HETATM   41  C   UNK N   1      23.028  11.506  10.415  0.00  0.00     0.000 C 
BRANCH  41  42
HETATM   42  C   UNK N   1      24.139  12.452  10.840  0.00  0.00     0.000 C 
BRANCH  42  43
HETATM   43  C   UNK N   1      24.974  12.845   9.636  0.00  0.00     0.004 C 
BRANCH  43  44
HETATM   44  C   UNK N   1      24.342  12.359   8.339  0.00  0.00     0.027 C 
BRANCH  44  45
HETATM   45  C   UNK N   1      24.325  13.441   7.305  0.00  0.00    -0.030 C 
HETATM   46  C   UNK N   1      25.241  14.411   7.307  0.00  0.00    -0.027 C 
BRANCH  46  47
HETATM   47  C   UNK N   1      25.193  15.488   6.263  0.00  0.00     0.053 C 
BRANCH  47  48
HETATM   48  C   UNK N   1      26.547  16.108   6.066  0.00  0.00    -0.027 C 
HETATM   49  C   UNK N   1      27.358  15.684   5.099  0.00  0.00    -0.030 C 
BRANCH  49  50
HETATM   50  C   UNK N   1      28.698  16.335   4.924  0.00  0.00     0.026 C 
BRANCH  50  51
HETATM   51  C   UNK N   1      28.926  16.784   3.491  0.00  0.00    -0.001 C 
HETATM   52  C   UNK N   1      28.530  15.684   2.525  0.00  0.00     0.005 C 
ENDBRANCH  50  51
ENDBRANCH  49  50
ENDBRANCH  47  48
ENDBRANCH  46  47
ENDBRANCH  44  45
ENDBRANCH  43  44
ENDBRANCH  42  43
ENDBRANCH  41  42
ENDBRANCH  40  41
ENDBRANCH  39  40
ENDBRANCH  38  39
ENDBRANCH  36  38
ENDBRANCH  35  36
ENDBRANCH   1  35
TORSDOF 38
ENDMDL
MODEL 2
REMARK VINA RESULT:      -5.6      3.416      8.535
REMARK WARNING: 32 MAX_TORS EXCEEDED!!!
REMARK  38 active torsions:
REMARK  status: ('A' for Active; 'I' for Inactive)
REMARK    1  A    between atoms: C_6  and  C_4 
REMARK    2  A    between atoms: C_7  and  C_5 
REMARK    3  A    between atoms: C_8  and  C_6 
REMARK    4  A    between atoms: C_9  and  C_7 
REMARK    5  A    between atoms: C_11  and  C_9 
REMARK    6  A    between atoms: C_12  and  C_10 
REMARK    7  A    between atoms: C_14  and  C_12 
REMARK    8  A    between atoms: C_15  and  C_13 
REMARK    9  A    between atoms: C_17  and  C_15 
REMARK   10  A    between atoms: C_19  and  C_16 
REMARK   11  A    between atoms: C_18  and  C_17 
REMARK   12  A    between atoms: C_22  and  C_19 
REMARK   13  A    between atoms: C_21  and  C_20 
REMARK   14  A    between atoms: C_23  and  C_21 
REMARK   15  A    between atoms: C_24  and  C_22 
REMARK   16  A    between atoms: C_25  and  C_23 
REMARK   17  A    between atoms: C_26  and  C_24 
REMARK   18  A    between atoms: C_27  and  C_25 
REMARK   19  A    between atoms: C_28  and  C_26 
REMARK   20  A    between atoms: C_29  and  C_27 
REMARK   21  A    between atoms: C_30  and  C_28 
REMARK   22  A    between atoms: C_31  and  C_29 
REMARK   23  A    between atoms: C_32  and  C_30 
REMARK   24  A    between atoms: C_38  and  C_31 
REMARK   25  A    between atoms: C_39  and  C_32 
REMARK   26  A    between atoms: C_34  and  C_33 
REMARK   27  A    between atoms: N_40  and  C_33 
REMARK   28  A    between atoms: O_46  and  C_34 
REMARK   29  A    between atoms: C_37  and  C_35 
REMARK   30  A    between atoms: O_45  and  C_35 
REMARK   31  A    between atoms: C_37  and  C_36 
REMARK   32  A    between atoms: O_47  and  C_36 
REMARK   33  A    between atoms: C_37  and  O_48 
REMARK   34  A    between atoms: O_45  and  C_38 
REMARK   35  A    between atoms: O_48  and  C_39 
REMARK   36  A    between atoms: P_49  and  O_43 
REMARK   37  A    between atoms: P_49  and  O_46 
REMARK   38  A    between atoms: P_49  and  O_47 
ROOT
HETATM    1  C   UNK N   1      23.936  18.862   3.819  0.00  0.00     0.180 C 
ENDROOT
BRANCH   1   2
HETATM    2  C   UNK N   1      22.998  19.934   3.266  0.00  0.00     0.213 C 
BRANCH   2   3
HETATM    3  O   UNK N   1      21.852  19.449   2.675  0.00  0.00    -0.319 OA
BRANCH   3   4
HETATM    4  C   UNK N   1      20.616  19.565   3.222  0.00  0.00     0.258 C 
HETATM    5  O   UNK N   1      20.353  20.548   3.893  0.00  0.00    -0.265 OA
BRANCH   4   6
HETATM    6  C   UNK N   1      19.531  18.566   2.945  0.00  0.00     0.111 C 
BRANCH   6   7
HETATM    7  C   UNK N   1      20.003  17.129   3.092  0.00  0.00     0.010 C 
BRANCH   7   8
HETATM    8  C   UNK N   1      19.372  16.502   4.324  0.00  0.00     0.000 C 
BRANCH   8   9
HETATM    9  C   UNK N   1      19.263  14.992   4.175  0.00  0.00     0.000 C 
BRANCH   9  10
HETATM   10  C   UNK N   1      19.806  14.254   5.396  0.00  0.00     0.004 C 
BRANCH  10  11
HETATM   11  C   UNK N   1      20.038  12.754   5.174  0.00  0.00     0.027 C 
BRANCH  11  12
HETATM   12  C   UNK N   1      21.237  12.228   5.910  0.00  0.00    -0.031 C 
HETATM   13  C   UNK N   1      21.656  10.964   5.738  0.00  0.00    -0.030 C 
BRANCH  13  14
HETATM   14  C   UNK N   1      22.826  10.368   6.477  0.00  0.00     0.030 C 
BRANCH  14  15
HETATM   15  C   UNK N   1      23.961  11.339   6.813  0.00  0.00     0.030 C 
BRANCH  15  16
HETATM   16  C   UNK N   1      23.967  11.841   8.235  0.00  0.00    -0.030 C 
HETATM   17  C   UNK N   1      23.172  11.349   9.204  0.00  0.00    -0.030 C 
BRANCH  17  18
HETATM   18  C   UNK N   1      23.184  11.940  10.577  0.00  0.00     0.030 C 
BRANCH  18  19
HETATM   19  C   UNK N   1      21.752  12.241  11.000  0.00  0.00     0.030 C 
BRANCH  19  20
HETATM   20  C   UNK N   1      21.012  13.016   9.959  0.00  0.00    -0.031 C 
HETATM   21  C   UNK N   1      21.301  14.300   9.720  0.00  0.00    -0.035 C 
HETATM   22  C   UNK N   1      20.536  15.067   8.695  0.00  0.00     0.036 C 
ENDBRANCH  19  20
ENDBRANCH  18  19
ENDBRANCH  17  18
ENDBRANCH  15  16
ENDBRANCH  14  15
ENDBRANCH  13  14
ENDBRANCH  11  12
ENDBRANCH  10  11
ENDBRANCH   9  10
ENDBRANCH   8   9
ENDBRANCH   7   8
ENDBRANCH   6   7
ENDBRANCH   4   6
ENDBRANCH   3   4
ENDBRANCH   2   3
ENDBRANCH   1   2
BRANCH   1  23
HETATM   23  C   UNK N   1      25.398  19.245   3.650  0.00  0.00     0.215 C 
BRANCH  23  24
HETATM   24  O   UNK N   1      26.045  19.181   4.898  0.00  0.00    -0.294 OA
BRANCH  24  25
HETATM   25  P   UNK N   1      27.444  20.213   4.803  0.00  0.00     0.393 P 
HETATM   26  O   UNK N   1      27.872  20.709   6.211  0.00  0.00    -0.631 OA
BRANCH  25  27
HETATM   27  O   UNK N   1      26.092  21.152   5.360  0.00  0.00    -0.307 OA
HETATM   28  H   UNK N   1      26.028  21.619   6.208  0.00  0.00     0.222 HD
ENDBRANCH  25  27
BRANCH  25  29
HETATM   29  O   UNK N   1      27.868  18.751   5.649  0.00  0.00    -0.295 OA
BRANCH  29  30
HETATM   30  C   UNK N   1      27.913  19.101   7.002  0.00  0.00     0.199 C 
BRANCH  30  31
HETATM   31  C   UNK N   1      28.174  17.873   7.854  0.00  0.00     0.138 C 
BRANCH  31  32
HETATM   32  N   UNK N   1      27.712  18.099   9.212  0.00  0.00    -0.428 N 
HETATM   33  H   UNK N   1      27.271  17.869  10.103  0.00  0.00     0.149 HD
HETATM   34  H   UNK N   1      27.998  19.065   9.368  0.00  0.00     0.149 HD
ENDBRANCH  31  32
ENDBRANCH  30  31
ENDBRANCH  29  30
ENDBRANCH  25  29
ENDBRANCH  24  25
ENDBRANCH  23  24
ENDBRANCH   1  23
BRANCH   1  35
HETATM   35  O   UNK N   1      23.695  18.570   5.152  0.00  0.00    -0.312 OA
BRANCH  35  36
HETATM   36  C   UNK N   1      22.771  17.690   5.613  0.00  0.00     0.259 C 
HETATM   37  O   UNK N   1      21.857  18.107   6.309  0.00  0.00    -0.265 OA
BRANCH  36  38
HETATM   38  C   UNK N   1      22.827  16.224   5.286  0.00  0.00     0.111 C 
BRANCH  38  39
HETATM   39  C   UNK N   1      23.455  15.435   6.430  0.00  0.00     0.010 C 
BRANCH  39  40
HETATM   40  C   UNK N   1      24.733  14.722   6.011  0.00  0.00     0.000 C 
BRANCH  40  41
HETATM   41  C   UNK N   1      25.863  15.707   5.778  0.00  0.00     0.000 C 
BRANCH  41  42
HETATM   42  C   UNK N   1      26.805  15.150   4.724  0.00  0.00     0.000 C 
BRANCH  42  43
HETATM   43  C   UNK N   1      26.874  16.095   3.539  0.00  0.00     0.004 C 
BRANCH  43  44
HETATM   44  C   UNK N   1      26.536  15.380   2.238  0.00  0.00     0.027 C 
BRANCH  44  45
HETATM   45  C   UNK N   1      25.390  14.435   2.421  0.00  0.00    -0.030 C 
HETATM   46  C   UNK N   1      24.137  14.811   2.155  0.00  0.00    -0.027 C 
BRANCH  46  47
HETATM   47  C   UNK N   1      23.008  13.844   2.358  0.00  0.00     0.053 C 
BRANCH  47  48
HETATM   48  C   UNK N   1      21.801  14.251   1.561  0.00  0.00    -0.027 C 
HETATM   49  C   UNK N   1      20.775  13.418   1.400  0.00  0.00    -0.030 C 
BRANCH  49  50
HETATM   50  C   UNK N   1      19.582  13.865   0.608  0.00  0.00     0.026 C 
BRANCH  50  51
HETATM   51  C   UNK N   1      18.535  12.770   0.496  0.00  0.00    -0.001 C 
HETATM   52  C   UNK N   1      18.306  12.120   1.848  0.00  0.00     0.005 C 
ENDBRANCH  50  51
ENDBRANCH  49  50
ENDBRANCH  47  48
ENDBRANCH  46  47
ENDBRANCH  44  45
ENDBRANCH  43  44
ENDBRANCH  42  43
ENDBRANCH  41  42
ENDBRANCH  40  41
ENDBRANCH  39  40
ENDBRANCH  38  39
ENDBRANCH  36  38
ENDBRANCH  35  36
ENDBRANCH   1  35
TORSDOF 38
ENDMDL
MODEL 3
REMARK VINA RESULT:      -5.5      2.806      6.523
REMARK WARNING: 32 MAX_TORS EXCEEDED!!!
REMARK  38 active torsions:
REMARK  status: ('A' for Active; 'I' for Inactive)
REMARK    1  A    between atoms: C_6  and  C_4 
REMARK    2  A    between atoms: C_7  and  C_5 
REMARK    3  A    between atoms: C_8  and  C_6 
REMARK    4  A    between atoms: C_9  and  C_7 
REMARK    5  A    between atoms: C_11  and  C_9 
REMARK    6  A    between atoms: C_12  and  C_10 
REMARK    7  A    between atoms: C_14  and  C_12 
REMARK    8  A    between atoms: C_15  and  C_13 
REMARK    9  A    between atoms: C_17  and  C_15 
REMARK   10  A    between atoms: C_19  and  C_16 
REMARK   11  A    between atoms: C_18  and  C_17 
REMARK   12  A    between atoms: C_22  and  C_19 
REMARK   13  A    between atoms: C_21  and  C_20 
REMARK   14  A    between atoms: C_23  and  C_21 
REMARK   15  A    between atoms: C_24  and  C_22 
REMARK   16  A    between atoms: C_25  and  C_23 
REMARK   17  A    between atoms: C_26  and  C_24 
REMARK   18  A    between atoms: C_27  and  C_25 
REMARK   19  A    between atoms: C_28  and  C_26 
REMARK   20  A    between atoms: C_29  and  C_27 
REMARK   21  A    between atoms: C_30  and  C_28 
REMARK   22  A    between atoms: C_31  and  C_29 
REMARK   23  A    between atoms: C_32  and  C_30 
REMARK   24  A    between atoms: C_38  and  C_31 
REMARK   25  A    between atoms: C_39  and  C_32 
REMARK   26  A    between atoms: C_34  and  C_33 
REMARK   27  A    between atoms: N_40  and  C_33 
REMARK   28  A    between atoms: O_46  and  C_34 
REMARK   29  A    between atoms: C_37  and  C_35 
REMARK   30  A    between atoms: O_45  and  C_35 
REMARK   31  A    between atoms: C_37  and  C_36 
REMARK   32  A    between atoms: O_47  and  C_36 
REMARK   33  A    between atoms: C_37  and  O_48 
REMARK   34  A    between atoms: O_45  and  C_38 
REMARK   35  A    between atoms: O_48  and  C_39 
REMARK   36  A    between atoms: P_49  and  O_43 
REMARK   37  A    between atoms: P_49  and  O_46 
REMARK   38  A    between atoms: P_49  and  O_47 
ROOT
HETATM    1  C   UNK N   1      20.536  15.846   6.199  0.00  0.00     0.180 C 
ENDROOT
BRANCH   1   2
HETATM    2  C   UNK N   1      19.409  15.311   5.316  0.00  0.00     0.213 C 
BRANCH   2   3
HETATM    3  O   UNK N   1      19.500  15.666   3.987  0.00  0.00    -0.319 OA
BRANCH   3   4
HETATM    4  C   UNK N   1      19.884  14.814   3.005  0.00  0.00     0.258 C 
HETATM    5  O   UNK N   1      19.054  14.078   2.499  0.00  0.00    -0.265 OA
BRANCH   4   6
HETATM    6  C   UNK N   1      21.280  14.818   2.454  0.00  0.00     0.111 C 
BRANCH   6   7
HETATM    7  C   UNK N   1      21.316  14.661   0.943  0.00  0.00     0.010 C 
BRANCH   7   8
HETATM    8  C   UNK N   1      22.001  13.355   0.576  0.00  0.00     0.000 C 
BRANCH   8   9
HETATM    9  C   UNK N   1      23.499  13.554   0.398  0.00  0.00     0.000 C 
BRANCH   9  10
HETATM   10  C   UNK N   1      24.310  12.466   1.098  0.00  0.00     0.004 C 
BRANCH  10  11
HETATM   11  C   UNK N   1      23.845  12.152   2.524  0.00  0.00     0.027 C 
BRANCH  11  12
HETATM   12  C   UNK N   1      24.907  12.394   3.557  0.00  0.00    -0.031 C 
HETATM   13  C   UNK N   1      24.708  13.258   4.567  0.00  0.00    -0.030 C 
BRANCH  13  14
HETATM   14  C   UNK N   1      25.749  13.572   5.610  0.00  0.00     0.030 C 
BRANCH  14  15
HETATM   15  C   UNK N   1      25.446  14.775   6.506  0.00  0.00     0.030 C 
BRANCH  15  16
HETATM   16  C   UNK N   1      26.644  15.624   6.854  0.00  0.00    -0.030 C 
HETATM   17  C   UNK N   1      26.964  16.763   6.214  0.00  0.00    -0.030 C 
BRANCH  17  18
HETATM   18  C   UNK N   1      28.203  17.520   6.570  0.00  0.00     0.030 C 
BRANCH  18  19
HETATM   19  C   UNK N   1      28.649  18.337   5.364  0.00  0.00     0.030 C 
BRANCH  19  20
HETATM   20  C   UNK N   1      27.853  19.593   5.213  0.00  0.00    -0.031 C 
HETATM   21  C   UNK N   1      27.591  20.374   6.267  0.00  0.00    -0.035 C 
HETATM   22  C   UNK N   1      26.774  21.610   6.104  0.00  0.00     0.036 C 
ENDBRANCH  19  20
ENDBRANCH  18  19
ENDBRANCH  17  18
ENDBRANCH  15  16
ENDBRANCH  14  15
ENDBRANCH  13  14
ENDBRANCH  11  12
ENDBRANCH  10  11
ENDBRANCH   9  10
ENDBRANCH   8   9
ENDBRANCH   7   8
ENDBRANCH   6   7
ENDBRANCH   4   6
ENDBRANCH   3   4
ENDBRANCH   2   3
ENDBRANCH   1   2
BRANCH   1  23
HETATM   23  C   UNK N   1      21.200  14.739   7.003  0.00  0.00     0.215 C 
BRANCH  23  24
HETATM   24  O   UNK N   1      20.229  14.069   7.769  0.00  0.00    -0.294 OA
BRANCH  24  25
HETATM   25  P   UNK N   1      20.717  14.191   9.435  0.00  0.00     0.393 P 
HETATM   26  O   UNK N   1      19.838  13.291  10.345  0.00  0.00    -0.631 OA
BRANCH  25  27
HETATM   27  O   UNK N   1      19.115  14.844   9.272  0.00  0.00    -0.307 OA
HETATM   28  H   UNK N   1      18.861  15.618   8.745  0.00  0.00     0.222 HD
ENDBRANCH  25  27
BRANCH  25  29
HETATM   29  O   UNK N   1      21.039  12.579   8.862  0.00  0.00    -0.295 OA
BRANCH  29  30
HETATM   30  C   UNK N   1      22.422  12.410   8.976  0.00  0.00     0.199 C 
BRANCH  30  31
HETATM   31  C   UNK N   1      22.937  13.119  10.215  0.00  0.00     0.138 C 
BRANCH  31  32
HETATM   32  N   UNK N   1      23.987  12.333  10.840  0.00  0.00    -0.428 N 
HETATM   33  H   UNK N   1      24.391  11.557  11.364  0.00  0.00     0.149 HD
HETATM   34  H   UNK N   1      24.814  12.891  10.627  0.00  0.00     0.149 HD
ENDBRANCH  31  32
ENDBRANCH  30  31
ENDBRANCH  29  30
ENDBRANCH  25  29
ENDBRANCH  24  25
ENDBRANCH  23  24
ENDBRANCH   1  23
BRANCH   1  35
HETATM   35  O   UNK N   1      21.503  16.531   5.484  0.00  0.00    -0.312 OA
BRANCH  35  36
HETATM   36  C   UNK N   1      21.818  17.842   5.636  0.00  0.00     0.259 C 
HETATM   37  O   UNK N   1      21.521  18.401   6.681  0.00  0.00    -0.265 OA
BRANCH  36  38
HETATM   38  C   UNK N   1      22.529  18.624   4.568  0.00  0.00     0.111 C 
BRANCH  38  39
HETATM   39  C   UNK N   1      24.022  18.721   4.868  0.00  0.00     0.010 C 
BRANCH  39  40
HETATM   40  C   UNK N   1      24.879  18.421   3.647  0.00  0.00     0.000 C 
BRANCH  40  41
HETATM   41  C   UNK N   1      24.931  16.932   3.362  0.00  0.00     0.000 C 
BRANCH  41  42
HETATM   42  C   UNK N   1      26.342  16.549   2.946  0.00  0.00     0.000 C 
BRANCH  42  43
HETATM   43  C   UNK N   1      26.298  15.388   1.971  0.00  0.00     0.004 C 
BRANCH  43  44
HETATM   44  C   UNK N   1      27.672  14.756   1.797  0.00  0.00     0.027 C 
BRANCH  44  45
HETATM   45  C   UNK N   1      28.166  14.171   3.082  0.00  0.00    -0.030 C 
HETATM   46  C   UNK N   1      29.197  14.711   3.735  0.00  0.00    -0.027 C 
BRANCH  46  47
HETATM   47  C   UNK N   1      29.677  14.095   5.017  0.00  0.00     0.053 C 
BRANCH  47  48
HETATM   48  C   UNK N   1      30.461  15.086   5.829  0.00  0.00    -0.027 C 
HETATM   49  C   UNK N   1      31.417  15.825   5.270  0.00  0.00    -0.030 C 
BRANCH  49  50
HETATM   50  C   UNK N   1      32.170  16.813   6.110  0.00  0.00     0.026 C 
BRANCH  50  51
HETATM   51  C   UNK N   1      31.749  16.754   7.568  0.00  0.00    -0.001 C 
HETATM   52  C   UNK N   1      32.677  15.842   8.348  0.00  0.00     0.005 C 
ENDBRANCH  50  51
ENDBRANCH  49  50
ENDBRANCH  47  48
ENDBRANCH  46  47
ENDBRANCH  44  45
ENDBRANCH  43  44
ENDBRANCH  42  43
ENDBRANCH  41  42
ENDBRANCH  40  41
ENDBRANCH  39  40
ENDBRANCH  38  39
ENDBRANCH  36  38
ENDBRANCH  35  36
ENDBRANCH   1  35
TORSDOF 38
ENDMDL
MODEL 4
REMARK VINA RESULT:      -5.4      7.328     11.517
REMARK WARNING: 32 MAX_TORS EXCEEDED!!!
REMARK  38 active torsions:
REMARK  status: ('A' for Active; 'I' for Inactive)
REMARK    1  A    between atoms: C_6  and  C_4 
REMARK    2  A    between atoms: C_7  and  C_5 
REMARK    3  A    between atoms: C_8  and  C_6 
REMARK    4  A    between atoms: C_9  and  C_7 
REMARK    5  A    between atoms: C_11  and  C_9 
REMARK    6  A    between atoms: C_12  and  C_10 
REMARK    7  A    between atoms: C_14  and  C_12 
REMARK    8  A    between atoms: C_15  and  C_13 
REMARK    9  A    between atoms: C_17  and  C_15 
REMARK   10  A    between atoms: C_19  and  C_16 
REMARK   11  A    between atoms: C_18  and  C_17 
REMARK   12  A    between atoms: C_22  and  C_19 
REMARK   13  A    between atoms: C_21  and  C_20 
REMARK   14  A    between atoms: C_23  and  C_21 
REMARK   15  A    between atoms: C_24  and  C_22 
REMARK   16  A    between atoms: C_25  and  C_23 
REMARK   17  A    between atoms: C_26  and  C_24 
REMARK   18  A    between atoms: C_27  and  C_25 
REMARK   19  A    between atoms: C_28  and  C_26 
REMARK   20  A    between atoms: C_29  and  C_27 
REMARK   21  A    between atoms: C_30  and  C_28 
REMARK   22  A    between atoms: C_31  and  C_29 
REMARK   23  A    between atoms: C_32  and  C_30 
REMARK   24  A    between atoms: C_38  and  C_31 
REMARK   25  A    between atoms: C_39  and  C_32 
REMARK   26  A    between atoms: C_34  and  C_33 
REMARK   27  A    between atoms: N_40  and  C_33 
REMARK   28  A    between atoms: O_46  and  C_34 
REMARK   29  A    between atoms: C_37  and  C_35 
REMARK   30  A    between atoms: O_45  and  C_35 
REMARK   31  A    between atoms: C_37  and  C_36 
REMARK   32  A    between atoms: O_47  and  C_36 
REMARK   33  A    between atoms: C_37  and  O_48 
REMARK   34  A    between atoms: O_45  and  C_38 
REMARK   35  A    between atoms: O_48  and  C_39 
REMARK   36  A    between atoms: P_49  and  O_43 
REMARK   37  A    between atoms: P_49  and  O_46 
REMARK   38  A    between atoms: P_49  and  O_47 
ROOT
HETATM    1  C   UNK N   1      34.817  15.436  10.255  0.00  0.00     0.180 C 
ENDROOT
BRANCH   1   2
HETATM    2  C   UNK N   1      34.955  16.919   9.913  0.00  0.00     0.213 C 
BRANCH   2   3
HETATM    3  O   UNK N   1      35.213  17.183   8.585  0.00  0.00    -0.319 OA
BRANCH   3   4
HETATM    4  C   UNK N   1      34.298  17.699   7.728  0.00  0.00     0.258 C 
HETATM    5  O   UNK N   1      34.519  17.663   6.530  0.00  0.00    -0.265 OA
BRANCH   4   6
HETATM    6  C   UNK N   1      32.976  18.226   8.205  0.00  0.00     0.111 C 
BRANCH   6   7
HETATM    7  C   UNK N   1      31.797  17.448   7.649  0.00  0.00     0.010 C 
BRANCH   7   8
HETATM    8  C   UNK N   1      31.009  16.819   8.786  0.00  0.00     0.000 C 
BRANCH   8   9
HETATM    9  C   UNK N   1      29.524  17.121   8.656  0.00  0.00     0.000 C 
BRANCH   9  10
HETATM   10  C   UNK N   1      29.216  18.600   8.881  0.00  0.00     0.004 C 
BRANCH  10  11
HETATM   11  C   UNK N   1      27.962  19.100   8.156  0.00  0.00     0.027 C 
BRANCH  11  12
HETATM   12  C   UNK N   1      28.184  19.339   6.690  0.00  0.00    -0.031 C 
HETATM   13  C   UNK N   1      27.287  20.015   5.954  0.00  0.00    -0.030 C 
BRANCH  13  14
HETATM   14  C   UNK N   1      27.435  20.252   4.473  0.00  0.00     0.030 C 
BRANCH  14  15
HETATM   15  C   UNK N   1      26.377  19.590   3.587  0.00  0.00     0.030 C 
BRANCH  15  16
HETATM   16  C   UNK N   1      25.118  19.173   4.306  0.00  0.00    -0.030 C 
HETATM   17  C   UNK N   1      24.738  17.892   4.465  0.00  0.00    -0.030 C 
BRANCH  17  18
HETATM   18  C   UNK N   1      23.443  17.555   5.131  0.00  0.00     0.030 C 
BRANCH  18  19
HETATM   19  C   UNK N   1      23.232  16.048   5.072  0.00  0.00     0.030 C 
BRANCH  19  20
HETATM   20  C   UNK N   1      24.338  15.300   5.742  0.00  0.00    -0.031 C 
HETATM   21  C   UNK N   1      24.601  14.027   5.427  0.00  0.00    -0.035 C 
HETATM   22  C   UNK N   1      25.692  13.287   6.124  0.00  0.00     0.036 C 
ENDBRANCH  19  20
ENDBRANCH  18  19
ENDBRANCH  17  18
ENDBRANCH  15  16
ENDBRANCH  14  15
ENDBRANCH  13  14
ENDBRANCH  11  12
ENDBRANCH  10  11
ENDBRANCH   9  10
ENDBRANCH   8   9
ENDBRANCH   7   8
ENDBRANCH   6   7
ENDBRANCH   4   6
ENDBRANCH   3   4
ENDBRANCH   2   3
ENDBRANCH   1   2
BRANCH   1  23
HETATM   23  C   UNK N   1      35.012  15.177  11.741  0.00  0.00     0.215 C 
BRANCH  23  24
HETATM   24  O   UNK N   1      34.666  13.844  12.032  0.00  0.00    -0.294 OA
BRANCH  24  25
HETATM   25  P   UNK N   1      36.045  13.114  12.803  0.00  0.00     0.393 P 
HETATM   26  O   UNK N   1      35.765  11.630  13.164  0.00  0.00    -0.631 OA
BRANCH  25  27
HETATM   27  O   UNK N   1      34.737  13.186  13.945  0.00  0.00    -0.307 OA
HETATM   28  H   UNK N   1      34.242  13.979  14.203  0.00  0.00     0.222 HD
ENDBRANCH  25  27
BRANCH  25  29
HETATM   29  O   UNK N   1      35.783  12.352  11.260  0.00  0.00    -0.295 OA
BRANCH  29  30
HETATM   30  C   UNK N   1      34.736  11.447  11.462  0.00  0.00     0.199 C 
BRANCH  30  31
HETATM   31  C   UNK N   1      34.509  10.619  10.211  0.00  0.00     0.138 C 
BRANCH  31  32
HETATM   32  N   UNK N   1      35.535  10.912   9.225  0.00  0.00    -0.428 N 
HETATM   33  H   UNK N   1      36.150  10.734   8.431  0.00  0.00     0.149 HD
HETATM   34  H   UNK N   1      35.796  11.865   9.478  0.00  0.00     0.149 HD
ENDBRANCH  31  32
ENDBRANCH  30  31
ENDBRANCH  29  30
ENDBRANCH  25  29
ENDBRANCH  24  25
ENDBRANCH  23  24
ENDBRANCH   1  23
BRANCH   1  35
HETATM   35  O   UNK N   1      33.603  14.902   9.857  0.00  0.00    -0.312 OA
BRANCH  35  36
HETATM   36  C   UNK N   1      33.421  14.030   8.834  0.00  0.00     0.259 C 
HETATM   37  O   UNK N   1      32.481  13.251   8.884  0.00  0.00    -0.265 OA
BRANCH  36  38
HETATM   38  C   UNK N   1      34.330  13.997   7.638  0.00  0.00     0.111 C 
BRANCH  38  39
HETATM   39  C   UNK N   1      33.580  13.521   6.398  0.00  0.00     0.010 C 
BRANCH  39  40
HETATM   40  C   UNK N   1      32.945  14.670   5.627  0.00  0.00     0.000 C 
BRANCH  40  41
HETATM   41  C   UNK N   1      33.245  14.571   4.143  0.00  0.00     0.000 C 
BRANCH  41  42
HETATM   42  C   UNK N   1      33.442  15.967   3.577  0.00  0.00     0.000 C 
BRANCH  42  43
HETATM   43  C   UNK N   1      32.111  16.535   3.120  0.00  0.00     0.004 C 
BRANCH  43  44
HETATM   44  C   UNK N   1      31.574  17.557   4.111  0.00  0.00     0.027 C 
BRANCH  44  45
HETATM   45  C   UNK N   1      30.114  17.350   4.367  0.00  0.00    -0.030 C 
HETATM   46  C   UNK N   1      29.675  16.277   5.028  0.00  0.00    -0.027 C 
BRANCH  46  47
HETATM   47  C   UNK N   1      28.205  16.091   5.260  0.00  0.00     0.053 C 
BRANCH  47  48
HETATM   48  C   UNK N   1      27.482  15.847   3.966  0.00  0.00    -0.027 C 
HETATM   49  C   UNK N   1      27.654  14.712   3.290  0.00  0.00    -0.030 C 
BRANCH  49  50
HETATM   50  C   UNK N   1      26.906  14.498   2.007  0.00  0.00     0.026 C 
BRANCH  50  51
HETATM   51  C   UNK N   1      25.706  15.423   1.891  0.00  0.00    -0.001 C 
HETATM   52  C   UNK N   1      24.442  14.618   1.654  0.00  0.00     0.005 C 
ENDBRANCH  50  51
ENDBRANCH  49  50
ENDBRANCH  47  48
ENDBRANCH  46  47
ENDBRANCH  44  45
ENDBRANCH  43  44
ENDBRANCH  42  43
ENDBRANCH  41  42
ENDBRANCH  40  41
ENDBRANCH  39  40
ENDBRANCH  38  39
ENDBRANCH  36  38
ENDBRANCH  35  36
ENDBRANCH   1  35
TORSDOF 38
ENDMDL
MODEL 5
REMARK VINA RESULT:      -5.4      2.753      7.641
REMARK WARNING: 32 MAX_TORS EXCEEDED!!!
REMARK  38 active torsions:
REMARK  status: ('A' for Active; 'I' for Inactive)
REMARK    1  A    between atoms: C_6  and  C_4 
REMARK    2  A    between atoms: C_7  and  C_5 
REMARK    3  A    between atoms: C_8  and  C_6 
REMARK    4  A    between atoms: C_9  and  C_7 
REMARK    5  A    between atoms: C_11  and  C_9 
REMARK    6  A    between atoms: C_12  and  C_10 
REMARK    7  A    between atoms: C_14  and  C_12 
REMARK    8  A    between atoms: C_15  and  C_13 
REMARK    9  A    between atoms: C_17  and  C_15 
REMARK   10  A    between atoms: C_19  and  C_16 
REMARK   11  A    between atoms: C_18  and  C_17 
REMARK   12  A    between atoms: C_22  and  C_19 
REMARK   13  A    between atoms: C_21  and  C_20 
REMARK   14  A    between atoms: C_23  and  C_21 
REMARK   15  A    between atoms: C_24  and  C_22 
REMARK   16  A    between atoms: C_25  and  C_23 
REMARK   17  A    between atoms: C_26  and  C_24 
REMARK   18  A    between atoms: C_27  and  C_25 
REMARK   19  A    between atoms: C_28  and  C_26 
REMARK   20  A    between atoms: C_29  and  C_27 
REMARK   21  A    between atoms: C_30  and  C_28 
REMARK   22  A    between atoms: C_31  and  C_29 
REMARK   23  A    between atoms: C_32  and  C_30 
REMARK   24  A    between atoms: C_38  and  C_31 
REMARK   25  A    between atoms: C_39  and  C_32 
REMARK   26  A    between atoms: C_34  and  C_33 
REMARK   27  A    between atoms: N_40  and  C_33 
REMARK   28  A    between atoms: O_46  and  C_34 
REMARK   29  A    between atoms: C_37  and  C_35 
REMARK   30  A    between atoms: O_45  and  C_35 
REMARK   31  A    between atoms: C_37  and  C_36 
REMARK   32  A    between atoms: O_47  and  C_36 
REMARK   33  A    between atoms: C_37  and  O_48 
REMARK   34  A    between atoms: O_45  and  C_38 
REMARK   35  A    between atoms: O_48  and  C_39 
REMARK   36  A    between atoms: P_49  and  O_43 
REMARK   37  A    between atoms: P_49  and  O_46 
REMARK   38  A    between atoms: P_49  and  O_47 
ROOT
HETATM    1  C   UNK N   1      20.545  16.411   7.615  0.00  0.00     0.180 C 
ENDROOT
BRANCH   1   2
HETATM    2  C   UNK N   1      19.252  16.116   6.855  0.00  0.00     0.213 C 
BRANCH   2   3
HETATM    3  O   UNK N   1      19.398  16.014   5.488  0.00  0.00    -0.319 OA
BRANCH   3   4
HETATM    4  C   UNK N   1      19.324  14.843   4.808  0.00  0.00     0.258 C 
HETATM    5  O   UNK N   1      18.269  14.232   4.790  0.00  0.00    -0.265 OA
BRANCH   4   6
HETATM    6  C   UNK N   1      20.476  14.325   3.997  0.00  0.00     0.111 C 
BRANCH   6   7
HETATM    7  C   UNK N   1      21.103  15.392   3.118  0.00  0.00     0.010 C 
BRANCH   7   8
HETATM    8  C   UNK N   1      20.054  15.978   2.188  0.00  0.00     0.000 C 
BRANCH   8   9
HETATM    9  C   UNK N   1      20.008  15.223   0.869  0.00  0.00     0.000 C 
BRANCH   9  10
HETATM   10  C   UNK N   1      18.794  14.302   0.776  0.00  0.00     0.004 C 
BRANCH  10  11
HETATM   11  C   UNK N   1      19.129  12.807   0.832  0.00  0.00     0.027 C 
BRANCH  11  12
HETATM   12  C   UNK N   1      20.531  12.501   0.390  0.00  0.00    -0.031 C 
HETATM   13  C   UNK N   1      21.393  11.869   1.204  0.00  0.00    -0.030 C 
BRANCH  13  14
HETATM   14  C   UNK N   1      22.822  11.570   0.831  0.00  0.00     0.030 C 
BRANCH  14  15
HETATM   15  C   UNK N   1      23.474  12.556  -0.141  0.00  0.00     0.030 C 
BRANCH  15  16
HETATM   16  C   UNK N   1      23.936  13.850   0.482  0.00  0.00    -0.030 C 
HETATM   17  C   UNK N   1      24.669  13.916   1.608  0.00  0.00    -0.030 C 
BRANCH  17  18
HETATM   18  C   UNK N   1      25.037  15.237   2.206  0.00  0.00     0.030 C 
BRANCH  18  19
HETATM   19  C   UNK N   1      25.421  15.030   3.665  0.00  0.00     0.030 C 
BRANCH  19  20
HETATM   20  C   UNK N   1      26.796  15.538   3.960  0.00  0.00    -0.031 C 
HETATM   21  C   UNK N   1      27.462  16.280   3.069  0.00  0.00    -0.035 C 
HETATM   22  C   UNK N   1      28.843  16.756   3.367  0.00  0.00     0.036 C 
ENDBRANCH  19  20
ENDBRANCH  18  19
ENDBRANCH  17  18
ENDBRANCH  15  16
ENDBRANCH  14  15
ENDBRANCH  13  14
ENDBRANCH  11  12
ENDBRANCH  10  11
ENDBRANCH   9  10
ENDBRANCH   8   9
ENDBRANCH   7   8
ENDBRANCH   6   7
ENDBRANCH   4   6
ENDBRANCH   3   4
ENDBRANCH   2   3
ENDBRANCH   1   2
BRANCH   1  23
HETATM   23  C   UNK N   1      20.771  15.427   8.753  0.00  0.00     0.215 C 
BRANCH  23  24
HETATM   24  O   UNK N   1      21.839  14.572   8.427  0.00  0.00    -0.294 OA
BRANCH  24  25
HETATM   25  P   UNK N   1      21.710  13.175   9.457  0.00  0.00     0.393 P 
HETATM   26  O   UNK N   1      22.349  11.926   8.791  0.00  0.00    -0.631 OA
BRANCH  25  27
HETATM   27  O   UNK N   1      20.755  12.909   8.030  0.00  0.00    -0.307 OA
HETATM   28  H   UNK N   1      20.061  12.241   7.920  0.00  0.00     0.222 HD
ENDBRANCH  25  27
BRANCH  25  29
HETATM   29  O   UNK N   1      23.389  13.606   9.287  0.00  0.00    -0.295 OA
BRANCH  29  30
HETATM   30  C   UNK N   1      23.648  13.567   7.913  0.00  0.00     0.199 C 
BRANCH  30  31
HETATM   31  C   UNK N   1      25.126  13.789   7.651  0.00  0.00     0.138 C 
BRANCH  31  32
HETATM   32  N   UNK N   1      25.366  15.176   7.294  0.00  0.00    -0.428 N 
HETATM   33  H   UNK N   1      25.508  15.973   6.673  0.00  0.00     0.149 HD
HETATM   34  H   UNK N   1      25.434  15.616   8.212  0.00  0.00     0.149 HD
ENDBRANCH  31  32
ENDBRANCH  30  31
ENDBRANCH  29  30
ENDBRANCH  25  29
ENDBRANCH  24  25
ENDBRANCH  23  24
ENDBRANCH   1  23
BRANCH   1  35
HETATM   35  O   UNK N   1      21.662  16.420   6.796  0.00  0.00    -0.312 OA
BRANCH  35  36
HETATM   36  C   UNK N   1      22.199  17.518   6.206  0.00  0.00     0.259 C 
HETATM   37  O   UNK N   1      21.729  18.615   6.467  0.00  0.00    -0.265 OA
BRANCH  36  38
HETATM   38  C   UNK N   1      23.359  17.430   5.255  0.00  0.00     0.111 C 
BRANCH  38  39
HETATM   39  C   UNK N   1      23.266  18.512   4.183  0.00  0.00     0.010 C 
BRANCH  39  40
HETATM   40  C   UNK N   1      24.621  18.841   3.574  0.00  0.00     0.000 C 
BRANCH  40  41
HETATM   41  C   UNK N   1      24.734  20.318   3.245  0.00  0.00     0.000 C 
BRANCH  41  42
HETATM   42  C   UNK N   1      26.187  20.659   2.961  0.00  0.00     0.000 C 
BRANCH  42  43
HETATM   43  C   UNK N   1      27.090  19.954   3.956  0.00  0.00     0.004 C 
BRANCH  43  44
HETATM   44  C   UNK N   1      27.166  20.715   5.272  0.00  0.00     0.027 C 
BRANCH  44  45
HETATM   45  C   UNK N   1      27.607  19.822   6.389  0.00  0.00    -0.030 C 
HETATM   46  C   UNK N   1      27.574  18.493   6.265  0.00  0.00    -0.027 C 
BRANCH  46  47
HETATM   47  C   UNK N   1      28.014  17.624   7.406  0.00  0.00     0.053 C 
BRANCH  47  48
HETATM   48  C   UNK N   1      29.338  18.079   7.949  0.00  0.00    -0.027 C 
HETATM   49  C   UNK N   1      30.420  17.310   7.847  0.00  0.00    -0.030 C 
BRANCH  49  50
HETATM   50  C   UNK N   1      31.728  17.803   8.390  0.00  0.00     0.026 C 
BRANCH  50  51
HETATM   51  C   UNK N   1      32.861  16.831   8.107  0.00  0.00    -0.001 C 
HETATM   52  C   UNK N   1      32.774  15.635   9.037  0.00  0.00     0.005 C 
ENDBRANCH  50  51
ENDBRANCH  49  50
ENDBRANCH  47  48
ENDBRANCH  46  47
ENDBRANCH  44  45
ENDBRANCH  43  44
ENDBRANCH  42  43
ENDBRANCH  41  42
ENDBRANCH  40  41
ENDBRANCH  39  40
ENDBRANCH  38  39
ENDBRANCH  36  38
ENDBRANCH  35  36
ENDBRANCH   1  35
TORSDOF 38
ENDMDL
MODEL 6
REMARK VINA RESULT:      -5.4      2.213      7.656
REMARK WARNING: 32 MAX_TORS EXCEEDED!!!
REMARK  38 active torsions:
REMARK  status: ('A' for Active; 'I' for Inactive)
REMARK    1  A    between atoms: C_6  and  C_4 
REMARK    2  A    between atoms: C_7  and  C_5 
REMARK    3  A    between atoms: C_8  and  C_6 
REMARK    4  A    between atoms: C_9  and  C_7 
REMARK    5  A    between atoms: C_11  and  C_9 
REMARK    6  A    between atoms: C_12  and  C_10 
REMARK    7  A    between atoms: C_14  and  C_12 
REMARK    8  A    between atoms: C_15  and  C_13 
REMARK    9  A    between atoms: C_17  and  C_15 
REMARK   10  A    between atoms: C_19  and  C_16 
REMARK   11  A    between atoms: C_18  and  C_17 
REMARK   12  A    between atoms: C_22  and  C_19 
REMARK   13  A    between atoms: C_21  and  C_20 
REMARK   14  A    between atoms: C_23  and  C_21 
REMARK   15  A    between atoms: C_24  and  C_22 
REMARK   16  A    between atoms: C_25  and  C_23 
REMARK   17  A    between atoms: C_26  and  C_24 
REMARK   18  A    between atoms: C_27  and  C_25 
REMARK   19  A    between atoms: C_28  and  C_26 
REMARK   20  A    between atoms: C_29  and  C_27 
REMARK   21  A    between atoms: C_30  and  C_28 
REMARK   22  A    between atoms: C_31  and  C_29 
REMARK   23  A    between atoms: C_32  and  C_30 
REMARK   24  A    between atoms: C_38  and  C_31 
REMARK   25  A    between atoms: C_39  and  C_32 
REMARK   26  A    between atoms: C_34  and  C_33 
REMARK   27  A    between atoms: N_40  and  C_33 
REMARK   28  A    between atoms: O_46  and  C_34 
REMARK   29  A    between atoms: C_37  and  C_35 
REMARK   30  A    between atoms: O_45  and  C_35 
REMARK   31  A    between atoms: C_37  and  C_36 
REMARK   32  A    between atoms: O_47  and  C_36 
REMARK   33  A    between atoms: C_37  and  O_48 
REMARK   34  A    between atoms: O_45  and  C_38 
REMARK   35  A    between atoms: O_48  and  C_39 
REMARK   36  A    between atoms: P_49  and  O_43 
REMARK   37  A    between atoms: P_49  and  O_46 
REMARK   38  A    between atoms: P_49  and  O_47 
ROOT
HETATM    1  C   UNK N   1      21.370  16.062   6.182  0.00  0.00     0.180 C 
ENDROOT
BRANCH   1   2
HETATM    2  C   UNK N   1      21.017  16.226   7.660  0.00  0.00     0.213 C 
BRANCH   2   3
HETATM    3  O   UNK N   1      20.025  15.383   8.112  0.00  0.00    -0.319 OA
BRANCH   3   4
HETATM    4  C   UNK N   1      20.127  14.636   9.240  0.00  0.00     0.258 C 
HETATM    5  O   UNK N   1      19.112  14.326   9.841  0.00  0.00    -0.265 OA
BRANCH   4   6
HETATM    6  C   UNK N   1      21.444  14.100   9.718  0.00  0.00     0.111 C 
BRANCH   6   7
HETATM    7  C   UNK N   1      21.301  12.822  10.525  0.00  0.00     0.010 C 
BRANCH   7   8
HETATM    8  C   UNK N   1      22.524  11.943  10.323  0.00  0.00     0.000 C 
BRANCH   8   9
HETATM    9  C   UNK N   1      23.612  12.685   9.562  0.00  0.00     0.000 C 
BRANCH   9  10
HETATM   10  C   UNK N   1      24.283  11.802   8.512  0.00  0.00     0.004 C 
BRANCH  10  11
HETATM   11  C   UNK N   1      23.306  11.003   7.642  0.00  0.00     0.027 C 
BRANCH  11  12
HETATM   12  C   UNK N   1      22.572  11.854   6.646  0.00  0.00    -0.031 C 
HETATM   13  C   UNK N   1      21.230  11.910   6.636  0.00  0.00    -0.030 C 
BRANCH  13  14
HETATM   14  C   UNK N   1      20.438  12.713   5.638  0.00  0.00     0.030 C 
BRANCH  14  15
HETATM   15  C   UNK N   1      20.573  12.275   4.178  0.00  0.00     0.030 C 
BRANCH  15  16
HETATM   16  C   UNK N   1      21.370  13.212   3.305  0.00  0.00    -0.030 C 
HETATM   17  C   UNK N   1      21.184  13.337   1.978  0.00  0.00    -0.030 C 
BRANCH  17  18
HETATM   18  C   UNK N   1      22.056  14.239   1.164  0.00  0.00     0.030 C 
BRANCH  18  19
HETATM   19  C   UNK N   1      23.101  13.399   0.442  0.00  0.00     0.030 C 
BRANCH  19  20
HETATM   20  C   UNK N   1      24.441  13.488   1.097  0.00  0.00    -0.031 C 
HETATM   21  C   UNK N   1      24.887  14.644   1.600  0.00  0.00    -0.035 C 
HETATM   22  C   UNK N   1      26.238  14.721   2.228  0.00  0.00     0.036 C 
ENDBRANCH  19  20
ENDBRANCH  18  19
ENDBRANCH  17  18
ENDBRANCH  15  16
ENDBRANCH  14  15
ENDBRANCH  13  14
ENDBRANCH  11  12
ENDBRANCH  10  11
ENDBRANCH   9  10
ENDBRANCH   8   9
ENDBRANCH   7   8
ENDBRANCH   6   7
ENDBRANCH   4   6
ENDBRANCH   3   4
ENDBRANCH   2   3
ENDBRANCH   1   2
BRANCH   1  23
HETATM   23  C   UNK N   1      20.243  16.531   5.275  0.00  0.00     0.215 C 
BRANCH  23  24
HETATM   24  O   UNK N   1      20.676  17.642   4.528  0.00  0.00    -0.294 OA
BRANCH  24  25
HETATM   25  P   UNK N   1      20.406  17.267   2.850  0.00  0.00     0.393 P 
HETATM   26  O   UNK N   1      19.428  18.283   2.199  0.00  0.00    -0.631 OA
BRANCH  25  27
HETATM   27  O   UNK N   1      18.916  17.052   3.719  0.00  0.00    -0.307 OA
HETATM   28  H   UNK N   1      18.463  17.720   4.255  0.00  0.00     0.222 HD
ENDBRANCH  25  27
BRANCH  25  29
HETATM   29  O   UNK N   1      21.245  18.789   2.968  0.00  0.00    -0.295 OA
BRANCH  29  30
HETATM   30  C   UNK N   1      20.275  19.770   2.740  0.00  0.00     0.199 C 
BRANCH  30  31
HETATM   31  C   UNK N   1      20.872  20.927   1.961  0.00  0.00     0.138 C 
BRANCH  31  32
HETATM   32  N   UNK N   1      20.449  20.867   0.573  0.00  0.00    -0.428 N 
HETATM   33  H   UNK N   1      19.972  21.173  -0.275  0.00  0.00     0.149 HD
HETATM   34  H   UNK N   1      20.894  20.005   0.260  0.00  0.00     0.149 HD
ENDBRANCH  31  32
ENDBRANCH  30  31
ENDBRANCH  29  30
ENDBRANCH  25  29
ENDBRANCH  24  25
ENDBRANCH  23  24
ENDBRANCH   1  23
BRANCH   1  35
HETATM   35  O   UNK N   1      22.538  16.718   5.831  0.00  0.00    -0.312 OA
BRANCH  35  36
HETATM   36  C   UNK N   1      23.537  16.201   5.073  0.00  0.00     0.259 C 
HETATM   37  O   UNK N   1      23.932  16.837   4.107  0.00  0.00    -0.265 OA
BRANCH  36  38
HETATM   38  C   UNK N   1      24.180  14.880   5.388  0.00  0.00     0.111 C 
BRANCH  38  39
HETATM   39  C   UNK N   1      25.146  15.012   6.561  0.00  0.00     0.010 C 
BRANCH  39  40
HETATM   40  C   UNK N   1      26.598  15.084   6.112  0.00  0.00     0.000 C 
BRANCH  40  41
HETATM   41  C   UNK N   1      27.188  16.458   6.368  0.00  0.00     0.000 C 
BRANCH  41  42
HETATM   42  C   UNK N   1      28.588  16.521   5.782  0.00  0.00     0.000 C 
BRANCH  42  43
HETATM   43  C   UNK N   1      28.584  17.362   4.518  0.00  0.00     0.004 C 
BRANCH  43  44
HETATM   44  C   UNK N   1      29.159  16.592   3.337  0.00  0.00     0.027 C 
BRANCH  44  45
HETATM   45  C   UNK N   1      30.596  16.241   3.567  0.00  0.00    -0.030 C 
HETATM   46  C   UNK N   1      31.571  16.848   2.887  0.00  0.00    -0.027 C 
BRANCH  46  47
HETATM   47  C   UNK N   1      33.002  16.468   3.131  0.00  0.00     0.053 C 
BRANCH  47  48
HETATM   48  C   UNK N   1      33.306  16.435   4.602  0.00  0.00    -0.027 C 
HETATM   49  C   UNK N   1      33.364  17.559   5.313  0.00  0.00    -0.030 C 
BRANCH  49  50
HETATM   50  C   UNK N   1      33.658  17.487   6.782  0.00  0.00     0.026 C 
BRANCH  50  51
HETATM   51  C   UNK N   1      32.392  17.572   7.617  0.00  0.00    -0.001 C 
HETATM   52  C   UNK N   1      32.320  16.405   8.585  0.00  0.00     0.005 C 
ENDBRANCH  50  51
ENDBRANCH  49  50
ENDBRANCH  47  48
ENDBRANCH  46  47
ENDBRANCH  44  45
ENDBRANCH  43  44
ENDBRANCH  42  43
ENDBRANCH  41  42
ENDBRANCH  40  41
ENDBRANCH  39  40
ENDBRANCH  38  39
ENDBRANCH  36  38
ENDBRANCH  35  36
ENDBRANCH   1  35
TORSDOF 38
ENDMDL
MODEL 7
REMARK VINA RESULT:      -5.4      7.569     11.909
REMARK WARNING: 32 MAX_TORS EXCEEDED!!!
REMARK  38 active torsions:
REMARK  status: ('A' for Active; 'I' for Inactive)
REMARK    1  A    between atoms: C_6  and  C_4 
REMARK    2  A    between atoms: C_7  and  C_5 
REMARK    3  A    between atoms: C_8  and  C_6 
REMARK    4  A    between atoms: C_9  and  C_7 
REMARK    5  A    between atoms: C_11  and  C_9 
REMARK    6  A    between atoms: C_12  and  C_10 
REMARK    7  A    between atoms: C_14  and  C_12 
REMARK    8  A    between atoms: C_15  and  C_13 
REMARK    9  A    between atoms: C_17  and  C_15 
REMARK   10  A    between atoms: C_19  and  C_16 
REMARK   11  A    between atoms: C_18  and  C_17 
REMARK   12  A    between atoms: C_22  and  C_19 
REMARK   13  A    between atoms: C_21  and  C_20 
REMARK   14  A    between atoms: C_23  and  C_21 
REMARK   15  A    between atoms: C_24  and  C_22 
REMARK   16  A    between atoms: C_25  and  C_23 
REMARK   17  A    between atoms: C_26  and  C_24 
REMARK   18  A    between atoms: C_27  and  C_25 
REMARK   19  A    between atoms: C_28  and  C_26 
REMARK   20  A    between atoms: C_29  and  C_27 
REMARK   21  A    between atoms: C_30  and  C_28 
REMARK   22  A    between atoms: C_31  and  C_29 
REMARK   23  A    between atoms: C_32  and  C_30 
REMARK   24  A    between atoms: C_38  and  C_31 
REMARK   25  A    between atoms: C_39  and  C_32 
REMARK   26  A    between atoms: C_34  and  C_33 
REMARK   27  A    between atoms: N_40  and  C_33 
REMARK   28  A    between atoms: O_46  and  C_34 
REMARK   29  A    between atoms: C_37  and  C_35 
REMARK   30  A    between atoms: O_45  and  C_35 
REMARK   31  A    between atoms: C_37  and  C_36 
REMARK   32  A    between atoms: O_47  and  C_36 
REMARK   33  A    between atoms: C_37  and  O_48 
REMARK   34  A    between atoms: O_45  and  C_38 
REMARK   35  A    between atoms: O_48  and  C_39 
REMARK   36  A    between atoms: P_49  and  O_43 
REMARK   37  A    between atoms: P_49  and  O_46 
REMARK   38  A    between atoms: P_49  and  O_47 
ROOT
HETATM    1  C   UNK N   1      34.505  15.275   9.682  0.00  0.00     0.180 C 
ENDROOT
BRANCH   1   2
HETATM    2  C   UNK N   1      34.646  16.778   9.924  0.00  0.00     0.213 C 
BRANCH   2   3
HETATM    3  O   UNK N   1      34.990  17.511   8.809  0.00  0.00    -0.319 OA
BRANCH   3   4
HETATM    4  C   UNK N   1      34.103  17.903   7.862  0.00  0.00     0.258 C 
HETATM    5  O   UNK N   1      34.448  17.915   6.693  0.00  0.00    -0.265 OA
BRANCH   4   6
HETATM    6  C   UNK N   1      32.677  18.230   8.200  0.00  0.00     0.111 C 
BRANCH   6   7
HETATM    7  C   UNK N   1      31.685  17.597   7.240  0.00  0.00     0.010 C 
BRANCH   7   8
HETATM    8  C   UNK N   1      30.587  16.894   8.020  0.00  0.00     0.000 C 
BRANCH   8   9
HETATM    9  C   UNK N   1      29.214  17.416   7.625  0.00  0.00     0.000 C 
BRANCH   9  10
HETATM   10  C   UNK N   1      28.873  18.727   8.330  0.00  0.00     0.004 C 
BRANCH  10  11
HETATM   11  C   UNK N   1      27.848  19.593   7.590  0.00  0.00     0.027 C 
BRANCH  11  12
HETATM   12  C   UNK N   1      27.814  19.333   6.112  0.00  0.00    -0.031 C 
HETATM   13  C   UNK N   1      27.366  20.265   5.253  0.00  0.00    -0.030 C 
BRANCH  13  14
HETATM   14  C   UNK N   1      27.271  20.048   3.766  0.00  0.00     0.030 C 
BRANCH  14  15
HETATM   15  C   UNK N   1      25.930  20.417   3.126  0.00  0.00     0.030 C 
BRANCH  15  16
HETATM   16  C   UNK N   1      24.718  19.841   3.816  0.00  0.00    -0.030 C 
HETATM   17  C   UNK N   1      23.504  19.755   3.244  0.00  0.00    -0.030 C 
BRANCH  17  18
HETATM   18  C   UNK N   1      22.331  19.232   4.011  0.00  0.00     0.030 C 
BRANCH  18  19
HETATM   19  C   UNK N   1      21.050  19.767   3.384  0.00  0.00     0.030 C 
BRANCH  19  20
HETATM   20  C   UNK N   1      20.705  19.052   2.118  0.00  0.00    -0.031 C 
HETATM   21  C   UNK N   1      20.316  17.772   2.133  0.00  0.00    -0.035 C 
HETATM   22  C   UNK N   1      20.000  17.066   0.859  0.00  0.00     0.036 C 
ENDBRANCH  19  20
ENDBRANCH  18  19
ENDBRANCH  17  18
ENDBRANCH  15  16
ENDBRANCH  14  15
ENDBRANCH  13  14
ENDBRANCH  11  12
ENDBRANCH  10  11
ENDBRANCH   9  10
ENDBRANCH   8   9
ENDBRANCH   7   8
ENDBRANCH   6   7
ENDBRANCH   4   6
ENDBRANCH   3   4
ENDBRANCH   2   3
ENDBRANCH   1   2
BRANCH   1  23
HETATM   23  C   UNK N   1      34.800  14.469  10.938  0.00  0.00     0.215 C 
BRANCH  23  24
HETATM   24  O   UNK N   1      35.657  13.400  10.616  0.00  0.00    -0.294 OA
BRANCH  24  25
HETATM   25  P   UNK N   1      35.233  12.072  11.658  0.00  0.00     0.393 P 
HETATM   26  O   UNK N   1      36.094  10.818  11.347  0.00  0.00    -0.631 OA
BRANCH  25  27
HETATM   27  O   UNK N   1      34.817  11.656  10.023  0.00  0.00    -0.307 OA
HETATM   28  H   UNK N   1      34.052  11.129   9.742  0.00  0.00     0.222 HD
ENDBRANCH  25  27
BRANCH  25  29
HETATM   29  O   UNK N   1      36.859  12.584  12.016  0.00  0.00    -0.295 OA
BRANCH  29  30
HETATM   30  C   UNK N   1      37.020  12.384  13.390  0.00  0.00     0.199 C 
BRANCH  30  31
HETATM   31  C   UNK N   1      36.260  13.442  14.168  0.00  0.00     0.138 C 
BRANCH  31  32
HETATM   32  N   UNK N   1      37.151  14.118  15.095  0.00  0.00    -0.428 N 
HETATM   33  H   UNK N   1      38.044  14.406  15.495  0.00  0.00     0.149 HD
HETATM   34  H   UNK N   1      36.488  14.579  15.717  0.00  0.00     0.149 HD
ENDBRANCH  31  32
ENDBRANCH  30  31
ENDBRANCH  29  30
ENDBRANCH  25  29
ENDBRANCH  24  25
ENDBRANCH  23  24
ENDBRANCH   1  23
BRANCH   1  35
HETATM   35  O   UNK N   1      33.256  14.922   9.200  0.00  0.00    -0.312 OA
BRANCH  35  36
HETATM   36  C   UNK N   1      33.018  14.060   8.179  0.00  0.00     0.259 C 
HETATM   37  O   UNK N   1      32.658  12.922   8.443  0.00  0.00    -0.265 OA
BRANCH  36  38
HETATM   38  C   UNK N   1      33.171  14.461   6.739  0.00  0.00     0.111 C 
BRANCH  38  39
HETATM   39  C   UNK N   1      32.207  13.679   5.852  0.00  0.00     0.010 C 
BRANCH  39  40
HETATM   40  C   UNK N   1      31.145  14.570   5.223  0.00  0.00     0.000 C 
BRANCH  40  41
HETATM   41  C   UNK N   1      31.543  14.998   3.823  0.00  0.00     0.000 C 
BRANCH  41  42
HETATM   42  C   UNK N   1      30.843  16.302   3.479  0.00  0.00     0.000 C 
BRANCH  42  43
HETATM   43  C   UNK N   1      29.570  16.438   4.293  0.00  0.00     0.004 C 
BRANCH  43  44
HETATM   44  C   UNK N   1      28.333  16.266   3.423  0.00  0.00     0.027 C 
BRANCH  44  45
HETATM   45  C   UNK N   1      27.079  16.445   4.220  0.00  0.00    -0.030 C 
HETATM   46  C   UNK N   1      25.882  16.187   3.690  0.00  0.00    -0.027 C 
BRANCH  46  47
HETATM   47  C   UNK N   1      24.642  16.386   4.511  0.00  0.00     0.053 C 
BRANCH  47  48
HETATM   48  C   UNK N   1      23.428  15.885   3.782  0.00  0.00    -0.027 C 
HETATM   49  C   UNK N   1      23.473  14.760   3.072  0.00  0.00    -0.030 C 
BRANCH  49  50
HETATM   50  C   UNK N   1      22.237  14.284   2.368  0.00  0.00     0.026 C 
BRANCH  50  51
HETATM   51  C   UNK N   1      22.406  14.294   0.858  0.00  0.00    -0.001 C 
HETATM   52  C   UNK N   1      23.790  13.800   0.480  0.00  0.00     0.005 C 
ENDBRANCH  50  51
ENDBRANCH  49  50
ENDBRANCH  47  48
ENDBRANCH  46  47
ENDBRANCH  44  45
ENDBRANCH  43  44
ENDBRANCH  42  43
ENDBRANCH  41  42
ENDBRANCH  40  41
ENDBRANCH  39  40
ENDBRANCH  38  39
ENDBRANCH  36  38
ENDBRANCH  35  36
ENDBRANCH   1  35
TORSDOF 38
ENDMDL
MODEL 8
REMARK VINA RESULT:      -5.3      4.064      6.857
REMARK WARNING: 32 MAX_TORS EXCEEDED!!!
REMARK  38 active torsions:
REMARK  status: ('A' for Active; 'I' for Inactive)
REMARK    1  A    between atoms: C_6  and  C_4 
REMARK    2  A    between atoms: C_7  and  C_5 
REMARK    3  A    between atoms: C_8  and  C_6 
REMARK    4  A    between atoms: C_9  and  C_7 
REMARK    5  A    between atoms: C_11  and  C_9 
REMARK    6  A    between atoms: C_12  and  C_10 
REMARK    7  A    between atoms: C_14  and  C_12 
REMARK    8  A    between atoms: C_15  and  C_13 
REMARK    9  A    between atoms: C_17  and  C_15 
REMARK   10  A    between atoms: C_19  and  C_16 
REMARK   11  A    between atoms: C_18  and  C_17 
REMARK   12  A    between atoms: C_22  and  C_19 
REMARK   13  A    between atoms: C_21  and  C_20 
REMARK   14  A    between atoms: C_23  and  C_21 
REMARK   15  A    between atoms: C_24  and  C_22 
REMARK   16  A    between atoms: C_25  and  C_23 
REMARK   17  A    between atoms: C_26  and  C_24 
REMARK   18  A    between atoms: C_27  and  C_25 
REMARK   19  A    between atoms: C_28  and  C_26 
REMARK   20  A    between atoms: C_29  and  C_27 
REMARK   21  A    between atoms: C_30  and  C_28 
REMARK   22  A    between atoms: C_31  and  C_29 
REMARK   23  A    between atoms: C_32  and  C_30 
REMARK   24  A    between atoms: C_38  and  C_31 
REMARK   25  A    between atoms: C_39  and  C_32 
REMARK   26  A    between atoms: C_34  and  C_33 
REMARK   27  A    between atoms: N_40  and  C_33 
REMARK   28  A    between atoms: O_46  and  C_34 
REMARK   29  A    between atoms: C_37  and  C_35 
REMARK   30  A    between atoms: O_45  and  C_35 
REMARK   31  A    between atoms: C_37  and  C_36 
REMARK   32  A    between atoms: O_47  and  C_36 
REMARK   33  A    between atoms: C_37  and  O_48 
REMARK   34  A    between atoms: O_45  and  C_38 
REMARK   35  A    between atoms: O_48  and  C_39 
REMARK   36  A    between atoms: P_49  and  O_43 
REMARK   37  A    between atoms: P_49  and  O_46 
REMARK   38  A    between atoms: P_49  and  O_47 
ROOT
HETATM    1  C   UNK N   1      24.552  19.854   3.558  0.00  0.00     0.180 C 
ENDROOT
BRANCH   1   2
HETATM    2  C   UNK N   1      25.839  20.486   3.027  0.00  0.00     0.213 C 
BRANCH   2   3
HETATM    3  O   UNK N   1      27.000  19.901   3.484  0.00  0.00    -0.319 OA
BRANCH   3   4
HETATM    4  C   UNK N   1      27.502  20.096   4.729  0.00  0.00     0.258 C 
HETATM    5  O   UNK N   1      27.284  21.152   5.298  0.00  0.00    -0.265 OA
BRANCH   4   6
HETATM    6  C   UNK N   1      28.236  19.013   5.464  0.00  0.00     0.111 C 
BRANCH   6   7
HETATM    7  C   UNK N   1      27.504  18.549   6.711  0.00  0.00     0.010 C 
BRANCH   7   8
HETATM    8  C   UNK N   1      28.432  17.710   7.573  0.00  0.00     0.000 C 
BRANCH   8   9
HETATM    9  C   UNK N   1      28.698  18.386   8.910  0.00  0.00     0.000 C 
BRANCH   9  10
HETATM   10  C   UNK N   1      30.191  18.564   9.177  0.00  0.00     0.004 C 
BRANCH  10  11
HETATM   11  C   UNK N   1      31.100  17.998   8.080  0.00  0.00     0.027 C 
BRANCH  11  12
HETATM   12  C   UNK N   1      32.227  17.166   8.619  0.00  0.00    -0.031 C 
HETATM   13  C   UNK N   1      32.113  15.832   8.732  0.00  0.00    -0.030 C 
BRANCH  13  14
HETATM   14  C   UNK N   1      33.193  14.950   9.301  0.00  0.00     0.030 C 
BRANCH  14  15
HETATM   15  C   UNK N   1      34.488  15.662   9.700  0.00  0.00     0.030 C 
BRANCH  15  16
HETATM   16  C   UNK N   1      35.735  14.818   9.594  0.00  0.00    -0.030 C 
HETATM   17  C   UNK N   1      36.202  14.047  10.592  0.00  0.00    -0.030 C 
BRANCH  17  18
HETATM   18  C   UNK N   1      37.481  13.287  10.440  0.00  0.00     0.030 C 
BRANCH  18  19
HETATM   19  C   UNK N   1      38.468  14.132   9.645  0.00  0.00     0.030 C 
BRANCH  19  20
HETATM   20  C   UNK N   1      39.014  13.395   8.465  0.00  0.00    -0.031 C 
HETATM   21  C   UNK N   1      38.632  13.706   7.221  0.00  0.00    -0.035 C 
HETATM   22  C   UNK N   1      39.167  12.943   6.057  0.00  0.00     0.036 C 
ENDBRANCH  19  20
ENDBRANCH  18  19
ENDBRANCH  17  18
ENDBRANCH  15  16
ENDBRANCH  14  15
ENDBRANCH  13  14
ENDBRANCH  11  12
ENDBRANCH  10  11
ENDBRANCH   9  10
ENDBRANCH   8   9
ENDBRANCH   7   8
ENDBRANCH   6   7
ENDBRANCH   4   6
ENDBRANCH   3   4
ENDBRANCH   2   3
ENDBRANCH   1   2
BRANCH   1  23
HETATM   23  C   UNK N   1      23.313  20.496   2.952  0.00  0.00     0.215 C 
BRANCH  23  24
HETATM   24  O   UNK N   1      22.165  19.974   3.575  0.00  0.00    -0.294 OA
BRANCH  24  25
HETATM   25  P   UNK N   1      20.788  20.567   2.690  0.00  0.00     0.393 P 
HETATM   26  O   UNK N   1      21.133  20.777   1.191  0.00  0.00    -0.631 OA
BRANCH  25  27
HETATM   27  O   UNK N   1      22.021  21.792   2.696  0.00  0.00    -0.307 OA
HETATM   28  H   UNK N   1      22.975  21.647   2.601  0.00  0.00     0.222 HD
ENDBRANCH  25  27
BRANCH  25  29
HETATM   29  O   UNK N   1      21.184  18.968   2.126  0.00  0.00    -0.295 OA
BRANCH  29  30
HETATM   30  C   UNK N   1      20.076  18.175   2.442  0.00  0.00     0.199 C 
BRANCH  30  31
HETATM   31  C   UNK N   1      20.529  16.822   2.958  0.00  0.00     0.138 C 
BRANCH  31  32
HETATM   32  N   UNK N   1      19.506  15.822   2.703  0.00  0.00    -0.428 N 
HETATM   33  H   UNK N   1      18.830  15.094   2.931  0.00  0.00     0.149 HD
HETATM   34  H   UNK N   1      19.404  15.888   1.690  0.00  0.00     0.149 HD
ENDBRANCH  31  32
ENDBRANCH  30  31
ENDBRANCH  29  30
ENDBRANCH  25  29
ENDBRANCH  24  25
ENDBRANCH  23  24
ENDBRANCH   1  23
BRANCH   1  35
HETATM   35  O   UNK N   1      24.499  18.486   3.353  0.00  0.00    -0.312 OA
BRANCH  35  36
HETATM   36  C   UNK N   1      24.635  17.538   4.314  0.00  0.00     0.259 C 
HETATM   37  O   UNK N   1      23.919  17.595   5.303  0.00  0.00    -0.265 OA
BRANCH  36  38
HETATM   38  C   UNK N   1      25.626  16.414   4.198  0.00  0.00     0.111 C 
BRANCH  38  39
HETATM   39  C   UNK N   1      26.230  16.365   2.798  0.00  0.00     0.010 C 
BRANCH  39  40
HETATM   40  C   UNK N   1      26.777  14.988   2.450  0.00  0.00     0.000 C 
BRANCH  40  41
HETATM   41  C   UNK N   1      28.290  14.953   2.554  0.00  0.00     0.000 C 
BRANCH  41  42
HETATM   42  C   UNK N   1      28.710  13.730   3.353  0.00  0.00     0.000 C 
BRANCH  42  43
HETATM   43  C   UNK N   1      29.222  14.153   4.717  0.00  0.00     0.004 C 
BRANCH  43  44
HETATM   44  C   UNK N   1      29.359  15.666   4.814  0.00  0.00     0.027 C 
BRANCH  44  45
HETATM   45  C   UNK N   1      30.775  16.066   5.091  0.00  0.00    -0.030 C 
HETATM   46  C   UNK N   1      31.346  17.079   4.436  0.00  0.00    -0.027 C 
BRANCH  46  47
HETATM   47  C   UNK N   1      32.770  17.450   4.728  0.00  0.00     0.053 C 
BRANCH  47  48
HETATM   48  C   UNK N   1      33.633  16.225   4.841  0.00  0.00    -0.027 C 
HETATM   49  C   UNK N   1      34.452  16.059   5.877  0.00  0.00    -0.030 C 
BRANCH  49  50
HETATM   50  C   UNK N   1      35.289  14.818   5.962  0.00  0.00     0.026 C 
BRANCH  50  51
HETATM   51  C   UNK N   1      34.445  13.584   6.235  0.00  0.00    -0.001 C 
HETATM   52  C   UNK N   1      35.336  12.388   6.516  0.00  0.00     0.005 C 
ENDBRANCH  50  51
ENDBRANCH  49  50
ENDBRANCH  47  48
ENDBRANCH  46  47
ENDBRANCH  44  45
ENDBRANCH  43  44
ENDBRANCH  42  43
ENDBRANCH  41  42
ENDBRANCH  40  41
ENDBRANCH  39  40
ENDBRANCH  38  39
ENDBRANCH  36  38
ENDBRANCH  35  36
ENDBRANCH   1  35
TORSDOF 38
ENDMDL
MODEL 9
REMARK VINA RESULT:      -5.3      2.118      6.144
REMARK WARNING: 32 MAX_TORS EXCEEDED!!!
REMARK  38 active torsions:
REMARK  status: ('A' for Active; 'I' for Inactive)
REMARK    1  A    between atoms: C_6  and  C_4 
REMARK    2  A    between atoms: C_7  and  C_5 
REMARK    3  A    between atoms: C_8  and  C_6 
REMARK    4  A    between atoms: C_9  and  C_7 
REMARK    5  A    between atoms: C_11  and  C_9 
REMARK    6  A    between atoms: C_12  and  C_10 
REMARK    7  A    between atoms: C_14  and  C_12 
REMARK    8  A    between atoms: C_15  and  C_13 
REMARK    9  A    between atoms: C_17  and  C_15 
REMARK   10  A    between atoms: C_19  and  C_16 
REMARK   11  A    between atoms: C_18  and  C_17 
REMARK   12  A    between atoms: C_22  and  C_19 
REMARK   13  A    between atoms: C_21  and  C_20 
REMARK   14  A    between atoms: C_23  and  C_21 
REMARK   15  A    between atoms: C_24  and  C_22 
REMARK   16  A    between atoms: C_25  and  C_23 
REMARK   17  A    between atoms: C_26  and  C_24 
REMARK   18  A    between atoms: C_27  and  C_25 
REMARK   19  A    between atoms: C_28  and  C_26 
REMARK   20  A    between atoms: C_29  and  C_27 
REMARK   21  A    between atoms: C_30  and  C_28 
REMARK   22  A    between atoms: C_31  and  C_29 
REMARK   23  A    between atoms: C_32  and  C_30 
REMARK   24  A    between atoms: C_38  and  C_31 
REMARK   25  A    between atoms: C_39  and  C_32 
REMARK   26  A    between atoms: C_34  and  C_33 
REMARK   27  A    between atoms: N_40  and  C_33 
REMARK   28  A    between atoms: O_46  and  C_34 
REMARK   29  A    between atoms: C_37  and  C_35 
REMARK   30  A    between atoms: O_45  and  C_35 
REMARK   31  A    between atoms: C_37  and  C_36 
REMARK   32  A    between atoms: O_47  and  C_36 
REMARK   33  A    between atoms: C_37  and  O_48 
REMARK   34  A    between atoms: O_45  and  C_38 
REMARK   35  A    between atoms: O_48  and  C_39 
REMARK   36  A    between atoms: P_49  and  O_43 
REMARK   37  A    between atoms: P_49  and  O_46 
REMARK   38  A    between atoms: P_49  and  O_47 
ROOT
HETATM    1  C   UNK N   1      20.347  14.747   6.677  0.00  0.00     0.180 C 
ENDROOT
BRANCH   1   2
HETATM    2  C   UNK N   1      21.229  15.331   7.781  0.00  0.00     0.213 C 
BRANCH   2   3
HETATM    3  O   UNK N   1      22.039  14.415   8.415  0.00  0.00    -0.319 OA
BRANCH   3   4
HETATM    4  C   UNK N   1      21.728  13.824   9.596  0.00  0.00     0.258 C 
HETATM    5  O   UNK N   1      20.596  13.934  10.035  0.00  0.00    -0.265 OA
BRANCH   4   6
HETATM    6  C   UNK N   1      22.709  12.958  10.330  0.00  0.00     0.111 C 
BRANCH   6   7
HETATM    7  C   UNK N   1      23.846  12.476   9.445  0.00  0.00     0.010 C 
BRANCH   7   8
HETATM    8  C   UNK N   1      23.471  11.155   8.796  0.00  0.00     0.000 C 
BRANCH   8   9
HETATM    9  C   UNK N   1      23.119  11.346   7.329  0.00  0.00     0.000 C 
BRANCH   9  10
HETATM   10  C   UNK N   1      24.063  10.580   6.406  0.00  0.00     0.004 C 
BRANCH  10  11
HETATM   11  C   UNK N   1      25.016  11.469   5.598  0.00  0.00     0.027 C 
BRANCH  11  12
HETATM   12  C   UNK N   1      24.754  12.936   5.786  0.00  0.00    -0.031 C 
HETATM   13  C   UNK N   1      25.573  13.697   6.530  0.00  0.00    -0.030 C 
BRANCH  13  14
HETATM   14  C   UNK N   1      25.342  15.163   6.787  0.00  0.00     0.030 C 
BRANCH  14  15
HETATM   15  C   UNK N   1      24.502  15.895   5.737  0.00  0.00     0.030 C 
BRANCH  15  16
HETATM   16  C   UNK N   1      25.105  17.180   5.226  0.00  0.00    -0.030 C 
HETATM   17  C   UNK N   1      25.252  17.468   3.920  0.00  0.00    -0.030 C 
BRANCH  17  18
HETATM   18  C   UNK N   1      25.919  18.734   3.485  0.00  0.00     0.030 C 
BRANCH  18  19
HETATM   19  C   UNK N   1      27.380  18.698   3.913  0.00  0.00     0.030 C 
BRANCH  19  20
HETATM   20  C   UNK N   1      27.732  19.846   4.803  0.00  0.00    -0.031 C 
HETATM   21  C   UNK N   1      26.788  20.504   5.484  0.00  0.00    -0.035 C 
HETATM   22  C   UNK N   1      27.152  21.664   6.348  0.00  0.00     0.036 C 
ENDBRANCH  19  20
ENDBRANCH  18  19
ENDBRANCH  17  18
ENDBRANCH  15  16
ENDBRANCH  14  15
ENDBRANCH  13  14
ENDBRANCH  11  12
ENDBRANCH  10  11
ENDBRANCH   9  10
ENDBRANCH   8   9
ENDBRANCH   7   8
ENDBRANCH   6   7
ENDBRANCH   4   6
ENDBRANCH   3   4
ENDBRANCH   2   3
ENDBRANCH   1   2
BRANCH   1  23
HETATM   23  C   UNK N   1      19.631  15.834   5.890  0.00  0.00     0.215 C 
BRANCH  23  24
HETATM   24  O   UNK N   1      20.568  16.788   5.452  0.00  0.00    -0.294 OA
BRANCH  24  25
HETATM   25  P   UNK N   1      20.402  16.913   3.724  0.00  0.00     0.393 P 
HETATM   26  O   UNK N   1      19.196  17.812   3.340  0.00  0.00    -0.631 OA
BRANCH  25  27
HETATM   27  O   UNK N   1      19.018  16.076   4.361  0.00  0.00    -0.307 OA
HETATM   28  H   UNK N   1      18.220  15.830   3.869  0.00  0.00     0.222 HD
ENDBRANCH  25  27
BRANCH  25  29
HETATM   29  O   UNK N   1      20.823  18.473   4.371  0.00  0.00    -0.295 OA
BRANCH  29  30
HETATM   30  C   UNK N   1      22.009  18.839   3.727  0.00  0.00     0.199 C 
BRANCH  30  31
HETATM   31  C   UNK N   1      21.786  20.079   2.881  0.00  0.00     0.138 C 
BRANCH  31  32
HETATM   32  N   UNK N   1      20.477  20.645   3.159  0.00  0.00    -0.428 N 
HETATM   33  H   UNK N   1      19.766  21.373   3.229  0.00  0.00     0.149 HD
HETATM   34  H   UNK N   1      19.961  19.823   3.472  0.00  0.00     0.149 HD
ENDBRANCH  31  32
ENDBRANCH  30  31
ENDBRANCH  29  30
ENDBRANCH  25  29
ENDBRANCH  24  25
ENDBRANCH  23  24
ENDBRANCH   1  23
BRANCH   1  35
HETATM   35  O   UNK N   1      21.047  13.938   5.799  0.00  0.00    -0.312 OA
BRANCH  35  36
HETATM   36  C   UNK N   1      20.571  12.808   5.216  0.00  0.00     0.259 C 
HETATM   37  O   UNK N   1      19.529  12.325   5.634  0.00  0.00    -0.265 OA
BRANCH  36  38
HETATM   38  C   UNK N   1      21.275  12.141   4.069  0.00  0.00     0.111 C 
BRANCH  38  39
HETATM   39  C   UNK N   1      22.355  13.049   3.490  0.00  0.00     0.010 C 
BRANCH  39  40
HETATM   40  C   UNK N   1      23.102  12.399   2.336  0.00  0.00     0.000 C 
BRANCH  40  41
HETATM   41  C   UNK N   1      23.645  13.439   1.374  0.00  0.00     0.000 C 
BRANCH  41  42
HETATM   42  C   UNK N   1      24.423  14.486   2.153  0.00  0.00     0.000 C 
BRANCH  42  43
HETATM   43  C   UNK N   1      25.843  14.006   2.390  0.00  0.00     0.004 C 
BRANCH  43  44
HETATM   44  C   UNK N   1      26.862  14.989   1.830  0.00  0.00     0.027 C 
BRANCH  44  45
HETATM   45  C   UNK N   1      27.963  15.247   2.811  0.00  0.00    -0.030 C 
HETATM   46  C   UNK N   1      27.878  14.818   4.072  0.00  0.00    -0.027 C 
BRANCH  46  47
HETATM   47  C   UNK N   1      28.993  15.100   5.035  0.00  0.00     0.053 C 
BRANCH  47  48
HETATM   48  C   UNK N   1      28.606  16.181   6.004  0.00  0.00    -0.027 C 
HETATM   49  C   UNK N   1      29.523  16.788   6.753  0.00  0.00    -0.030 C 
BRANCH  49  50
HETATM   50  C   UNK N   1      29.101  17.872   7.700  0.00  0.00     0.026 C 
BRANCH  50  51
HETATM   51  C   UNK N   1      30.240  18.308   8.605  0.00  0.00    -0.001 C 
HETATM   52  C   UNK N   1      31.372  17.299   8.551  0.00  0.00     0.005 C 
ENDBRANCH  50  51
ENDBRANCH  49  50
ENDBRANCH  47  48
ENDBRANCH  46  47
ENDBRANCH  44  45
ENDBRANCH  43  44
ENDBRANCH  42  43
ENDBRANCH  41  42
ENDBRANCH  40  41
ENDBRANCH  39  40
ENDBRANCH  38  39
ENDBRANCH  36  38
ENDBRANCH  35  36
ENDBRANCH   1  35
TORSDOF 38
ENDMDL
