MODEL 1
REMARK VINA RESULT:      -6.4      0.000      0.000
REMARK  15 active torsions:
REMARK  status: ('A' for Active; 'I' for Inactive)
REMARK    1  A    between atoms: C_3  and  C_2 
REMARK    2  A    between atoms: C_4  and  C_2 
REMARK    3  A    between atoms: C_6  and  C_3 
REMARK    4  A    between atoms: C_8  and  C_4 
REMARK    5  A    between atoms: C_7  and  C_5 
REMARK    6  A    between atoms: S_26  and  C_5 
REMARK    7  A    between atoms: C_12  and  C_6 
REMARK    8  A    between atoms: C_6  and  N_14 
REMARK    9  A    between atoms: C_13  and  C_7 
REMARK   10  A    between atoms: C_7  and  N_17 
REMARK   11  A    between atoms: C_8  and  O_18 
REMARK   12  A    between atoms: C_9  and  N_15 
REMARK   13  A    between atoms: C_11  and  S_25 
REMARK   14  A    between atoms: O_21  and  C_12 
REMARK   15  A    between atoms: O_23  and  C_13 
ROOT
HETATM    1  C   UNK N   1      27.635  19.180   6.160  0.00  0.00     0.208 A 
HETATM    2  C   UNK N   1      26.587  20.066   5.605  0.00  0.00     0.247 A 
HETATM    3  C   UNK N   1      26.818  18.101   5.285  0.00  0.00     0.179 A 
HETATM    4  N   UNK N   1      25.959  19.177   4.875  0.00  0.00    -0.319 N 
HETATM    5  O   UNK N   1      26.399  21.261   5.714  0.00  0.00    -0.271 OA
ENDROOT
BRANCH   1   6
HETATM    6  N   UNK N   1      27.479  19.004   7.588  0.00  0.00    -0.359 N 
HETATM    7  C   UNK N   1      28.270  18.253   8.279  0.00  0.00     0.111 C 
ATOM      8  HN  UNK N   1      26.720  19.490   8.064  1.00  0.00     0.162 HD
BRANCH   7   9
HETATM    9  C   UNK N   1      29.437  17.550   7.634  0.00  0.00     0.083 C 
BRANCH   9  10
HETATM   10  C   UNK N   1      30.580  17.197   8.598  0.00  0.00     0.010 C 
BRANCH  10  11
HETATM   11  C   UNK N   1      31.822  18.097   8.530  0.00  0.00     0.036 C 
BRANCH  11  12
HETATM   12  C   UNK N   1      33.112  17.296   8.340  0.00  0.00     0.173 C 
BRANCH  12  13
HETATM   13  C   UNK N   1      34.169  18.133   7.662  0.00  0.00     0.163 C 
HETATM   14  O   UNK N   1      34.839  18.927   8.300  0.00  0.00    -0.648 OA
BRANCH  13  15
HETATM   15  O   UNK N   1      34.389  17.993   6.339  0.00  0.00    -0.775 OA
HETATM   16  H   UNK N   1      35.239  18.150   5.977  0.00  0.00     0.167 HD
ENDBRANCH  13  15
ENDBRANCH  12  13
BRANCH  12  17
HETATM   17  N   UNK N   1      33.576  16.842   9.642  0.00  0.00    -0.418 N 
HETATM   18  H   UNK N   1      33.086  17.116  10.493  0.00  0.00     0.150 HD
HETATM   19  H   UNK N   1      34.398  16.243   9.705  0.00  0.00     0.150 HD
ENDBRANCH  12  17
ENDBRANCH  11  12
ENDBRANCH  10  11
ENDBRANCH   9  10
ENDBRANCH   7   9
BRANCH   7  20
HETATM   20  O   UNK N   1      28.050  18.094   9.597  0.00  0.00    -0.350 OA
HETATM   21  H   UNK N   1      28.262  17.640  10.389  0.00  0.00     0.219 HD
ENDBRANCH   7  20
ENDBRANCH   1   6
BRANCH   3  22
HETATM   22  S   UNK N   1      27.796  17.437   3.900  0.00  0.00    -0.154 SA
HETATM   23  H   UNK N   1      28.765  17.384   2.948  0.00  0.00     0.103 HD
ENDBRANCH   3  22
BRANCH   4  24
HETATM   24  C   UNK N   1      24.841  19.165   3.923  0.00  0.00     0.198 C 
BRANCH  24  25
HETATM   25  C   UNK N   1      23.505  18.970   4.654  0.00  0.00     0.144 C 
BRANCH  25  26
HETATM   26  S   UNK N   1      22.428  17.712   3.885  0.00  0.00     0.013 S 
HETATM   27  C   UNK N   1      21.307  17.708   5.310  0.00  0.00     0.127 C 
HETATM   28  O   UNK N   1      21.577  18.768   3.166  0.00  0.00    -0.258 OA
ENDBRANCH  25  26
ENDBRANCH  24  25
BRANCH  24  29
HETATM   29  C   UNK N   1      24.674  20.381   3.030  0.00  0.00     0.164 C 
HETATM   30  O   UNK N   1      25.590  20.693   2.284  0.00  0.00    -0.648 OA
BRANCH  29  31
HETATM   31  O   UNK N   1      23.547  21.110   3.000  0.00  0.00    -0.775 OA
HETATM   32  H   UNK N   1      22.700  20.741   2.847  0.00  0.00     0.167 HD
ENDBRANCH  29  31
ENDBRANCH  24  29
ENDBRANCH   4  24
TORSDOF 15
ENDMDL
MODEL 2
REMARK VINA RESULT:      -6.1      2.504      3.798
REMARK  15 active torsions:
REMARK  status: ('A' for Active; 'I' for Inactive)
REMARK    1  A    between atoms: C_3  and  C_2 
REMARK    2  A    between atoms: C_4  and  C_2 
REMARK    3  A    between atoms: C_6  and  C_3 
REMARK    4  A    between atoms: C_8  and  C_4 
REMARK    5  A    between atoms: C_7  and  C_5 
REMARK    6  A    between atoms: S_26  and  C_5 
REMARK    7  A    between atoms: C_12  and  C_6 
REMARK    8  A    between atoms: C_6  and  N_14 
REMARK    9  A    between atoms: C_13  and  C_7 
REMARK   10  A    between atoms: C_7  and  N_17 
REMARK   11  A    between atoms: C_8  and  O_18 
REMARK   12  A    between atoms: C_9  and  N_15 
REMARK   13  A    between atoms: C_11  and  S_25 
REMARK   14  A    between atoms: O_21  and  C_12 
REMARK   15  A    between atoms: O_23  and  C_13 
ROOT
HETATM    1  C   UNK N   1      25.420  19.609   3.855  0.00  0.00     0.208 A 
HETATM    2  C   UNK N   1      24.303  20.221   3.099  0.00  0.00     0.247 A 
HETATM    3  C   UNK N   1      24.204  18.711   4.413  0.00  0.00     0.179 A 
HETATM    4  N   UNK N   1      23.337  19.455   3.543  0.00  0.00    -0.319 N 
HETATM    5  O   UNK N   1      24.282  21.102   2.264  0.00  0.00    -0.271 OA
ENDROOT
BRANCH   1   6
HETATM    6  N   UNK N   1      25.960  20.526   4.837  0.00  0.00    -0.359 N 
HETATM    7  C   UNK N   1      27.100  20.328   5.408  0.00  0.00     0.111 C 
ATOM      8  HN  UNK N   1      25.421  21.354   5.086  1.00  0.00     0.162 HD
BRANCH   7   9
HETATM    9  C   UNK N   1      27.961  19.145   5.043  0.00  0.00     0.083 C 
BRANCH   9  10
HETATM   10  C   UNK N   1      27.954  18.008   6.075  0.00  0.00     0.010 C 
BRANCH  10  11
HETATM   11  C   UNK N   1      29.144  17.969   7.043  0.00  0.00     0.036 C 
BRANCH  11  12
HETATM   12  C   UNK N   1      28.706  18.015   8.509  0.00  0.00     0.173 C 
BRANCH  12  13
HETATM   13  C   UNK N   1      29.868  18.359   9.408  0.00  0.00     0.163 C 
HETATM   14  O   UNK N   1      29.679  18.837  10.514  0.00  0.00    -0.648 OA
BRANCH  13  15
HETATM   15  O   UNK N   1      31.129  18.123   8.995  0.00  0.00    -0.775 OA
HETATM   16  H   UNK N   1      31.770  17.782   9.587  0.00  0.00     0.167 HD
ENDBRANCH  13  15
ENDBRANCH  12  13
BRANCH  12  17
HETATM   17  N   UNK N   1      27.642  18.998   8.647  0.00  0.00    -0.418 N 
HETATM   18  H   UNK N   1      27.808  19.879   9.132  0.00  0.00     0.150 HD
HETATM   19  H   UNK N   1      26.721  18.804   8.255  0.00  0.00     0.150 HD
ENDBRANCH  12  17
ENDBRANCH  11  12
ENDBRANCH  10  11
ENDBRANCH   9  10
ENDBRANCH   7   9
BRANCH   7  20
HETATM   20  O   UNK N   1      27.531  21.193   6.346  0.00  0.00    -0.350 OA
HETATM   21  H   UNK N   1      28.105  21.361   7.067  0.00  0.00     0.219 HD
ENDBRANCH   7  20
ENDBRANCH   1   6
BRANCH   3  22
HETATM   22  S   UNK N   1      24.340  16.963   3.917  0.00  0.00    -0.154 SA
HETATM   23  H   UNK N   1      24.748  15.667   3.955  0.00  0.00     0.103 HD
ENDBRANCH   3  22
BRANCH   4  24
HETATM   24  C   UNK N   1      21.901  19.282   3.288  0.00  0.00     0.198 C 
BRANCH  24  25
HETATM   25  C   UNK N   1      21.238  18.489   4.423  0.00  0.00     0.144 C 
BRANCH  25  26
HETATM   26  S   UNK N   1      20.578  16.871   3.895  0.00  0.00     0.013 S 
HETATM   27  C   UNK N   1      20.236  16.380   5.607  0.00  0.00     0.127 C 
HETATM   28  O   UNK N   1      19.154  17.420   3.725  0.00  0.00    -0.258 OA
ENDBRANCH  25  26
ENDBRANCH  24  25
BRANCH  24  29
HETATM   29  C   UNK N   1      21.072  20.539   3.094  0.00  0.00     0.164 C 
HETATM   30  O   UNK N   1      20.155  20.764   3.870  0.00  0.00    -0.648 OA
BRANCH  29  31
HETATM   31  O   UNK N   1      21.325  21.433   2.125  0.00  0.00    -0.775 OA
HETATM   32  H   UNK N   1      22.189  21.712   1.896  0.00  0.00     0.167 HD
ENDBRANCH  29  31
ENDBRANCH  24  29
ENDBRANCH   4  24
TORSDOF 15
ENDMDL
MODEL 3
REMARK VINA RESULT:      -6.0      7.304     10.375
REMARK  15 active torsions:
REMARK  status: ('A' for Active; 'I' for Inactive)
REMARK    1  A    between atoms: C_3  and  C_2 
REMARK    2  A    between atoms: C_4  and  C_2 
REMARK    3  A    between atoms: C_6  and  C_3 
REMARK    4  A    between atoms: C_8  and  C_4 
REMARK    5  A    between atoms: C_7  and  C_5 
REMARK    6  A    between atoms: S_26  and  C_5 
REMARK    7  A    between atoms: C_12  and  C_6 
REMARK    8  A    between atoms: C_6  and  N_14 
REMARK    9  A    between atoms: C_13  and  C_7 
REMARK   10  A    between atoms: C_7  and  N_17 
REMARK   11  A    between atoms: C_8  and  O_18 
REMARK   12  A    between atoms: C_9  and  N_15 
REMARK   13  A    between atoms: C_11  and  S_25 
REMARK   14  A    between atoms: O_21  and  C_12 
REMARK   15  A    between atoms: O_23  and  C_13 
ROOT
HETATM    1  C   UNK N   1      35.708  14.674  10.319  0.00  0.00     0.208 A 
HETATM    2  C   UNK N   1      35.408  16.101  10.061  0.00  0.00     0.247 A 
HETATM    3  C   UNK N   1      35.074  14.545   8.843  0.00  0.00     0.179 A 
HETATM    4  N   UNK N   1      34.926  15.973   8.849  0.00  0.00    -0.319 N 
HETATM    5  O   UNK N   1      35.611  17.101  10.721  0.00  0.00    -0.271 OA
ENDROOT
BRANCH   1   6
HETATM    6  N   UNK N   1      34.861  14.134  11.362  0.00  0.00    -0.359 N 
HETATM    7  C   UNK N   1      35.222  13.131  12.090  0.00  0.00     0.111 C 
ATOM      8  HN  UNK N   1      33.950  14.560  11.526  1.00  0.00     0.162 HD
BRANCH   7   9
HETATM    9  C   UNK N   1      36.578  12.494  11.923  0.00  0.00     0.083 C 
BRANCH   9  10
HETATM   10  C   UNK N   1      36.813  11.255  12.799  0.00  0.00     0.010 C 
BRANCH  10  11
HETATM   11  C   UNK N   1      37.705  11.460  14.031  0.00  0.00     0.036 C 
BRANCH  11  12
HETATM   12  C   UNK N   1      36.892  11.700  15.306  0.00  0.00     0.173 C 
BRANCH  12  13
HETATM   13  C   UNK N   1      36.574  13.165  15.473  0.00  0.00     0.163 C 
HETATM   14  O   UNK N   1      35.433  13.532  15.704  0.00  0.00    -0.648 OA
BRANCH  13  15
HETATM   15  O   UNK N   1      37.558  14.081  15.380  0.00  0.00    -0.775 OA
HETATM   16  H   UNK N   1      37.568  14.704  14.680  0.00  0.00     0.167 HD
ENDBRANCH  13  15
ENDBRANCH  12  13
BRANCH  12  17
HETATM   17  N   UNK N   1      35.669  10.914  15.235  0.00  0.00    -0.418 N 
HETATM   18  H   UNK N   1      35.610  10.002  15.686  0.00  0.00     0.150 HD
HETATM   19  H   UNK N   1      34.863  11.280  14.728  0.00  0.00     0.150 HD
ENDBRANCH  12  17
ENDBRANCH  11  12
ENDBRANCH  10  11
ENDBRANCH   9  10
ENDBRANCH   7   9
BRANCH   7  20
HETATM   20  O   UNK N   1      34.374  12.645  13.016  0.00  0.00    -0.350 OA
HETATM   21  H   UNK N   1      33.489  12.539  13.304  0.00  0.00     0.219 HD
ENDBRANCH   7  20
ENDBRANCH   1   6
BRANCH   3  22
HETATM   22  S   UNK N   1      36.288  13.984   7.607  0.00  0.00    -0.154 SA
HETATM   23  H   UNK N   1      36.808  13.704   6.382  0.00  0.00     0.103 HD
ENDBRANCH   3  22
BRANCH   4  24
HETATM   24  C   UNK N   1      34.446  16.864   7.785  0.00  0.00     0.198 C 
BRANCH  24  25
HETATM   25  C   UNK N   1      33.117  16.357   7.208  0.00  0.00     0.144 C 
BRANCH  25  26
HETATM   26  S   UNK N   1      33.245  15.768   5.485  0.00  0.00     0.013 S 
HETATM   27  C   UNK N   1      32.712  17.372   4.829  0.00  0.00     0.127 C 
HETATM   28  O   UNK N   1      34.724  16.169   5.376  0.00  0.00    -0.258 OA
ENDBRANCH  25  26
ENDBRANCH  24  25
BRANCH  24  29
HETATM   29  C   UNK N   1      34.236  18.324   8.142  0.00  0.00     0.164 C 
HETATM   30  O   UNK N   1      33.095  18.759   8.193  0.00  0.00    -0.648 OA
BRANCH  29  31
HETATM   31  O   UNK N   1      35.250  19.153   8.437  0.00  0.00    -0.775 OA
HETATM   32  H   UNK N   1      36.151  18.899   8.390  0.00  0.00     0.167 HD
ENDBRANCH  29  31
ENDBRANCH  24  29
ENDBRANCH   4  24
TORSDOF 15
ENDMDL
MODEL 4
REMARK VINA RESULT:      -5.8      5.578     11.301
REMARK  15 active torsions:
REMARK  status: ('A' for Active; 'I' for Inactive)
REMARK    1  A    between atoms: C_3  and  C_2 
REMARK    2  A    between atoms: C_4  and  C_2 
REMARK    3  A    between atoms: C_6  and  C_3 
REMARK    4  A    between atoms: C_8  and  C_4 
REMARK    5  A    between atoms: C_7  and  C_5 
REMARK    6  A    between atoms: S_26  and  C_5 
REMARK    7  A    between atoms: C_12  and  C_6 
REMARK    8  A    between atoms: C_6  and  N_14 
REMARK    9  A    between atoms: C_13  and  C_7 
REMARK   10  A    between atoms: C_7  and  N_17 
REMARK   11  A    between atoms: C_8  and  O_18 
REMARK   12  A    between atoms: C_9  and  N_15 
REMARK   13  A    between atoms: C_11  and  S_25 
REMARK   14  A    between atoms: O_21  and  C_12 
REMARK   15  A    between atoms: O_23  and  C_13 
ROOT
HETATM    1  C   UNK N   1      34.135  15.608   9.028  0.00  0.00     0.208 A 
HETATM    2  C   UNK N   1      34.428  14.893  10.291  0.00  0.00     0.247 A 
HETATM    3  C   UNK N   1      35.087  14.441   8.454  0.00  0.00     0.179 A 
HETATM    4  N   UNK N   1      35.172  13.936   9.795  0.00  0.00    -0.319 N 
HETATM    5  O   UNK N   1      34.042  15.075  11.429  0.00  0.00    -0.271 OA
ENDROOT
BRANCH   1   6
HETATM    6  N   UNK N   1      34.749  16.918   9.006  0.00  0.00    -0.359 N 
HETATM    7  C   UNK N   1      34.218  17.916   8.381  0.00  0.00     0.111 C 
ATOM      8  HN  UNK N   1      35.629  17.059   9.500  1.00  0.00     0.162 HD
BRANCH   7   9
HETATM    9  C   UNK N   1      32.893  17.777   7.675  0.00  0.00     0.083 C 
BRANCH   9  10
HETATM   10  C   UNK N   1      31.686  18.281   8.479  0.00  0.00     0.010 C 
BRANCH  10  11
HETATM   11  C   UNK N   1      30.521  17.294   8.637  0.00  0.00     0.036 C 
BRANCH  11  12
HETATM   12  C   UNK N   1      29.573  17.688   9.772  0.00  0.00     0.173 C 
BRANCH  12  13
HETATM   13  C   UNK N   1      28.150  17.773   9.278  0.00  0.00     0.163 C 
HETATM   14  O   UNK N   1      27.413  16.802   9.333  0.00  0.00    -0.648 OA
BRANCH  13  15
HETATM   15  O   UNK N   1      27.678  18.935   8.784  0.00  0.00    -0.775 OA
HETATM   16  H   UNK N   1      27.731  19.725   9.285  0.00  0.00     0.167 HD
ENDBRANCH  13  15
ENDBRANCH  12  13
BRANCH  12  17
HETATM   17  N   UNK N   1      29.688  16.706  10.839  0.00  0.00    -0.418 N 
HETATM   18  H   UNK N   1      30.598  16.468  11.230  0.00  0.00     0.150 HD
HETATM   19  H   UNK N   1      28.849  16.252  11.200  0.00  0.00     0.150 HD
ENDBRANCH  12  17
ENDBRANCH  11  12
ENDBRANCH  10  11
ENDBRANCH   9  10
ENDBRANCH   7   9
BRANCH   7  20
HETATM   20  O   UNK N   1      34.856  19.101   8.359  0.00  0.00    -0.350 OA
HETATM   21  H   UNK N   1      35.507  19.659   8.737  0.00  0.00     0.219 HD
ENDBRANCH   7  20
ENDBRANCH   1   6
BRANCH   3  22
HETATM   22  S   UNK N   1      34.203  13.299   7.344  0.00  0.00    -0.154 SA
HETATM   23  H   UNK N   1      33.964  12.541   6.242  0.00  0.00     0.103 HD
ENDBRANCH   3  22
BRANCH   4  24
HETATM   24  C   UNK N   1      35.842  12.728  10.295  0.00  0.00     0.198 C 
BRANCH  24  25
HETATM   25  C   UNK N   1      37.026  13.096  11.199  0.00  0.00     0.144 C 
BRANCH  25  26
HETATM   26  S   UNK N   1      38.647  12.974  10.367  0.00  0.00     0.013 S 
HETATM   27  C   UNK N   1      37.934  12.063   8.971  0.00  0.00     0.127 C 
HETATM   28  O   UNK N   1      38.460  14.315   9.640  0.00  0.00    -0.258 OA
ENDBRANCH  25  26
ENDBRANCH  24  25
BRANCH  24  29
HETATM   29  C   UNK N   1      34.997  11.733  11.070  0.00  0.00     0.164 C 
HETATM   30  O   UNK N   1      34.891  10.593  10.644  0.00  0.00    -0.648 OA
BRANCH  29  31
HETATM   31  O   UNK N   1      34.386  12.044  12.224  0.00  0.00    -0.775 OA
HETATM   32  H   UNK N   1      33.810  12.777  12.320  0.00  0.00     0.167 HD
ENDBRANCH  29  31
ENDBRANCH  24  29
ENDBRANCH   4  24
TORSDOF 15
ENDMDL
MODEL 5
REMARK VINA RESULT:      -5.7      3.174      4.596
REMARK  15 active torsions:
REMARK  status: ('A' for Active; 'I' for Inactive)
REMARK    1  A    between atoms: C_3  and  C_2 
REMARK    2  A    between atoms: C_4  and  C_2 
REMARK    3  A    between atoms: C_6  and  C_3 
REMARK    4  A    between atoms: C_8  and  C_4 
REMARK    5  A    between atoms: C_7  and  C_5 
REMARK    6  A    between atoms: S_26  and  C_5 
REMARK    7  A    between atoms: C_12  and  C_6 
REMARK    8  A    between atoms: C_6  and  N_14 
REMARK    9  A    between atoms: C_13  and  C_7 
REMARK   10  A    between atoms: C_7  and  N_17 
REMARK   11  A    between atoms: C_8  and  O_18 
REMARK   12  A    between atoms: C_9  and  N_15 
REMARK   13  A    between atoms: C_11  and  S_25 
REMARK   14  A    between atoms: O_21  and  C_12 
REMARK   15  A    between atoms: O_23  and  C_13 
ROOT
HETATM    1  C   UNK N   1      25.201  19.399   3.843  0.00  0.00     0.208 A 
HETATM    2  C   UNK N   1      23.830  19.921   3.638  0.00  0.00     0.247 A 
HETATM    3  C   UNK N   1      24.370  18.276   4.647  0.00  0.00     0.179 A 
HETATM    4  N   UNK N   1      23.175  18.978   4.270  0.00  0.00    -0.319 N 
HETATM    5  O   UNK N   1      23.416  20.878   3.015  0.00  0.00    -0.271 OA
ENDROOT
BRANCH   1   6
HETATM    6  N   UNK N   1      25.977  20.269   4.701  0.00  0.00    -0.359 N 
HETATM    7  C   UNK N   1      27.248  20.118   4.864  0.00  0.00     0.111 C 
ATOM      8  HN  UNK N   1      25.503  21.025   5.194  1.00  0.00     0.162 HD
BRANCH   7   9
HETATM    9  C   UNK N   1      28.007  19.047   4.123  0.00  0.00     0.083 C 
BRANCH   9  10
HETATM   10  C   UNK N   1      28.031  17.681   4.824  0.00  0.00     0.010 C 
BRANCH  10  11
HETATM   11  C   UNK N   1      28.955  17.563   6.043  0.00  0.00     0.036 C 
BRANCH  11  12
HETATM   12  C   UNK N   1      28.205  17.121   7.302  0.00  0.00     0.173 C 
BRANCH  12  13
HETATM   13  C   UNK N   1      28.128  18.245   8.305  0.00  0.00     0.163 C 
HETATM   14  O   UNK N   1      28.647  19.324   8.072  0.00  0.00    -0.648 OA
BRANCH  13  15
HETATM   15  O   UNK N   1      27.469  18.065   9.467  0.00  0.00    -0.775 OA
HETATM   16  H   UNK N   1      26.756  17.459   9.523  0.00  0.00     0.167 HD
ENDBRANCH  13  15
ENDBRANCH  12  13
BRANCH  12  17
HETATM   17  N   UNK N   1      26.872  16.682   6.921  0.00  0.00    -0.418 N 
HETATM   18  H   UNK N   1      26.121  17.358   6.783  0.00  0.00     0.150 HD
HETATM   19  H   UNK N   1      26.685  15.688   6.790  0.00  0.00     0.150 HD
ENDBRANCH  12  17
ENDBRANCH  11  12
ENDBRANCH  10  11
ENDBRANCH   9  10
ENDBRANCH   7   9
BRANCH   7  20
HETATM   20  O   UNK N   1      27.910  20.932   5.708  0.00  0.00    -0.350 OA
HETATM   21  H   UNK N   1      28.101  21.807   5.981  0.00  0.00     0.219 HD
ENDBRANCH   7  20
ENDBRANCH   1   6
BRANCH   3  22
HETATM   22  S   UNK N   1      24.478  16.634   3.867  0.00  0.00    -0.154 SA
HETATM   23  H   UNK N   1      24.314  15.292   3.716  0.00  0.00     0.103 HD
ENDBRANCH   3  22
BRANCH   4  24
HETATM   24  C   UNK N   1      21.771  18.626   4.517  0.00  0.00     0.198 C 
BRANCH  24  25
HETATM   25  C   UNK N   1      21.266  17.628   3.467  0.00  0.00     0.144 C 
BRANCH  25  26
HETATM   26  S   UNK N   1      19.629  18.053   2.781  0.00  0.00     0.013 S 
HETATM   27  C   UNK N   1      20.044  19.816   2.713  0.00  0.00     0.127 C 
HETATM   28  O   UNK N   1      20.096  17.846   1.332  0.00  0.00    -0.258 OA
ENDBRANCH  25  26
ENDBRANCH  24  25
BRANCH  24  29
HETATM   29  C   UNK N   1      21.429  18.039   5.874  0.00  0.00     0.164 C 
HETATM   30  O   UNK N   1      21.097  18.795   6.775  0.00  0.00    -0.648 OA
BRANCH  29  31
HETATM   31  O   UNK N   1      21.442  16.719   6.119  0.00  0.00    -0.775 OA
HETATM   32  H   UNK N   1      21.608  16.076   5.458  0.00  0.00     0.167 HD
ENDBRANCH  29  31
ENDBRANCH  24  29
ENDBRANCH   4  24
TORSDOF 15
ENDMDL
MODEL 6
REMARK VINA RESULT:      -5.6      6.130      9.910
REMARK  15 active torsions:
REMARK  status: ('A' for Active; 'I' for Inactive)
REMARK    1  A    between atoms: C_3  and  C_2 
REMARK    2  A    between atoms: C_4  and  C_2 
REMARK    3  A    between atoms: C_6  and  C_3 
REMARK    4  A    between atoms: C_8  and  C_4 
REMARK    5  A    between atoms: C_7  and  C_5 
REMARK    6  A    between atoms: S_26  and  C_5 
REMARK    7  A    between atoms: C_12  and  C_6 
REMARK    8  A    between atoms: C_6  and  N_14 
REMARK    9  A    between atoms: C_13  and  C_7 
REMARK   10  A    between atoms: C_7  and  N_17 
REMARK   11  A    between atoms: C_8  and  O_18 
REMARK   12  A    between atoms: C_9  and  N_15 
REMARK   13  A    between atoms: C_11  and  S_25 
REMARK   14  A    between atoms: O_21  and  C_12 
REMARK   15  A    between atoms: O_23  and  C_13 
ROOT
HETATM    1  C   UNK N   1      35.081  14.766  10.299  0.00  0.00     0.208 A 
HETATM    2  C   UNK N   1      34.903  16.201   9.982  0.00  0.00     0.247 A 
HETATM    3  C   UNK N   1      33.986  14.639   9.123  0.00  0.00     0.179 A 
HETATM    4  N   UNK N   1      34.037  16.070   9.006  0.00  0.00    -0.319 N 
HETATM    5  O   UNK N   1      35.441  17.198  10.421  0.00  0.00    -0.271 OA
ENDROOT
BRANCH   1   6
HETATM    6  N   UNK N   1      34.561  14.444  11.611  0.00  0.00    -0.359 N 
HETATM    7  C   UNK N   1      35.236  13.754  12.467  0.00  0.00     0.111 C 
ATOM      8  HN  UNK N   1      33.631  14.774  11.867  1.00  0.00     0.162 HD
BRANCH   7   9
HETATM    9  C   UNK N   1      36.634  13.282  12.160  0.00  0.00     0.083 C 
BRANCH   9  10
HETATM   10  C   UNK N   1      37.142  12.154  13.070  0.00  0.00     0.010 C 
BRANCH  10  11
HETATM   11  C   UNK N   1      36.718  10.731  12.681  0.00  0.00     0.036 C 
BRANCH  11  12
HETATM   12  C   UNK N   1      35.794  10.093  13.721  0.00  0.00     0.173 C 
BRANCH  12  13
HETATM   13  C   UNK N   1      36.124  10.586  15.108  0.00  0.00     0.163 C 
HETATM   14  O   UNK N   1      35.390  11.375  15.679  0.00  0.00    -0.648 OA
BRANCH  13  15
HETATM   15  O   UNK N   1      37.232  10.141  15.733  0.00  0.00    -0.775 OA
HETATM   16  H   UNK N   1      37.632   9.332  15.481  0.00  0.00     0.167 HD
ENDBRANCH  13  15
ENDBRANCH  12  13
BRANCH  12  17
HETATM   17  N   UNK N   1      34.416  10.410  13.378  0.00  0.00    -0.418 N 
HETATM   18  H   UNK N   1      33.660   9.767  13.613  0.00  0.00     0.150 HD
HETATM   19  H   UNK N   1      34.204  11.284  12.898  0.00  0.00     0.150 HD
ENDBRANCH  12  17
ENDBRANCH  11  12
ENDBRANCH  10  11
ENDBRANCH   9  10
ENDBRANCH   7   9
BRANCH   7  20
HETATM   20  O   UNK N   1      34.684  13.449  13.657  0.00  0.00    -0.350 OA
HETATM   21  H   UNK N   1      34.375  12.786  14.242  0.00  0.00     0.219 HD
ENDBRANCH   7  20
ENDBRANCH   1   6
BRANCH   3  22
HETATM   22  S   UNK N   1      34.641  13.805   7.643  0.00  0.00    -0.154 SA
HETATM   23  H   UNK N   1      35.557  13.378   6.734  0.00  0.00     0.103 HD
ENDBRANCH   3  22
BRANCH   4  24
HETATM   24  C   UNK N   1      33.355  16.951   8.050  0.00  0.00     0.198 C 
BRANCH  24  25
HETATM   25  C   UNK N   1      32.275  17.786   8.752  0.00  0.00     0.144 C 
BRANCH  25  26
HETATM   26  S   UNK N   1      30.608  17.048   8.666  0.00  0.00     0.013 S 
HETATM   27  C   UNK N   1      29.843  18.537   9.361  0.00  0.00     0.127 C 
HETATM   28  O   UNK N   1      30.377  17.548   7.232  0.00  0.00    -0.258 OA
ENDBRANCH  25  26
ENDBRANCH  24  25
BRANCH  24  29
HETATM   29  C   UNK N   1      34.215  17.925   7.265  0.00  0.00     0.164 C 
HETATM   30  O   UNK N   1      34.191  17.879   6.044  0.00  0.00    -0.648 OA
BRANCH  29  31
HETATM   31  O   UNK N   1      34.976  18.860   7.855  0.00  0.00    -0.775 OA
HETATM   32  H   UNK N   1      35.520  18.686   8.598  0.00  0.00     0.167 HD
ENDBRANCH  29  31
ENDBRANCH  24  29
ENDBRANCH   4  24
TORSDOF 15
ENDMDL
MODEL 7
REMARK VINA RESULT:      -5.6      5.816     11.339
REMARK  15 active torsions:
REMARK  status: ('A' for Active; 'I' for Inactive)
REMARK    1  A    between atoms: C_3  and  C_2 
REMARK    2  A    between atoms: C_4  and  C_2 
REMARK    3  A    between atoms: C_6  and  C_3 
REMARK    4  A    between atoms: C_8  and  C_4 
REMARK    5  A    between atoms: C_7  and  C_5 
REMARK    6  A    between atoms: S_26  and  C_5 
REMARK    7  A    between atoms: C_12  and  C_6 
REMARK    8  A    between atoms: C_6  and  N_14 
REMARK    9  A    between atoms: C_13  and  C_7 
REMARK   10  A    between atoms: C_7  and  N_17 
REMARK   11  A    between atoms: C_8  and  O_18 
REMARK   12  A    between atoms: C_9  and  N_15 
REMARK   13  A    between atoms: C_11  and  S_25 
REMARK   14  A    between atoms: O_21  and  C_12 
REMARK   15  A    between atoms: O_23  and  C_13 
ROOT
HETATM    1  C   UNK N   1      34.431  15.619   8.948  0.00  0.00     0.208 A 
HETATM    2  C   UNK N   1      34.473  14.895  10.240  0.00  0.00     0.247 A 
HETATM    3  C   UNK N   1      35.681  14.643   8.661  0.00  0.00     0.179 A 
HETATM    4  N   UNK N   1      35.471  14.090   9.969  0.00  0.00    -0.319 N 
HETATM    5  O   UNK N   1      33.762  14.958  11.223  0.00  0.00    -0.271 OA
ENDROOT
BRANCH   1   6
HETATM    6  N   UNK N   1      34.805  17.008   9.106  0.00  0.00    -0.359 N 
HETATM    7  C   UNK N   1      34.440  17.918   8.267  0.00  0.00     0.111 C 
ATOM      8  HN  UNK N   1      35.376  17.276   9.907  1.00  0.00     0.162 HD
BRANCH   7   9
HETATM    9  C   UNK N   1      33.556  17.586   7.092  0.00  0.00     0.083 C 
BRANCH   9  10
HETATM   10  C   UNK N   1      32.181  17.014   7.470  0.00  0.00     0.010 C 
BRANCH  10  11
HETATM   11  C   UNK N   1      31.329  17.874   8.413  0.00  0.00     0.036 C 
BRANCH  11  12
HETATM   12  C   UNK N   1      29.849  17.485   8.380  0.00  0.00     0.173 C 
BRANCH  12  13
HETATM   13  C   UNK N   1      29.067  18.255   9.414  0.00  0.00     0.163 C 
HETATM   14  O   UNK N   1      29.641  18.894  10.280  0.00  0.00    -0.648 OA
BRANCH  13  15
HETATM   15  O   UNK N   1      27.719  18.253   9.377  0.00  0.00    -0.775 OA
HETATM   16  H   UNK N   1      27.219  18.315  10.166  0.00  0.00     0.167 HD
ENDBRANCH  13  15
ENDBRANCH  12  13
BRANCH  12  17
HETATM   17  N   UNK N   1      29.329  17.744   7.046  0.00  0.00    -0.418 N 
HETATM   18  H   UNK N   1      29.483  18.644   6.593  0.00  0.00     0.150 HD
HETATM   19  H   UNK N   1      28.805  17.018   6.558  0.00  0.00     0.150 HD
ENDBRANCH  12  17
ENDBRANCH  11  12
ENDBRANCH  10  11
ENDBRANCH   9  10
ENDBRANCH   7   9
BRANCH   7  20
HETATM   20  O   UNK N   1      34.854  19.187   8.442  0.00  0.00    -0.350 OA
HETATM   21  H   UNK N   1      35.512  19.836   8.287  0.00  0.00     0.219 HD
ENDBRANCH   7  20
ENDBRANCH   1   6
BRANCH   3  22
HETATM   22  S   UNK N   1      35.338  13.436   7.341  0.00  0.00    -0.154 SA
HETATM   23  H   UNK N   1      34.658  12.818   6.339  0.00  0.00     0.103 HD
ENDBRANCH   3  22
BRANCH   4  24
HETATM   24  C   UNK N   1      36.162  12.977  10.632  0.00  0.00     0.198 C 
BRANCH  24  25
HETATM   25  C   UNK N   1      36.884  13.459  11.897  0.00  0.00     0.144 C 
BRANCH  25  26
HETATM   26  S   UNK N   1      35.812  13.517  13.374  0.00  0.00     0.013 S 
HETATM   27  C   UNK N   1      36.969  12.503  14.333  0.00  0.00     0.127 C 
HETATM   28  O   UNK N   1      36.459  14.813  13.887  0.00  0.00    -0.258 OA
ENDBRANCH  25  26
ENDBRANCH  24  25
BRANCH  24  29
HETATM   29  C   UNK N   1      35.322  11.780  11.041  0.00  0.00     0.164 C 
HETATM   30  O   UNK N   1      35.889  10.757  11.395  0.00  0.00    -0.648 OA
BRANCH  29  31
HETATM   31  O   UNK N   1      33.980  11.809  11.061  0.00  0.00    -0.775 OA
HETATM   32  H   UNK N   1      33.486  12.265  11.713  0.00  0.00     0.167 HD
ENDBRANCH  29  31
ENDBRANCH  24  29
ENDBRANCH   4  24
TORSDOF 15
ENDMDL
MODEL 8
REMARK VINA RESULT:      -5.6     10.825     14.481
REMARK  15 active torsions:
REMARK  status: ('A' for Active; 'I' for Inactive)
REMARK    1  A    between atoms: C_3  and  C_2 
REMARK    2  A    between atoms: C_4  and  C_2 
REMARK    3  A    between atoms: C_6  and  C_3 
REMARK    4  A    between atoms: C_8  and  C_4 
REMARK    5  A    between atoms: C_7  and  C_5 
REMARK    6  A    between atoms: S_26  and  C_5 
REMARK    7  A    between atoms: C_12  and  C_6 
REMARK    8  A    between atoms: C_6  and  N_14 
REMARK    9  A    between atoms: C_13  and  C_7 
REMARK   10  A    between atoms: C_7  and  N_17 
REMARK   11  A    between atoms: C_8  and  O_18 
REMARK   12  A    between atoms: C_9  and  N_15 
REMARK   13  A    between atoms: C_11  and  S_25 
REMARK   14  A    between atoms: O_21  and  C_12 
REMARK   15  A    between atoms: O_23  and  C_13 
ROOT
HETATM    1  C   UNK N   1      28.291  23.475  -6.583  0.00  0.00     0.208 A 
HETATM    2  C   UNK N   1      29.102  22.329  -6.114  0.00  0.00     0.247 A 
HETATM    3  C   UNK N   1      28.478  23.901  -5.040  0.00  0.00     0.179 A 
HETATM    4  N   UNK N   1      29.267  22.714  -4.872  0.00  0.00    -0.319 N 
HETATM    5  O   UNK N   1      29.552  21.365  -6.700  0.00  0.00    -0.271 OA
ENDROOT
BRANCH   1   6
HETATM    6  N   UNK N   1      26.941  23.070  -6.913  0.00  0.00    -0.359 N 
HETATM    7  C   UNK N   1      26.107  23.867  -7.492  0.00  0.00     0.111 C 
ATOM      8  HN  UNK N   1      26.640  22.125  -6.679  1.00  0.00     0.162 HD
BRANCH   7   9
HETATM    9  C   UNK N   1      26.514  25.258  -7.903  0.00  0.00     0.083 C 
BRANCH   9  10
HETATM   10  C   UNK N   1      25.744  26.383  -7.196  0.00  0.00     0.010 C 
BRANCH  10  11
HETATM   11  C   UNK N   1      25.451  26.167  -5.705  0.00  0.00     0.036 C 
BRANCH  11  12
HETATM   12  C   UNK N   1      25.668  27.436  -4.878  0.00  0.00     0.173 C 
BRANCH  12  13
HETATM   13  C   UNK N   1      26.081  27.095  -3.468  0.00  0.00     0.163 C 
HETATM   14  O   UNK N   1      26.301  25.939  -3.146  0.00  0.00    -0.648 OA
BRANCH  13  15
HETATM   15  O   UNK N   1      26.225  28.075  -2.554  0.00  0.00    -0.775 OA
HETATM   16  H   UNK N   1      26.570  28.911  -2.799  0.00  0.00     0.167 HD
ENDBRANCH  13  15
ENDBRANCH  12  13
BRANCH  12  17
HETATM   17  N   UNK N   1      26.686  28.248  -5.528  0.00  0.00    -0.418 N 
HETATM   18  H   UNK N   1      26.451  29.156  -5.929  0.00  0.00     0.150 HD
HETATM   19  H   UNK N   1      27.645  27.906  -5.584  0.00  0.00     0.150 HD
ENDBRANCH  12  17
ENDBRANCH  11  12
ENDBRANCH  10  11
ENDBRANCH   9  10
ENDBRANCH   7   9
BRANCH   7  20
HETATM   20  O   UNK N   1      24.850  23.448  -7.735  0.00  0.00    -0.350 OA
HETATM   21  H   UNK N   1      23.941  23.662  -7.801  0.00  0.00     0.219 HD
ENDBRANCH   7  20
ENDBRANCH   1   6
BRANCH   3  22
HETATM   22  S   UNK N   1      29.467  25.418  -4.847  0.00  0.00    -0.154 SA
HETATM   23  H   UNK N   1      30.270  26.335  -4.245  0.00  0.00     0.103 HD
ENDBRANCH   3  22
BRANCH   4  24
HETATM   24  C   UNK N   1      29.996  22.240  -3.689  0.00  0.00     0.198 C 
BRANCH  24  25
HETATM   25  C   UNK N   1      31.506  22.459  -3.855  0.00  0.00     0.144 C 
BRANCH  25  26
HETATM   26  S   UNK N   1      32.499  20.953  -3.578  0.00  0.00     0.013 S 
HETATM   27  C   UNK N   1      33.979  21.720  -4.290  0.00  0.00     0.127 C 
HETATM   28  O   UNK N   1      32.904  21.387  -2.162  0.00  0.00    -0.258 OA
ENDBRANCH  25  26
ENDBRANCH  24  25
BRANCH  24  29
HETATM   29  C   UNK N   1      29.616  22.843  -2.348  0.00  0.00     0.164 C 
HETATM   30  O   UNK N   1      28.435  23.050  -2.110  0.00  0.00    -0.648 OA
BRANCH  29  31
HETATM   31  O   UNK N   1      30.520  23.127  -1.397  0.00  0.00    -0.775 OA
HETATM   32  H   UNK N   1      31.369  23.475  -1.583  0.00  0.00     0.167 HD
ENDBRANCH  29  31
ENDBRANCH  24  29
ENDBRANCH   4  24
TORSDOF 15
ENDMDL
MODEL 9
REMARK VINA RESULT:      -5.6      3.576      5.803
REMARK  15 active torsions:
REMARK  status: ('A' for Active; 'I' for Inactive)
REMARK    1  A    between atoms: C_3  and  C_2 
REMARK    2  A    between atoms: C_4  and  C_2 
REMARK    3  A    between atoms: C_6  and  C_3 
REMARK    4  A    between atoms: C_8  and  C_4 
REMARK    5  A    between atoms: C_7  and  C_5 
REMARK    6  A    between atoms: S_26  and  C_5 
REMARK    7  A    between atoms: C_12  and  C_6 
REMARK    8  A    between atoms: C_6  and  N_14 
REMARK    9  A    between atoms: C_13  and  C_7 
REMARK   10  A    between atoms: C_7  and  N_17 
REMARK   11  A    between atoms: C_8  and  O_18 
REMARK   12  A    between atoms: C_9  and  N_15 
REMARK   13  A    between atoms: C_11  and  S_25 
REMARK   14  A    between atoms: O_21  and  C_12 
REMARK   15  A    between atoms: O_23  and  C_13 
ROOT
HETATM    1  C   UNK N   1      31.579  17.399   8.425  0.00  0.00     0.208 A 
HETATM    2  C   UNK N   1      30.850  17.176   7.156  0.00  0.00     0.247 A 
HETATM    3  C   UNK N   1      30.169  18.078   8.811  0.00  0.00     0.179 A 
HETATM    4  N   UNK N   1      29.702  17.705   7.505  0.00  0.00    -0.319 N 
HETATM    5  O   UNK N   1      31.170  16.610   6.129  0.00  0.00    -0.271 OA
ENDROOT
BRANCH   1   6
HETATM    6  N   UNK N   1      32.654  18.353   8.258  0.00  0.00    -0.359 N 
HETATM    7  C   UNK N   1      33.896  18.014   8.354  0.00  0.00     0.111 C 
ATOM      8  HN  UNK N   1      32.423  19.326   8.058  1.00  0.00     0.162 HD
BRANCH   7   9
HETATM    9  C   UNK N   1      34.295  16.581   8.600  0.00  0.00     0.083 C 
BRANCH   9  10
HETATM   10  C   UNK N   1      35.022  16.341   9.931  0.00  0.00     0.010 C 
BRANCH  10  11
HETATM   11  C   UNK N   1      34.367  15.332  10.885  0.00  0.00     0.036 C 
BRANCH  11  12
HETATM   12  C   UNK N   1      35.178  14.041  11.014  0.00  0.00     0.173 C 
BRANCH  12  13
HETATM   13  C   UNK N   1      35.682  13.861  12.425  0.00  0.00     0.163 C 
HETATM   14  O   UNK N   1      34.901  13.732  13.354  0.00  0.00    -0.648 OA
BRANCH  13  15
HETATM   15  O   UNK N   1      37.008  13.827  12.666  0.00  0.00    -0.775 OA
HETATM   16  H   UNK N   1      37.554  14.554  12.439  0.00  0.00     0.167 HD
ENDBRANCH  13  15
ENDBRANCH  12  13
BRANCH  12  17
HETATM   17  N   UNK N   1      34.336  12.920  10.624  0.00  0.00    -0.418 N 
HETATM   18  H   UNK N   1      34.299  12.075  11.193  0.00  0.00     0.150 HD
HETATM   19  H   UNK N   1      33.778  12.981   9.773  0.00  0.00     0.150 HD
ENDBRANCH  12  17
ENDBRANCH  11  12
ENDBRANCH  10  11
ENDBRANCH   9  10
ENDBRANCH   7   9
BRANCH   7  20
HETATM   20  O   UNK N   1      34.852  18.953   8.231  0.00  0.00    -0.350 OA
HETATM   21  H   UNK N   1      35.222  19.755   8.545  0.00  0.00     0.219 HD
ENDBRANCH   7  20
ENDBRANCH   1   6
BRANCH   3  22
HETATM   22  S   UNK N   1      29.299  17.180  10.134  0.00  0.00    -0.154 SA
HETATM   23  H   UNK N   1      28.256  16.658  10.834  0.00  0.00     0.103 HD
ENDBRANCH   3  22
BRANCH   4  24
HETATM   24  C   UNK N   1      28.369  17.864   6.911  0.00  0.00     0.198 C 
BRANCH  24  25
HETATM   25  C   UNK N   1      28.443  18.680   5.614  0.00  0.00     0.144 C 
BRANCH  25  26
HETATM   26  S   UNK N   1      26.848  19.422   5.124  0.00  0.00     0.013 S 
HETATM   27  C   UNK N   1      27.339  21.050   5.753  0.00  0.00     0.127 C 
HETATM   28  O   UNK N   1      27.354  19.768   3.716  0.00  0.00    -0.258 OA
ENDBRANCH  25  26
ENDBRANCH  24  25
BRANCH  24  29
HETATM   29  C   UNK N   1      27.596  16.599   6.585  0.00  0.00     0.164 C 
HETATM   30  O   UNK N   1      27.924  15.945   5.606  0.00  0.00    -0.648 OA
BRANCH  29  31
HETATM   31  O   UNK N   1      26.587  16.147   7.347  0.00  0.00    -0.775 OA
HETATM   32  H   UNK N   1      26.708  15.555   8.062  0.00  0.00     0.167 HD
ENDBRANCH  29  31
ENDBRANCH  24  29
ENDBRANCH   4  24
TORSDOF 15
ENDMDL
