MODEL 1
REMARK VINA RESULT:      -7.2      0.000      0.000
REMARK  14 active torsions:
REMARK  status: ('A' for Active; 'I' for Inactive)
REMARK    1  A    between atoms: C_7  and  C_3 
REMARK    2  A    between atoms: O_21  and  C_3 
REMARK    3  A    between atoms: C_8  and  C_4 
REMARK    4  A    between atoms: O_22  and  C_4 
REMARK    5  A    between atoms: O_23  and  C_5 
REMARK    6  A    between atoms: O_24  and  C_6 
REMARK    7  A    between atoms: C_9  and  N_17 
REMARK    8  A    between atoms: C_10  and  N_19 
REMARK    9  A    between atoms: C_11  and  O_25 
REMARK   10  A    between atoms: C_12  and  O_26 
REMARK   11  A    between atoms: C_13  and  O_27 
REMARK   12  A    between atoms: C_14  and  O_31 
REMARK   13  A    between atoms: C_15  and  O_28 
REMARK   14  A    between atoms: C_16  and  O_31 
ROOT
HETATM    1  O   UNK N   1      31.826  16.616   8.213  0.00  0.00    -0.348 OA
ENDROOT
BRANCH   1   2
HETATM    2  C   UNK N   1      33.024  16.524   8.998  0.00  0.00     0.186 C 
HETATM    3  C   UNK N   1      34.373  17.144   8.525  0.00  0.00     0.179 C 
HETATM    4  O   UNK N   1      35.267  17.189   9.623  0.00  0.00    -0.349 OA
HETATM    5  C   UNK N   1      35.622  15.914  10.100  0.00  0.00     0.282 C 
HETATM    6  C   UNK N   1      34.380  15.123  10.585  0.00  0.00     0.169 C 
HETATM    7  C   UNK N   1      33.313  15.078   9.462  0.00  0.00     0.177 C 
BRANCH   3   8
HETATM    8  C   UNK N   1      34.264  18.591   8.089  0.00  0.00     0.198 C 
BRANCH   8   9
HETATM    9  O   UNK N   1      35.367  19.315   8.550  0.00  0.00    -0.398 OA
HETATM   10  H   UNK N   1      35.687  19.532   9.439  0.00  0.00     0.209 HD
ENDBRANCH   8   9
ENDBRANCH   3   8
BRANCH   5  11
HETATM   11  O   UNK N   1      36.479  16.117  11.185  0.00  0.00    -0.369 OA
HETATM   12  H   UNK N   1      36.382  15.675  12.043  0.00  0.00     0.212 HD
ENDBRANCH   5  11
BRANCH   6  13
HETATM   13  N   UNK N   1      34.632  13.771  11.094  0.00  0.00    -0.363 N 
HETATM   14  C   UNK N   1      35.029  13.383  12.270  0.00  0.00     0.107 C 
HETATM   15  C   UNK N   1      35.188  11.928  12.532  0.00  0.00     0.097 C 
ATOM     16  HN  UNK N   1      34.470  13.020  10.424  1.00  0.00     0.162 HD
BRANCH  14  17
HETATM   17  O   UNK N   1      35.295  14.246  13.267  0.00  0.00    -0.350 OA
HETATM   18  H   UNK N   1      35.937  14.191  13.948  0.00  0.00     0.219 HD
ENDBRANCH  14  17
ENDBRANCH   6  13
BRANCH   7  19
HETATM   19  O   UNK N   1      32.144  14.491   9.953  0.00  0.00    -0.391 OA
HETATM   20  H   UNK N   1      31.244  14.848  10.015  0.00  0.00     0.210 HD
ENDBRANCH   7  19
ENDBRANCH   1   2
BRANCH   1  21
HETATM   21  C   UNK N   1      31.056  17.804   8.082  0.00  0.00     0.286 C 
HETATM   22  C   UNK N   1      29.801  17.420   7.203  0.00  0.00     0.169 C 
HETATM   23  C   UNK N   1      28.676  18.428   7.498  0.00  0.00     0.177 C 
HETATM   24  C   UNK N   1      28.277  18.345   8.989  0.00  0.00     0.180 C 
HETATM   25  C   UNK N   1      29.472  17.903   9.874  0.00  0.00     0.179 C 
HETATM   26  O   UNK N   1      30.699  18.381   9.344  0.00  0.00    -0.349 OA
BRANCH  22  27
HETATM   27  N   UNK N   1      30.176  17.406   5.796  0.00  0.00    -0.363 N 
HETATM   28  C   UNK N   1      30.528  16.343   5.152  0.00  0.00     0.107 C 
HETATM   29  C   UNK N   1      30.855  16.438   3.703  0.00  0.00     0.097 C 
ATOM     30  HN  UNK N   1      30.161  18.291   5.289  1.00  0.00     0.162 HD
BRANCH  28  31
HETATM   31  O   UNK N   1      30.628  15.149   5.772  0.00  0.00    -0.350 OA
HETATM   32  H   UNK N   1      31.157  14.856   6.488  0.00  0.00     0.219 HD
ENDBRANCH  28  31
ENDBRANCH  22  27
BRANCH  23  33
HETATM   33  O   UNK N   1      27.546  18.246   6.693  0.00  0.00    -0.391 OA
HETATM   34  H   UNK N   1      27.332  18.861   5.974  0.00  0.00     0.210 HD
ENDBRANCH  23  33
BRANCH  24  35
HETATM   35  O   UNK N   1      27.197  17.473   9.185  0.00  0.00    -0.390 OA
HETATM   36  H   UNK N   1      26.910  16.804   9.824  0.00  0.00     0.210 HD
ENDBRANCH  24  35
BRANCH  25  37
HETATM   37  C   UNK N   1      29.551  16.381  10.118  0.00  0.00     0.198 C 
BRANCH  37  38
HETATM   38  O   UNK N   1      29.873  16.101  11.447  0.00  0.00    -0.398 OA
HETATM   39  H   UNK N   1      29.387  15.485  12.019  0.00  0.00     0.209 HD
ENDBRANCH  37  38
ENDBRANCH  25  37
ENDBRANCH   1  21
TORSDOF 14
ENDMDL
MODEL 2
REMARK VINA RESULT:      -6.9      6.945     10.414
REMARK  14 active torsions:
REMARK  status: ('A' for Active; 'I' for Inactive)
REMARK    1  A    between atoms: C_7  and  C_3 
REMARK    2  A    between atoms: O_21  and  C_3 
REMARK    3  A    between atoms: C_8  and  C_4 
REMARK    4  A    between atoms: O_22  and  C_4 
REMARK    5  A    between atoms: O_23  and  C_5 
REMARK    6  A    between atoms: O_24  and  C_6 
REMARK    7  A    between atoms: C_9  and  N_17 
REMARK    8  A    between atoms: C_10  and  N_19 
REMARK    9  A    between atoms: C_11  and  O_25 
REMARK   10  A    between atoms: C_12  and  O_26 
REMARK   11  A    between atoms: C_13  and  O_27 
REMARK   12  A    between atoms: C_14  and  O_31 
REMARK   13  A    between atoms: C_15  and  O_28 
REMARK   14  A    between atoms: C_16  and  O_31 
ROOT
HETATM    1  O   UNK N   1      23.369  18.183   3.591  0.00  0.00    -0.348 OA
ENDROOT
BRANCH   1   2
HETATM    2  C   UNK N   1      24.533  18.879   4.061  0.00  0.00     0.186 C 
HETATM    3  C   UNK N   1      25.407  19.761   3.119  0.00  0.00     0.179 C 
HETATM    4  O   UNK N   1      26.263  20.566   3.910  0.00  0.00    -0.349 OA
HETATM    5  C   UNK N   1      27.199  19.819   4.648  0.00  0.00     0.282 C 
HETATM    6  C   UNK N   1      26.499  18.841   5.627  0.00  0.00     0.169 C 
HETATM    7  C   UNK N   1      25.488  17.958   4.854  0.00  0.00     0.177 C 
BRANCH   3   8
HETATM    8  C   UNK N   1      24.614  20.766   2.309  0.00  0.00     0.198 C 
BRANCH   8   9
HETATM    9  O   UNK N   1      23.530  21.234   3.055  0.00  0.00    -0.398 OA
HETATM   10  H   UNK N   1      23.046  20.870   3.813  0.00  0.00     0.209 HD
ENDBRANCH   8   9
ENDBRANCH   3   8
BRANCH   5  11
HETATM   11  O   UNK N   1      27.950  20.737   5.389  0.00  0.00    -0.369 OA
HETATM   12  H   UNK N   1      27.578  21.311   6.077  0.00  0.00     0.212 HD
ENDBRANCH   5  11
BRANCH   6  13
HETATM   13  N   UNK N   1      27.381  18.000   6.443  0.00  0.00    -0.363 N 
HETATM   14  C   UNK N   1      27.876  18.213   7.626  0.00  0.00     0.107 C 
HETATM   15  C   UNK N   1      28.739  17.170   8.243  0.00  0.00     0.097 C 
ATOM     16  HN  UNK N   1      27.646  17.112   6.018  1.00  0.00     0.162 HD
BRANCH  14  17
HETATM   17  O   UNK N   1      27.633  19.337   8.323  0.00  0.00    -0.350 OA
HETATM   18  H   UNK N   1      27.182  19.450   9.136  0.00  0.00     0.219 HD
ENDBRANCH  14  17
ENDBRANCH   6  13
BRANCH   7  19
HETATM   19  O   UNK N   1      24.760  17.181   5.760  0.00  0.00    -0.391 OA
HETATM   20  H   UNK N   1      23.802  17.047   5.839  0.00  0.00     0.210 HD
ENDBRANCH   7  19
ENDBRANCH   1   2
BRANCH   1  21
HETATM   21  C   UNK N   1      22.074  18.337   4.159  0.00  0.00     0.286 C 
HETATM   22  C   UNK N   1      21.068  18.421   2.943  0.00  0.00     0.169 C 
HETATM   23  C   UNK N   1      19.673  18.004   3.439  0.00  0.00     0.177 C 
HETATM   24  C   UNK N   1      19.712  16.544   3.946  0.00  0.00     0.180 C 
HETATM   25  C   UNK N   1      21.114  16.170   4.495  0.00  0.00     0.179 C 
HETATM   26  O   UNK N   1      21.744  17.296   5.086  0.00  0.00    -0.349 OA
BRANCH  22  27
HETATM   27  N   UNK N   1      21.080  19.769   2.393  0.00  0.00    -0.363 N 
HETATM   28  C   UNK N   1      20.790  20.052   1.166  0.00  0.00     0.107 C 
HETATM   29  C   UNK N   1      20.796  21.472   0.720  0.00  0.00     0.097 C 
ATOM     30  HN  UNK N   1      21.334  20.537   3.014  1.00  0.00     0.162 HD
BRANCH  28  31
HETATM   31  O   UNK N   1      20.503  19.083   0.271  0.00  0.00    -0.350 OA
HETATM   32  H   UNK N   1      20.971  18.316   0.006  0.00  0.00     0.219 HD
ENDBRANCH  28  31
ENDBRANCH  22  27
BRANCH  23  33
HETATM   33  O   UNK N   1      18.677  18.143   2.467  0.00  0.00    -0.391 OA
HETATM   34  H   UNK N   1      18.895  18.335   1.542  0.00  0.00     0.210 HD
ENDBRANCH  23  33
BRANCH  24  35
HETATM   35  O   UNK N   1      19.342  15.641   2.941  0.00  0.00    -0.390 OA
HETATM   36  H   UNK N   1      18.918  15.656   2.069  0.00  0.00     0.210 HD
ENDBRANCH  24  35
BRANCH  25  37
HETATM   37  C   UNK N   1      22.049  15.520   3.453  0.00  0.00     0.198 C 
BRANCH  37  38
HETATM   38  O   UNK N   1      23.288  15.205   4.016  0.00  0.00    -0.398 OA
HETATM   39  H   UNK N   1      24.113  15.687   3.849  0.00  0.00     0.209 HD
ENDBRANCH  37  38
ENDBRANCH  25  37
ENDBRANCH   1  21
TORSDOF 14
ENDMDL
MODEL 3
REMARK VINA RESULT:      -6.6      2.901      7.751
REMARK  14 active torsions:
REMARK  status: ('A' for Active; 'I' for Inactive)
REMARK    1  A    between atoms: C_7  and  C_3 
REMARK    2  A    between atoms: O_21  and  C_3 
REMARK    3  A    between atoms: C_8  and  C_4 
REMARK    4  A    between atoms: O_22  and  C_4 
REMARK    5  A    between atoms: O_23  and  C_5 
REMARK    6  A    between atoms: O_24  and  C_6 
REMARK    7  A    between atoms: C_9  and  N_17 
REMARK    8  A    between atoms: C_10  and  N_19 
REMARK    9  A    between atoms: C_11  and  O_25 
REMARK   10  A    between atoms: C_12  and  O_26 
REMARK   11  A    between atoms: C_13  and  O_27 
REMARK   12  A    between atoms: C_14  and  O_31 
REMARK   13  A    between atoms: C_15  and  O_28 
REMARK   14  A    between atoms: C_16  and  O_31 
ROOT
HETATM    1  O   UNK N   1      34.787  13.814   9.670  0.00  0.00    -0.348 OA
ENDROOT
BRANCH   1   2
HETATM    2  C   UNK N   1      34.898  15.173   9.222  0.00  0.00     0.186 C 
HETATM    3  C   UNK N   1      34.722  16.381  10.191  0.00  0.00     0.179 C 
HETATM    4  O   UNK N   1      35.207  17.551   9.556  0.00  0.00    -0.349 OA
HETATM    5  C   UNK N   1      34.463  17.912   8.418  0.00  0.00     0.282 C 
HETATM    6  C   UNK N   1      34.491  16.794   7.344  0.00  0.00     0.169 C 
HETATM    7  C   UNK N   1      34.036  15.452   7.969  0.00  0.00     0.177 C 
BRANCH   3   8
HETATM    8  C   UNK N   1      35.557  16.283  11.451  0.00  0.00     0.198 C 
BRANCH   8   9
HETATM    9  O   UNK N   1      36.864  15.905  11.133  0.00  0.00    -0.398 OA
HETATM   10  H   UNK N   1      37.591  16.364  10.685  0.00  0.00     0.209 HD
ENDBRANCH   8   9
ENDBRANCH   3   8
BRANCH   5  11
HETATM   11  O   UNK N   1      35.067  19.058   7.892  0.00  0.00    -0.369 OA
HETATM   12  H   UNK N   1      34.859  19.961   8.180  0.00  0.00     0.212 HD
ENDBRANCH   5  11
BRANCH   6  13
HETATM   13  N   UNK N   1      33.737  17.058   6.114  0.00  0.00    -0.363 N 
HETATM   14  C   UNK N   1      32.470  17.293   5.947  0.00  0.00     0.107 C 
HETATM   15  C   UNK N   1      31.960  17.553   4.574  0.00  0.00     0.097 C 
ATOM     16  HN  UNK N   1      34.292  17.059   5.259  1.00  0.00     0.162 HD
BRANCH  14  17
HETATM   17  O   UNK N   1      31.596  17.319   6.969  0.00  0.00    -0.350 OA
HETATM   18  H   UNK N   1      30.770  17.756   7.038  0.00  0.00     0.219 HD
ENDBRANCH  14  17
ENDBRANCH   6  13
BRANCH   7  19
HETATM   19  O   UNK N   1      34.201  14.423   7.037  0.00  0.00    -0.391 OA
HETATM   20  H   UNK N   1      34.988  14.152   6.539  0.00  0.00     0.210 HD
ENDBRANCH   7  19
ENDBRANCH   1   2
BRANCH   1  21
HETATM   21  C   UNK N   1      35.854  12.875   9.618  0.00  0.00     0.286 C 
HETATM   22  C   UNK N   1      35.767  12.037  10.955  0.00  0.00     0.169 C 
HETATM   23  C   UNK N   1      36.463  10.684  10.725  0.00  0.00     0.177 C 
HETATM   24  C   UNK N   1      35.735   9.904   9.605  0.00  0.00     0.180 C 
HETATM   25  C   UNK N   1      35.067  10.864   8.585  0.00  0.00     0.179 C 
HETATM   26  O   UNK N   1      35.822  12.058   8.442  0.00  0.00    -0.349 OA
BRANCH  22  27
HETATM   27  N   UNK N   1      36.369  12.791  12.044  0.00  0.00    -0.363 N 
HETATM   28  C   UNK N   1      35.739  13.144  13.116  0.00  0.00     0.107 C 
HETATM   29  C   UNK N   1      36.466  13.881  14.185  0.00  0.00     0.097 C 
ATOM     30  HN  UNK N   1      37.350  13.059  11.955  1.00  0.00     0.162 HD
BRANCH  28  31
HETATM   31  O   UNK N   1      34.426  12.877  13.277  0.00  0.00    -0.350 OA
HETATM   32  H   UNK N   1      33.656  13.285  12.932  0.00  0.00     0.219 HD
ENDBRANCH  28  31
ENDBRANCH  22  27
BRANCH  23  33
HETATM   33  O   UNK N   1      36.538   9.899  11.879  0.00  0.00    -0.391 OA
HETATM   34  H   UNK N   1      36.201   8.990  11.897  0.00  0.00     0.210 HD
ENDBRANCH  23  33
BRANCH  24  35
HETATM   35  O   UNK N   1      34.774   9.030  10.129  0.00  0.00    -0.390 OA
HETATM   36  H   UNK N   1      34.640   8.487  10.921  0.00  0.00     0.210 HD
ENDBRANCH  24  35
BRANCH  25  37
HETATM   37  C   UNK N   1      33.594  11.198   8.901  0.00  0.00     0.198 C 
BRANCH  37  38
HETATM   38  O   UNK N   1      33.024  11.969   7.886  0.00  0.00    -0.398 OA
HETATM   39  H   UNK N   1      33.344  12.840   7.604  0.00  0.00     0.209 HD
ENDBRANCH  37  38
ENDBRANCH  25  37
ENDBRANCH   1  21
TORSDOF 14
ENDMDL
MODEL 4
REMARK VINA RESULT:      -6.6      2.963      4.519
REMARK  14 active torsions:
REMARK  status: ('A' for Active; 'I' for Inactive)
REMARK    1  A    between atoms: C_7  and  C_3 
REMARK    2  A    between atoms: O_21  and  C_3 
REMARK    3  A    between atoms: C_8  and  C_4 
REMARK    4  A    between atoms: O_22  and  C_4 
REMARK    5  A    between atoms: O_23  and  C_5 
REMARK    6  A    between atoms: O_24  and  C_6 
REMARK    7  A    between atoms: C_9  and  N_17 
REMARK    8  A    between atoms: C_10  and  N_19 
REMARK    9  A    between atoms: C_11  and  O_25 
REMARK   10  A    between atoms: C_12  and  O_26 
REMARK   11  A    between atoms: C_13  and  O_27 
REMARK   12  A    between atoms: C_14  and  O_31 
REMARK   13  A    between atoms: C_15  and  O_28 
REMARK   14  A    between atoms: C_16  and  O_31 
ROOT
HETATM    1  O   UNK N   1      34.685  14.401   9.026  0.00  0.00    -0.348 OA
ENDROOT
BRANCH   1   2
HETATM    2  C   UNK N   1      35.572  13.808   9.985  0.00  0.00     0.186 C 
HETATM    3  C   UNK N   1      36.406  12.531   9.664  0.00  0.00     0.179 C 
HETATM    4  O   UNK N   1      37.411  12.380  10.651  0.00  0.00    -0.349 OA
HETATM    5  C   UNK N   1      36.892  12.138  11.937  0.00  0.00     0.282 C 
HETATM    6  C   UNK N   1      35.989  13.305  12.413  0.00  0.00     0.169 C 
HETATM    7  C   UNK N   1      34.892  13.586  11.356  0.00  0.00     0.177 C 
BRANCH   3   8
HETATM    8  C   UNK N   1      37.185  12.618   8.368  0.00  0.00     0.198 C 
BRANCH   8   9
HETATM    9  O   UNK N   1      37.656  13.919   8.178  0.00  0.00    -0.398 OA
HETATM   10  H   UNK N   1      38.544  14.307   8.200  0.00  0.00     0.209 HD
ENDBRANCH   8   9
ENDBRANCH   3   8
BRANCH   5  11
HETATM   11  O   UNK N   1      37.988  12.035  12.798  0.00  0.00    -0.369 OA
HETATM   12  H   UNK N   1      38.001  11.482  13.595  0.00  0.00     0.212 HD
ENDBRANCH   5  11
BRANCH   6  13
HETATM   13  N   UNK N   1      35.383  13.154  13.740  0.00  0.00    -0.363 N 
HETATM   14  C   UNK N   1      35.886  13.380  14.917  0.00  0.00     0.107 C 
HETATM   15  C   UNK N   1      35.035  13.161  16.118  0.00  0.00     0.097 C 
ATOM     16  HN  UNK N   1      34.419  12.821  13.739  1.00  0.00     0.162 HD
BRANCH  14  17
HETATM   17  O   UNK N   1      37.146  13.814  15.097  0.00  0.00    -0.350 OA
HETATM   18  H   UNK N   1      37.901  13.697  14.554  0.00  0.00     0.219 HD
ENDBRANCH  14  17
ENDBRANCH   6  13
BRANCH   7  19
HETATM   19  O   UNK N   1      34.174  14.728  11.723  0.00  0.00    -0.391 OA
HETATM   20  H   UNK N   1      33.798  15.433  11.173  0.00  0.00     0.210 HD
ENDBRANCH   7  19
ENDBRANCH   1   2
BRANCH   1  21
HETATM   21  C   UNK N   1      34.836  15.721   8.520  0.00  0.00     0.286 C 
HETATM   22  C   UNK N   1      34.410  15.661   6.999  0.00  0.00     0.169 C 
HETATM   23  C   UNK N   1      33.989  17.073   6.558  0.00  0.00     0.177 C 
HETATM   24  C   UNK N   1      32.775  17.543   7.393  0.00  0.00     0.180 C 
HETATM   25  C   UNK N   1      32.774  16.902   8.806  0.00  0.00     0.179 C 
HETATM   26  O   UNK N   1      34.100  16.694   9.270  0.00  0.00    -0.349 OA
BRANCH  22  27
HETATM   27  N   UNK N   1      35.511  15.138   6.204  0.00  0.00    -0.363 N 
HETATM   28  C   UNK N   1      35.423  14.098   5.443  0.00  0.00     0.107 C 
HETATM   29  C   UNK N   1      36.603  13.673   4.642  0.00  0.00     0.097 C 
ATOM     30  HN  UNK N   1      36.407  15.622   6.252  1.00  0.00     0.162 HD
BRANCH  28  31
HETATM   31  O   UNK N   1      34.287  13.372   5.375  0.00  0.00    -0.350 OA
HETATM   32  H   UNK N   1      34.092  12.548   4.973  0.00  0.00     0.219 HD
ENDBRANCH  28  31
ENDBRANCH  22  27
BRANCH  23  33
HETATM   33  O   UNK N   1      33.689  17.160   5.195  0.00  0.00    -0.391 OA
HETATM   34  H   UNK N   1      33.363  17.983   4.799  0.00  0.00     0.210 HD
ENDBRANCH  23  33
BRANCH  24  35
HETATM   35  O   UNK N   1      31.565  17.259   6.746  0.00  0.00    -0.390 OA
HETATM   36  H   UNK N   1      30.717  16.833   6.943  0.00  0.00     0.210 HD
ENDBRANCH  24  35
BRANCH  25  37
HETATM   37  C   UNK N   1      31.961  15.594   8.908  0.00  0.00     0.198 C 
BRANCH  37  38
HETATM   38  O   UNK N   1      31.873  15.158  10.232  0.00  0.00    -0.398 OA
HETATM   39  H   UNK N   1      32.159  14.287  10.551  0.00  0.00     0.209 HD
ENDBRANCH  37  38
ENDBRANCH  25  37
ENDBRANCH   1  21
TORSDOF 14
ENDMDL
MODEL 5
REMARK VINA RESULT:      -6.3      2.908      4.267
REMARK  14 active torsions:
REMARK  status: ('A' for Active; 'I' for Inactive)
REMARK    1  A    between atoms: C_7  and  C_3 
REMARK    2  A    between atoms: O_21  and  C_3 
REMARK    3  A    between atoms: C_8  and  C_4 
REMARK    4  A    between atoms: O_22  and  C_4 
REMARK    5  A    between atoms: O_23  and  C_5 
REMARK    6  A    between atoms: O_24  and  C_6 
REMARK    7  A    between atoms: C_9  and  N_17 
REMARK    8  A    between atoms: C_10  and  N_19 
REMARK    9  A    between atoms: C_11  and  O_25 
REMARK   10  A    between atoms: C_12  and  O_26 
REMARK   11  A    between atoms: C_13  and  O_27 
REMARK   12  A    between atoms: C_14  and  O_31 
REMARK   13  A    between atoms: C_15  and  O_28 
REMARK   14  A    between atoms: C_16  and  O_31 
ROOT
HETATM    1  O   UNK N   1      33.114  15.794   6.927  0.00  0.00    -0.348 OA
ENDROOT
BRANCH   1   2
HETATM    2  C   UNK N   1      33.732  15.885   8.219  0.00  0.00     0.186 C 
HETATM    3  C   UNK N   1      34.765  16.999   8.566  0.00  0.00     0.179 C 
HETATM    4  O   UNK N   1      34.942  17.038   9.971  0.00  0.00    -0.349 OA
HETATM    5  C   UNK N   1      35.517  15.863  10.489  0.00  0.00     0.282 C 
HETATM    6  C   UNK N   1      34.632  14.623  10.199  0.00  0.00     0.169 C 
HETATM    7  C   UNK N   1      34.329  14.536   8.682  0.00  0.00     0.177 C 
BRANCH   3   8
HETATM    8  C   UNK N   1      34.297  18.399   8.223  0.00  0.00     0.198 C 
BRANCH   8   9
HETATM    9  O   UNK N   1      35.302  19.325   8.509  0.00  0.00    -0.398 OA
HETATM   10  H   UNK N   1      35.937  19.403   9.239  0.00  0.00     0.209 HD
ENDBRANCH   8   9
ENDBRANCH   3   8
BRANCH   5  11
HETATM   11  O   UNK N   1      35.608  16.038  11.873  0.00  0.00    -0.369 OA
HETATM   12  H   UNK N   1      36.267  15.598  12.433  0.00  0.00     0.212 HD
ENDBRANCH   5  11
BRANCH   6  13
HETATM   13  N   UNK N   1      35.140  13.337  10.686  0.00  0.00    -0.363 N 
HETATM   14  C   UNK N   1      35.047  12.795  11.863  0.00  0.00     0.107 C 
HETATM   15  C   UNK N   1      35.644  11.451  12.086  0.00  0.00     0.097 C 
ATOM     16  HN  UNK N   1      35.643  12.782   9.994  1.00  0.00     0.162 HD
BRANCH  14  17
HETATM   17  O   UNK N   1      34.424  13.397  12.892  0.00  0.00    -0.350 OA
HETATM   18  H   UNK N   1      34.431  14.298  13.150  0.00  0.00     0.219 HD
ENDBRANCH  14  17
ENDBRANCH   6  13
BRANCH   7  19
HETATM   19  O   UNK N   1      33.417  13.504   8.447  0.00  0.00    -0.391 OA
HETATM   20  H   UNK N   1      32.763  13.101   9.040  0.00  0.00     0.210 HD
ENDBRANCH   7  19
ENDBRANCH   1   2
BRANCH   1  21
HETATM   21  C   UNK N   1      33.801  16.025   5.704  0.00  0.00     0.286 C 
HETATM   22  C   UNK N   1      33.194  15.006   4.659  0.00  0.00     0.169 C 
HETATM   23  C   UNK N   1      33.435  15.561   3.245  0.00  0.00     0.177 C 
HETATM   24  C   UNK N   1      32.713  16.919   3.085  0.00  0.00     0.180 C 
HETATM   25  C   UNK N   1      32.603  17.667   4.440  0.00  0.00     0.179 C 
HETATM   26  O   UNK N   1      33.722  17.387   5.267  0.00  0.00    -0.349 OA
BRANCH  22  27
HETATM   27  N   UNK N   1      33.797  13.695   4.850  0.00  0.00    -0.363 N 
HETATM   28  C   UNK N   1      33.212  12.709   5.446  0.00  0.00     0.107 C 
HETATM   29  C   UNK N   1      33.908  11.398   5.550  0.00  0.00     0.097 C 
ATOM     30  HN  UNK N   1      34.740  13.546   4.491  1.00  0.00     0.162 HD
BRANCH  28  31
HETATM   31  O   UNK N   1      31.988  12.850   5.998  0.00  0.00    -0.350 OA
HETATM   32  H   UNK N   1      31.383  12.227   6.350  0.00  0.00     0.219 HD
ENDBRANCH  28  31
ENDBRANCH  22  27
BRANCH  23  33
HETATM   33  O   UNK N   1      33.030  14.686   2.232  0.00  0.00    -0.391 OA
HETATM   34  H   UNK N   1      33.348  14.783   1.321  0.00  0.00     0.210 HD
ENDBRANCH  23  33
BRANCH  24  35
HETATM   35  O   UNK N   1      31.438  16.761   2.528  0.00  0.00    -0.390 OA
HETATM   36  H   UNK N   1      30.833  16.043   2.287  0.00  0.00     0.210 HD
ENDBRANCH  24  35
BRANCH  25  37
HETATM   37  C   UNK N   1      31.290  17.397   5.207  0.00  0.00     0.198 C 
BRANCH  37  38
HETATM   38  O   UNK N   1      30.206  18.016   4.581  0.00  0.00    -0.398 OA
HETATM   39  H   UNK N   1      29.363  18.230   5.012  0.00  0.00     0.209 HD
ENDBRANCH  37  38
ENDBRANCH  25  37
ENDBRANCH   1  21
TORSDOF 14
ENDMDL
MODEL 6
REMARK VINA RESULT:      -6.2      8.766     11.955
REMARK  14 active torsions:
REMARK  status: ('A' for Active; 'I' for Inactive)
REMARK    1  A    between atoms: C_7  and  C_3 
REMARK    2  A    between atoms: O_21  and  C_3 
REMARK    3  A    between atoms: C_8  and  C_4 
REMARK    4  A    between atoms: O_22  and  C_4 
REMARK    5  A    between atoms: O_23  and  C_5 
REMARK    6  A    between atoms: O_24  and  C_6 
REMARK    7  A    between atoms: C_9  and  N_17 
REMARK    8  A    between atoms: C_10  and  N_19 
REMARK    9  A    between atoms: C_11  and  O_25 
REMARK   10  A    between atoms: C_12  and  O_26 
REMARK   11  A    between atoms: C_13  and  O_27 
REMARK   12  A    between atoms: C_14  and  O_31 
REMARK   13  A    between atoms: C_15  and  O_28 
REMARK   14  A    between atoms: C_16  and  O_31 
ROOT
HETATM    1  O   UNK N   1      21.515  16.457   4.192  0.00  0.00    -0.348 OA
ENDROOT
BRANCH   1   2
HETATM    2  C   UNK N   1      21.265  15.510   5.241  0.00  0.00     0.186 C 
HETATM    3  C   UNK N   1      19.916  15.476   6.022  0.00  0.00     0.179 C 
HETATM    4  O   UNK N   1      19.835  14.258   6.742  0.00  0.00    -0.349 OA
HETATM    5  C   UNK N   1      20.816  14.142   7.744  0.00  0.00     0.282 C 
HETATM    6  C   UNK N   1      22.246  14.196   7.147  0.00  0.00     0.169 C 
HETATM    7  C   UNK N   1      22.407  15.472   6.283  0.00  0.00     0.177 C 
BRANCH   3   8
HETATM    8  C   UNK N   1      18.692  15.449   5.130  0.00  0.00     0.198 C 
BRANCH   8   9
HETATM    9  O   UNK N   1      17.560  15.820   5.859  0.00  0.00    -0.398 OA
HETATM   10  H   UNK N   1      17.135  15.450   6.648  0.00  0.00     0.209 HD
ENDBRANCH   8   9
ENDBRANCH   3   8
BRANCH   5  11
HETATM   11  O   UNK N   1      20.626  12.894   8.346  0.00  0.00    -0.369 OA
HETATM   12  H   UNK N   1      20.408  12.773   9.284  0.00  0.00     0.212 HD
ENDBRANCH   5  11
BRANCH   6  13
HETATM   13  N   UNK N   1      23.351  14.095   8.105  0.00  0.00    -0.363 N 
HETATM   14  C   UNK N   1      23.893  13.044   8.647  0.00  0.00     0.107 C 
HETATM   15  C   UNK N   1      25.032  13.224   9.586  0.00  0.00     0.097 C 
ATOM     16  HN  UNK N   1      23.759  14.985   8.391  1.00  0.00     0.162 HD
BRANCH  14  17
HETATM   17  O   UNK N   1      23.469  11.795   8.386  0.00  0.00    -0.350 OA
HETATM   18  H   UNK N   1      23.486  11.032   8.931  0.00  0.00     0.219 HD
ENDBRANCH  14  17
ENDBRANCH   6  13
BRANCH   7  19
HETATM   19  O   UNK N   1      23.645  15.443   5.634  0.00  0.00    -0.391 OA
HETATM   20  H   UNK N   1      24.041  16.076   5.015  0.00  0.00     0.210 HD
ENDBRANCH   7  19
ENDBRANCH   1   2
BRANCH   1  21
HETATM   21  C   UNK N   1      21.150  17.829   4.262  0.00  0.00     0.286 C 
HETATM   22  C   UNK N   1      22.255  18.620   3.454  0.00  0.00     0.169 C 
HETATM   23  C   UNK N   1      21.653  19.958   2.993  0.00  0.00     0.177 C 
HETATM   24  C   UNK N   1      20.450  19.696   2.057  0.00  0.00     0.180 C 
HETATM   25  C   UNK N   1      19.747  18.355   2.395  0.00  0.00     0.179 C 
HETATM   26  O   UNK N   1      19.823  18.080   3.786  0.00  0.00    -0.349 OA
BRANCH  22  27
HETATM   27  N   UNK N   1      23.433  18.802   4.289  0.00  0.00    -0.363 N 
HETATM   28  C   UNK N   1      24.523  18.119   4.162  0.00  0.00     0.107 C 
HETATM   29  C   UNK N   1      25.682  18.416   5.046  0.00  0.00     0.097 C 
ATOM     30  HN  UNK N   1      23.396  19.512   5.021  1.00  0.00     0.162 HD
BRANCH  28  31
HETATM   31  O   UNK N   1      24.624  17.123   3.257  0.00  0.00    -0.350 OA
HETATM   32  H   UNK N   1      24.314  16.239   3.260  0.00  0.00     0.219 HD
ENDBRANCH  28  31
ENDBRANCH  22  27
BRANCH  23  33
HETATM   33  O   UNK N   1      22.579  20.790   2.355  0.00  0.00    -0.391 OA
HETATM   34  H   UNK N   1      23.499  20.515   2.222  0.00  0.00     0.210 HD
ENDBRANCH  23  33
BRANCH  24  35
HETATM   35  O   UNK N   1      20.837  19.700   0.710  0.00  0.00    -0.390 OA
HETATM   36  H   UNK N   1      21.242  19.097   0.068  0.00  0.00     0.210 HD
ENDBRANCH  24  35
BRANCH  25  37
HETATM   37  C   UNK N   1      20.262  17.148   1.583  0.00  0.00     0.198 C 
BRANCH  37  38
HETATM   38  O   UNK N   1      19.528  15.996   1.873  0.00  0.00    -0.398 OA
HETATM   39  H   UNK N   1      19.898  15.181   2.247  0.00  0.00     0.209 HD
ENDBRANCH  37  38
ENDBRANCH  25  37
ENDBRANCH   1  21
TORSDOF 14
ENDMDL
MODEL 7
REMARK VINA RESULT:      -6.2     13.333     17.244
REMARK  14 active torsions:
REMARK  status: ('A' for Active; 'I' for Inactive)
REMARK    1  A    between atoms: C_7  and  C_3 
REMARK    2  A    between atoms: O_21  and  C_3 
REMARK    3  A    between atoms: C_8  and  C_4 
REMARK    4  A    between atoms: O_22  and  C_4 
REMARK    5  A    between atoms: O_23  and  C_5 
REMARK    6  A    between atoms: O_24  and  C_6 
REMARK    7  A    between atoms: C_9  and  N_17 
REMARK    8  A    between atoms: C_10  and  N_19 
REMARK    9  A    between atoms: C_11  and  O_25 
REMARK   10  A    between atoms: C_12  and  O_26 
REMARK   11  A    between atoms: C_13  and  O_27 
REMARK   12  A    between atoms: C_14  and  O_31 
REMARK   13  A    between atoms: C_15  and  O_28 
REMARK   14  A    between atoms: C_16  and  O_31 
ROOT
HETATM    1  O   UNK N   1      28.323  23.332  -6.373  0.00  0.00    -0.348 OA
ENDROOT
BRANCH   1   2
HETATM    2  C   UNK N   1      28.882  23.208  -5.057  0.00  0.00     0.186 C 
HETATM    3  C   UNK N   1      29.195  24.450  -4.168  0.00  0.00     0.179 C 
HETATM    4  O   UNK N   1      29.415  24.017  -2.838  0.00  0.00    -0.349 OA
HETATM    5  C   UNK N   1      30.554  23.202  -2.702  0.00  0.00     0.282 C 
HETATM    6  C   UNK N   1      30.436  21.916  -3.560  0.00  0.00     0.169 C 
HETATM    7  C   UNK N   1      30.128  22.293  -5.031  0.00  0.00     0.177 C 
BRANCH   3   8
HETATM    8  C   UNK N   1      28.039  25.422  -4.045  0.00  0.00     0.198 C 
BRANCH   8   9
HETATM    9  O   UNK N   1      26.845  24.724  -3.853  0.00  0.00    -0.398 OA
HETATM   10  H   UNK N   1      26.140  24.796  -3.191  0.00  0.00     0.209 HD
ENDBRANCH   8   9
ENDBRANCH   3   8
BRANCH   5  11
HETATM   11  O   UNK N   1      30.627  22.839  -1.354  0.00  0.00    -0.369 OA
HETATM   12  H   UNK N   1      29.973  22.279  -0.907  0.00  0.00     0.212 HD
ENDBRANCH   5  11
BRANCH   6  13
HETATM   13  N   UNK N   1      31.575  20.995  -3.504  0.00  0.00    -0.363 N 
HETATM   14  C   UNK N   1      32.814  21.177  -3.855  0.00  0.00     0.107 C 
HETATM   15  C   UNK N   1      33.785  20.065  -3.671  0.00  0.00     0.097 C 
ATOM     16  HN  UNK N   1      31.364  20.069  -3.133  1.00  0.00     0.162 HD
BRANCH  14  17
HETATM   17  O   UNK N   1      33.259  22.336  -4.372  0.00  0.00    -0.350 OA
HETATM   18  H   UNK N   1      32.787  23.120  -4.573  0.00  0.00     0.219 HD
ENDBRANCH  14  17
ENDBRANCH   6  13
BRANCH   7  19
HETATM   19  O   UNK N   1      29.882  21.131  -5.768  0.00  0.00    -0.391 OA
HETATM   20  H   UNK N   1      30.503  20.491  -6.151  0.00  0.00     0.210 HD
ENDBRANCH   7  19
ENDBRANCH   1   2
BRANCH   1  21
HETATM   21  C   UNK N   1      27.090  22.744  -6.766  0.00  0.00     0.286 C 
HETATM   22  C   UNK N   1      26.313  23.854  -7.580  0.00  0.00     0.169 C 
HETATM   23  C   UNK N   1      25.299  23.157  -8.503  0.00  0.00     0.177 C 
HETATM   24  C   UNK N   1      26.043  22.242  -9.503  0.00  0.00     0.180 C 
HETATM   25  C   UNK N   1      27.372  21.709  -8.906  0.00  0.00     0.179 C 
HETATM   26  O   UNK N   1      27.261  21.527  -7.502  0.00  0.00    -0.349 OA
BRANCH  22  27
HETATM   27  N   UNK N   1      25.675  24.780  -6.656  0.00  0.00    -0.363 N 
HETATM   28  C   UNK N   1      25.587  26.054  -6.853  0.00  0.00     0.107 C 
HETATM   29  C   UNK N   1      24.877  26.903  -5.858  0.00  0.00     0.097 C 
ATOM     30  HN  UNK N   1      25.274  24.400  -5.798  1.00  0.00     0.162 HD
BRANCH  28  31
HETATM   31  O   UNK N   1      26.147  26.636  -7.935  0.00  0.00    -0.350 OA
HETATM   32  H   UNK N   1      26.940  26.460  -8.401  0.00  0.00     0.219 HD
ENDBRANCH  28  31
ENDBRANCH  22  27
BRANCH  23  33
HETATM   33  O   UNK N   1      24.478  24.052  -9.197  0.00  0.00    -0.391 OA
HETATM   34  H   UNK N   1      23.945  23.766  -9.955  0.00  0.00     0.210 HD
ENDBRANCH  23  33
BRANCH  24  35
HETATM   35  O   UNK N   1      26.300  22.903 -10.711  0.00  0.00    -0.390 OA
HETATM   36  H   UNK N   1      26.638  23.760 -11.014  0.00  0.00     0.210 HD
ENDBRANCH  24  35
BRANCH  25  37
HETATM   37  C   UNK N   1      28.607  22.575  -9.236  0.00  0.00     0.198 C 
BRANCH  37  38
HETATM   38  O   UNK N   1      29.765  22.032  -8.677  0.00  0.00    -0.398 OA
HETATM   39  H   UNK N   1      29.796  21.504  -7.863  0.00  0.00     0.209 HD
ENDBRANCH  37  38
ENDBRANCH  25  37
ENDBRANCH   1  21
TORSDOF 14
ENDMDL
MODEL 8
REMARK VINA RESULT:      -6.2      2.688      7.212
REMARK  14 active torsions:
REMARK  status: ('A' for Active; 'I' for Inactive)
REMARK    1  A    between atoms: C_7  and  C_3 
REMARK    2  A    between atoms: O_21  and  C_3 
REMARK    3  A    between atoms: C_8  and  C_4 
REMARK    4  A    between atoms: O_22  and  C_4 
REMARK    5  A    between atoms: O_23  and  C_5 
REMARK    6  A    between atoms: O_24  and  C_6 
REMARK    7  A    between atoms: C_9  and  N_17 
REMARK    8  A    between atoms: C_10  and  N_19 
REMARK    9  A    between atoms: C_11  and  O_25 
REMARK   10  A    between atoms: C_12  and  O_26 
REMARK   11  A    between atoms: C_13  and  O_27 
REMARK   12  A    between atoms: C_14  and  O_31 
REMARK   13  A    between atoms: C_15  and  O_28 
REMARK   14  A    between atoms: C_16  and  O_31 
ROOT
HETATM    1  O   UNK N   1      34.601  15.321   8.428  0.00  0.00    -0.348 OA
ENDROOT
BRANCH   1   2
HETATM    2  C   UNK N   1      33.563  15.708   7.516  0.00  0.00     0.186 C 
HETATM    3  C   UNK N   1      33.871  16.193   6.067  0.00  0.00     0.179 C 
HETATM    4  O   UNK N   1      32.670  16.182   5.316  0.00  0.00    -0.349 OA
HETATM    5  C   UNK N   1      31.713  17.099   5.789  0.00  0.00     0.282 C 
HETATM    6  C   UNK N   1      31.309  16.793   7.254  0.00  0.00     0.169 C 
HETATM    7  C   UNK N   1      32.575  16.719   8.144  0.00  0.00     0.177 C 
BRANCH   3   8
HETATM    8  C   UNK N   1      34.788  15.267   5.293  0.00  0.00     0.198 C 
BRANCH   8   9
HETATM    9  O   UNK N   1      36.058  15.256   5.873  0.00  0.00    -0.398 OA
HETATM   10  H   UNK N   1      36.697  14.547   6.047  0.00  0.00     0.209 HD
ENDBRANCH   8   9
ENDBRANCH   3   8
BRANCH   5  11
HETATM   11  O   UNK N   1      30.587  16.960   4.972  0.00  0.00    -0.369 OA
HETATM   12  H   UNK N   1      30.111  16.124   4.844  0.00  0.00     0.212 HD
ENDBRANCH   5  11
BRANCH   6  13
HETATM   13  N   UNK N   1      30.323  17.695   7.855  0.00  0.00    -0.363 N 
HETATM   14  C   UNK N   1      29.026  17.694   7.763  0.00  0.00     0.107 C 
HETATM   15  C   UNK N   1      28.251  18.727   8.502  0.00  0.00     0.097 C 
ATOM     16  HN  UNK N   1      30.713  18.437   8.436  1.00  0.00     0.162 HD
BRANCH  14  17
HETATM   17  O   UNK N   1      28.351  16.791   7.031  0.00  0.00    -0.350 OA
HETATM   18  H   UNK N   1      27.534  16.368   7.208  0.00  0.00     0.219 HD
ENDBRANCH  14  17
ENDBRANCH   6  13
BRANCH   7  19
HETATM   19  O   UNK N   1      32.218  16.302   9.429  0.00  0.00    -0.391 OA
HETATM   20  H   UNK N   1      32.691  15.732  10.056  0.00  0.00     0.210 HD
ENDBRANCH   7  19
ENDBRANCH   1   2
BRANCH   1  21
HETATM   21  C   UNK N   1      34.559  14.139   9.217  0.00  0.00     0.286 C 
HETATM   22  C   UNK N   1      36.030  13.561   9.222  0.00  0.00     0.169 C 
HETATM   23  C   UNK N   1      36.199  12.675  10.469  0.00  0.00     0.177 C 
HETATM   24  C   UNK N   1      35.998  13.524  11.746  0.00  0.00     0.180 C 
HETATM   25  C   UNK N   1      35.030  14.711  11.494  0.00  0.00     0.179 C 
HETATM   26  O   UNK N   1      34.043  14.365  10.534  0.00  0.00    -0.349 OA
BRANCH  22  27
HETATM   27  N   UNK N   1      36.271  12.831   7.987  0.00  0.00    -0.363 N 
HETATM   28  C   UNK N   1      37.429  12.727   7.421  0.00  0.00     0.107 C 
HETATM   29  C   UNK N   1      37.568  11.921   6.178  0.00  0.00     0.097 C 
ATOM     30  HN  UNK N   1      35.477  12.373   7.539  1.00  0.00     0.162 HD
BRANCH  28  31
HETATM   31  O   UNK N   1      38.513  13.356   7.922  0.00  0.00    -0.350 OA
HETATM   32  H   UNK N   1      39.268  13.727   7.512  0.00  0.00     0.219 HD
ENDBRANCH  28  31
ENDBRANCH  22  27
BRANCH  23  33
HETATM   33  O   UNK N   1      37.435  12.024  10.520  0.00  0.00    -0.391 OA
HETATM   34  H   UNK N   1      37.502  11.080  10.730  0.00  0.00     0.210 HD
ENDBRANCH  23  33
BRANCH  24  35
HETATM   35  O   UNK N   1      37.217  14.006  12.239  0.00  0.00    -0.390 OA
HETATM   36  H   UNK N   1      37.574  14.819  12.629  0.00  0.00     0.210 HD
ENDBRANCH  24  35
BRANCH  25  37
HETATM   37  C   UNK N   1      35.732  16.025  11.089  0.00  0.00     0.198 C 
BRANCH  37  38
HETATM   38  O   UNK N   1      34.803  17.044  10.871  0.00  0.00    -0.398 OA
HETATM   39  H   UNK N   1      35.003  17.993  10.897  0.00  0.00     0.209 HD
ENDBRANCH  37  38
ENDBRANCH  25  37
ENDBRANCH   1  21
TORSDOF 14
ENDMDL
MODEL 9
REMARK VINA RESULT:      -6.1      1.893      2.717
REMARK  14 active torsions:
REMARK  status: ('A' for Active; 'I' for Inactive)
REMARK    1  A    between atoms: C_7  and  C_3 
REMARK    2  A    between atoms: O_21  and  C_3 
REMARK    3  A    between atoms: C_8  and  C_4 
REMARK    4  A    between atoms: O_22  and  C_4 
REMARK    5  A    between atoms: O_23  and  C_5 
REMARK    6  A    between atoms: O_24  and  C_6 
REMARK    7  A    between atoms: C_9  and  N_17 
REMARK    8  A    between atoms: C_10  and  N_19 
REMARK    9  A    between atoms: C_11  and  O_25 
REMARK   10  A    between atoms: C_12  and  O_26 
REMARK   11  A    between atoms: C_13  and  O_27 
REMARK   12  A    between atoms: C_14  and  O_31 
REMARK   13  A    between atoms: C_15  and  O_28 
REMARK   14  A    between atoms: C_16  and  O_31 
ROOT
HETATM    1  O   UNK N   1      31.173  16.269   7.145  0.00  0.00    -0.348 OA
ENDROOT
BRANCH   1   2
HETATM    2  C   UNK N   1      32.562  15.968   6.950  0.00  0.00     0.186 C 
HETATM    3  C   UNK N   1      33.057  15.042   5.797  0.00  0.00     0.179 C 
HETATM    4  O   UNK N   1      34.457  15.197   5.655  0.00  0.00    -0.349 OA
HETATM    5  C   UNK N   1      35.180  14.760   6.780  0.00  0.00     0.282 C 
HETATM    6  C   UNK N   1      34.785  15.555   8.052  0.00  0.00     0.169 C 
HETATM    7  C   UNK N   1      33.250  15.496   8.252  0.00  0.00     0.177 C 
BRANCH   3   8
HETATM    8  C   UNK N   1      32.512  15.417   4.434  0.00  0.00     0.198 C 
BRANCH   8   9
HETATM    9  O   UNK N   1      32.838  16.742   4.136  0.00  0.00    -0.398 OA
HETATM   10  H   UNK N   1      33.670  17.238   4.167  0.00  0.00     0.209 HD
ENDBRANCH   8   9
ENDBRANCH   3   8
BRANCH   5  11
HETATM   11  O   UNK N   1      36.530  14.994   6.504  0.00  0.00    -0.369 OA
HETATM   12  H   UNK N   1      37.132  14.327   6.137  0.00  0.00     0.212 HD
ENDBRANCH   5  11
BRANCH   6  13
HETATM   13  N   UNK N   1      35.470  15.175   9.291  0.00  0.00    -0.363 N 
HETATM   14  C   UNK N   1      35.813  15.903  10.312  0.00  0.00     0.107 C 
HETATM   15  C   UNK N   1      36.490  15.252  11.465  0.00  0.00     0.097 C 
ATOM     16  HN  UNK N   1      35.714  14.187   9.364  1.00  0.00     0.162 HD
BRANCH  14  17
HETATM   17  O   UNK N   1      35.574  17.225  10.373  0.00  0.00    -0.350 OA
HETATM   18  H   UNK N   1      34.779  17.679  10.576  0.00  0.00     0.219 HD
ENDBRANCH  14  17
ENDBRANCH   6  13
BRANCH   7  19
HETATM   19  O   UNK N   1      32.886  16.330   9.314  0.00  0.00    -0.391 OA
HETATM   20  H   UNK N   1      32.588  17.253   9.309  0.00  0.00     0.210 HD
ENDBRANCH   7  19
ENDBRANCH   1   2
BRANCH   1  21
HETATM   21  C   UNK N   1      30.633  17.583   7.090  0.00  0.00     0.286 C 
HETATM   22  C   UNK N   1      29.109  17.418   6.706  0.00  0.00     0.169 C 
HETATM   23  C   UNK N   1      28.350  18.666   7.187  0.00  0.00     0.177 C 
HETATM   24  C   UNK N   1      28.461  18.786   8.725  0.00  0.00     0.180 C 
HETATM   25  C   UNK N   1      29.781  18.162   9.250  0.00  0.00     0.179 C 
HETATM   26  O   UNK N   1      30.828  18.318   8.304  0.00  0.00    -0.349 OA
BRANCH  22  27
HETATM   27  N   UNK N   1      28.987  17.215   5.270  0.00  0.00    -0.363 N 
HETATM   28  C   UNK N   1      28.919  16.054   4.706  0.00  0.00     0.107 C 
HETATM   29  C   UNK N   1      28.755  15.965   3.229  0.00  0.00     0.097 C 
ATOM     30  HN  UNK N   1      28.955  18.041   4.672  1.00  0.00     0.162 HD
BRANCH  28  31
HETATM   31  O   UNK N   1      29.016  14.918   5.427  0.00  0.00    -0.350 OA
HETATM   32  H   UNK N   1      28.401  14.235   5.607  0.00  0.00     0.219 HD
ENDBRANCH  28  31
ENDBRANCH  22  27
BRANCH  23  33
HETATM   33  O   UNK N   1      27.005  18.675   6.806  0.00  0.00    -0.391 OA
HETATM   34  H   UNK N   1      26.542  19.502   6.600  0.00  0.00     0.210 HD
ENDBRANCH  23  33
BRANCH  24  35
HETATM   35  O   UNK N   1      27.369  18.189   9.368  0.00  0.00    -0.390 OA
HETATM   36  H   UNK N   1      26.946  17.319   9.425  0.00  0.00     0.210 HD
ENDBRANCH  24  35
BRANCH  25  37
HETATM   37  C   UNK N   1      29.658  16.682   9.673  0.00  0.00     0.198 C 
BRANCH  37  38
HETATM   38  O   UNK N   1      29.529  16.564  11.058  0.00  0.00    -0.398 OA
HETATM   39  H   UNK N   1      29.242  15.763  11.523  0.00  0.00     0.209 HD
ENDBRANCH  37  38
ENDBRANCH  25  37
ENDBRANCH   1  21
TORSDOF 14
ENDMDL
