REMARK  14 active torsions:
REMARK  status: ('A' for Active; 'I' for Inactive)
REMARK    1  A    between atoms: N_1  and  C_2 
REMARK    2  A    between atoms: C_8  and  C_9 
REMARK    3  A    between atoms: N_15  and  C_16 
REMARK    4  A    between atoms: C_16  and  C_17 
REMARK    5  A    between atoms: C_17  and  C_18 
REMARK    6  A    between atoms: C_18  and  C_19 
REMARK    7  A    between atoms: C_19  and  C_20 
REMARK    8  A    between atoms: C_20  and  C_21 
REMARK    9  A    between atoms: C_21  and  C_22 
REMARK   10  A    between atoms: N_27  and  C_28 
REMARK   11  A    between atoms: C_28  and  C_29 
REMARK   12  A    between atoms: C_29  and  N_30 
REMARK   13  A    between atoms: N_30  and  C_31 
REMARK   14  A    between atoms: C_50  and  N_51 
ROOT
HETATM    1  C   UNK N   1       0.491  10.942  -2.160  0.00  0.00     0.002 C 
ENDROOT
BRANCH   1   2
HETATM    2  C   UNK N   1      -0.003   9.881  -1.185  0.00  0.00     0.020 C 
BRANCH   2   3
HETATM    3  C   UNK N   1       0.207   8.517  -1.771  0.00  0.00     0.129 C 
BRANCH   3   4
HETATM    4  N   UNK N   1       0.697   7.451  -0.869  0.00  0.00    -0.345 N 
HETATM    5  C   UNK N   1       2.021   7.418  -0.453  0.00  0.00     0.056 C 
HETATM    6  C   UNK N   1       2.547   6.221   0.099  0.00  0.00     0.005 A 
HETATM    7  C   UNK N   1       1.698   5.117   0.323  0.00  0.00    -0.011 A 
HETATM    8  C   UNK N   1       3.906   6.110   0.444  0.00  0.00     0.043 A 
HETATM    9  C   UNK N   1       2.228   3.933   0.870  0.00  0.00     0.015 A 
HETATM   10  C   UNK N   1       0.337   5.221   0.017  0.00  0.00     0.002 A 
HETATM   11  C   UNK N   1       3.587   3.834   1.171  0.00  0.00     0.030 A 
HETATM   12  C   UNK N   1       4.426   4.925   0.957  0.00  0.00     0.026 A 
HETATM   13  C   UNK N   1      -0.148   6.395  -0.605  0.00  0.00     0.048 A 
HETATM   14  C   UNK N   1      -0.545   4.161   0.294  0.00  0.00     0.017 A 
HETATM   15  C   UNK N   1      -1.518   6.466  -0.939  0.00  0.00     0.059 A 
HETATM   16  C   UNK N   1      -2.386   5.415  -0.632  0.00  0.00     0.027 A 
HETATM   17  C   UNK N   1      -1.899   4.264  -0.015  0.00  0.00     0.030 A 
BRANCH   5  18
HETATM   18  C   UNK N   1       2.889   8.643  -0.489  0.00  0.00    -0.008 A 
HETATM   19  C   UNK N   1       2.425   9.794   0.167  0.00  0.00     0.014 A 
HETATM   20  C   UNK N   1       3.245  10.906   0.352  0.00  0.00     0.001 A 
HETATM   21  C   UNK N   1       4.560  10.879  -0.103  0.00  0.00     0.000 A 
HETATM   22  C   UNK N   1       5.054   9.731  -0.728  0.00  0.00     0.001 A 
HETATM   23  C   UNK N   1       4.232   8.610  -0.898  0.00  0.00     0.014 A 
ENDBRANCH   5  18
BRANCH  12  24
HETATM   24  N   UNK N   1       5.801   4.827   1.243  0.00  0.00    -0.399 N 
HETATM   25  H   UNK N   1       6.222   3.960   1.442  0.00  0.00     0.156 HD
HETATM   26  H   UNK N   1       6.353   5.642   1.243  0.00  0.00     0.156 HD
ENDBRANCH  12  24
BRANCH  16  27
HETATM   27  N   UNK N   1      -3.758   5.522  -0.930  0.00  0.00    -0.399 N 
HETATM   28  H   UNK N   1      -4.173   6.391  -1.138  0.00  0.00     0.156 HD
HETATM   29  H   UNK N   1      -4.316   4.711  -0.930  0.00  0.00     0.156 HD
ENDBRANCH  16  27
ENDBRANCH   3   4
ENDBRANCH   2   3
ENDBRANCH   1   2
BRANCH   1  30
HETATM   30  C   UNK N   1       0.145  12.355  -1.694  0.00  0.00     0.000 C 
BRANCH  30  31
HETATM   31  C   UNK N   1       0.837  12.712  -0.382  0.00  0.00     0.006 C 
BRANCH  31  32
HETATM   32  C   UNK N   1      -0.129  12.842   0.799  0.00  0.00     0.060 C 
BRANCH  32  33
HETATM   33  C   UNK N   1      -0.885  11.575   1.042  0.00  0.00     0.043 A 
HETATM   34  C   UNK N   1      -0.571  10.566   1.929  0.00  0.00     0.131 A 
HETATM   35  N   UNK N   1      -1.509   9.604   1.765  0.00  0.00    -0.293 N 
HETATM   36  N   UNK N   1      -2.351  10.013   0.825  0.00  0.00    -0.020 NA
ATOM     37  HN  UNK N   1      -1.560   8.722   2.274  1.00  0.00     0.183 HD
HETATM   38  N   UNK N   1      -1.988  11.202   0.382  0.00  0.00    -0.277 N 
BRANCH  38  39
HETATM   39  C   UNK N   1      -2.686  11.955  -0.654  0.00  0.00     0.166 C 
BRANCH  39  40
HETATM   40  C   UNK N   1      -3.803  12.760  -0.025  0.00  0.00     0.141 C 
BRANCH  40  41
HETATM   41  N   UNK N   1      -4.618  11.849   0.726  0.00  0.00    -0.387 N 
HETATM   42  H   UNK N   1      -4.248  11.447   1.545  0.00  0.00     0.159 HD
BRANCH  41  43
HETATM   43  C   UNK N   1      -5.932  11.508   0.336  0.00  0.00     0.049 A 
HETATM   44  C   UNK N   1      -6.861  12.484  -0.079  0.00  0.00    -0.008 A 
HETATM   45  C   UNK N   1      -6.482  13.947  -0.081  0.00  0.00     0.043 C 
HETATM   46  C   UNK N   1      -8.157  12.070  -0.466  0.00  0.00     0.018 A 
HETATM   47  C   UNK N   1      -7.685  14.879  -0.124  0.00  0.00     0.005 C 
HETATM   48  C   UNK N   1      -8.628  14.442  -1.227  0.00  0.00     0.006 C 
HETATM   49  C   UNK N   1      -9.197  13.059  -0.920  0.00  0.00     0.057 C 
HETATM   50  N   UNK N   1      -8.489  10.750  -0.430  0.00  0.00    -0.358 N 
HETATM   51  C   UNK N   1      -7.607   9.796  -0.035  0.00  0.00     0.044 A 
ATOM     52  HN  UNK N   1      -9.429  10.470  -0.708  1.00  0.00     0.166 HD
HETATM   53  C   UNK N   1      -6.308  10.159   0.362  0.00  0.00     0.018 A 
HETATM   54  C   UNK N   1      -7.985   8.450  -0.033  0.00  0.00     0.030 A 
HETATM   55  C   UNK N   1      -5.399   9.164   0.755  0.00  0.00     0.016 A 
HETATM   56  C   UNK N   1      -5.780   7.821   0.753  0.00  0.00     0.001 A 
HETATM   57  C   UNK N   1      -7.073   7.464   0.359  0.00  0.00     0.002 A 
ENDBRANCH  41  43
ENDBRANCH  40  41
ENDBRANCH  39  40
ENDBRANCH  38  39
ENDBRANCH  32  33
ENDBRANCH  31  32
ENDBRANCH  30  31
ENDBRANCH   1  30
TORSDOF 14
