MODEL 1
REMARK VINA RESULT:      -4.4      0.000      0.000
REMARK  2 active torsions:
REMARK  status: ('A' for Active; 'I' for Inactive)
REMARK    1  A    between atoms: O_1  and  C_2 
REMARK    2  A    between atoms: C_4  and  C_2 
ROOT
HETATM    1  C   UNK N   1      33.674  17.797   7.319  0.00  0.00     0.218 A 
HETATM    2  C   UNK N   1      32.242  17.364   7.370  0.00  0.00     0.045 A 
HETATM    3  C   UNK N   1      31.943  17.123   5.923  0.00  0.00     0.029 A 
HETATM    4  C   UNK N   1      33.228  17.438   5.165  0.00  0.00     0.169 A 
HETATM    5  O   UNK N   1      34.248  17.841   6.047  0.00  0.00    -0.375 OA
ENDROOT
BRANCH   1   6
HETATM    6  C   UNK N   1      34.497  18.171   8.505  0.00  0.00     0.170 C 
HETATM    7  O   UNK N   1      35.251  19.127   8.452  0.00  0.00    -0.648 OA
BRANCH   6   8
HETATM    8  O   UNK N   1      34.405  17.450   9.637  0.00  0.00    -0.774 OA
HETATM    9  H   UNK N   1      34.488  16.517   9.606  0.00  0.00     0.167 HD
ENDBRANCH   6   8
ENDBRANCH   1   6
TORSDOF 2
ENDMDL
MODEL 2
REMARK VINA RESULT:      -4.4      2.281      3.816
REMARK  2 active torsions:
REMARK  status: ('A' for Active; 'I' for Inactive)
REMARK    1  A    between atoms: O_1  and  C_2 
REMARK    2  A    between atoms: C_4  and  C_2 
ROOT
HETATM    1  C   UNK N   1      34.761  17.159   9.286  0.00  0.00     0.218 A 
HETATM    2  C   UNK N   1      33.892  15.942   9.214  0.00  0.00     0.045 A 
HETATM    3  C   UNK N   1      34.250  15.235  10.484  0.00  0.00     0.029 A 
HETATM    4  C   UNK N   1      35.294  16.105  11.175  0.00  0.00     0.169 A 
HETATM    5  O   UNK N   1      35.573  17.257  10.417  0.00  0.00    -0.375 OA
ENDROOT
BRANCH   1   6
HETATM    6  C   UNK N   1      34.810  18.236   8.255  0.00  0.00     0.170 C 
HETATM    7  O   UNK N   1      34.374  18.034   7.135  0.00  0.00    -0.648 OA
BRANCH   6   8
HETATM    8  O   UNK N   1      35.339  19.434   8.565  0.00  0.00    -0.774 OA
HETATM    9  H   UNK N   1      34.987  20.214   8.184  0.00  0.00     0.167 HD
ENDBRANCH   6   8
ENDBRANCH   1   6
TORSDOF 2
ENDMDL
MODEL 3
REMARK VINA RESULT:      -4.1     13.200     14.381
REMARK  2 active torsions:
REMARK  status: ('A' for Active; 'I' for Inactive)
REMARK    1  A    between atoms: O_1  and  C_2 
REMARK    2  A    between atoms: C_4  and  C_2 
ROOT
HETATM    1  C   UNK N   1      20.740  19.857   2.218  0.00  0.00     0.218 A 
HETATM    2  C   UNK N   1      20.223  18.452   2.205  0.00  0.00     0.045 A 
HETATM    3  C   UNK N   1      20.505  18.010   3.607  0.00  0.00     0.029 A 
HETATM    4  C   UNK N   1      21.160  19.198   4.304  0.00  0.00     0.169 A 
HETATM    5  O   UNK N   1      21.282  20.292   3.428  0.00  0.00    -0.375 OA
ENDROOT
BRANCH   1   6
HETATM    6  C   UNK N   1      20.712  20.788   1.053  0.00  0.00     0.170 C 
HETATM    7  O   UNK N   1      20.803  21.991   1.227  0.00  0.00    -0.648 OA
BRANCH   6   8
HETATM    8  O   UNK N   1      20.586  20.297  -0.193  0.00  0.00    -0.774 OA
HETATM    9  H   UNK N   1      20.555  20.881  -0.925  0.00  0.00     0.167 HD
ENDBRANCH   6   8
ENDBRANCH   1   6
TORSDOF 2
ENDMDL
MODEL 4
REMARK VINA RESULT:      -4.0     12.186     12.914
REMARK  2 active torsions:
REMARK  status: ('A' for Active; 'I' for Inactive)
REMARK    1  A    between atoms: O_1  and  C_2 
REMARK    2  A    between atoms: C_4  and  C_2 
ROOT
HETATM    1  C   UNK N   1      22.591  12.557  11.195  0.00  0.00     0.218 A 
HETATM    2  C   UNK N   1      21.109  12.347  11.182  0.00  0.00     0.045 A 
HETATM    3  C   UNK N   1      20.705  13.096   9.950  0.00  0.00     0.029 A 
HETATM    4  C   UNK N   1      21.989  13.671   9.362  0.00  0.00     0.169 A 
HETATM    5  O   UNK N   1      23.104  13.322  10.146  0.00  0.00    -0.375 OA
ENDROOT
BRANCH   1   6
HETATM    6  C   UNK N   1      23.521  12.017  12.228  0.00  0.00     0.170 C 
HETATM    7  O   UNK N   1      23.082  11.541  13.261  0.00  0.00    -0.648 OA
BRANCH   6   8
HETATM    8  O   UNK N   1      24.850  12.055  12.017  0.00  0.00    -0.774 OA
HETATM    9  H   UNK N   1      25.206  11.733  11.213  0.00  0.00     0.167 HD
ENDBRANCH   6   8
ENDBRANCH   1   6
TORSDOF 2
ENDMDL
MODEL 5
REMARK VINA RESULT:      -3.9     10.553     11.828
REMARK  2 active torsions:
REMARK  status: ('A' for Active; 'I' for Inactive)
REMARK    1  A    between atoms: O_1  and  C_2 
REMARK    2  A    between atoms: C_4  and  C_2 
ROOT
HETATM    1  C   UNK N   1      23.442  20.225   2.952  0.00  0.00     0.218 A 
HETATM    2  C   UNK N   1      23.993  19.198   3.892  0.00  0.00     0.045 A 
HETATM    3  C   UNK N   1      25.468  19.393   3.727  0.00  0.00     0.029 A 
HETATM    4  C   UNK N   1      25.638  20.514   2.708  0.00  0.00     0.169 A 
HETATM    5  O   UNK N   1      24.389  20.987   2.266  0.00  0.00    -0.375 OA
ENDROOT
BRANCH   1   6
HETATM    6  C   UNK N   1      21.991  20.473   2.713  0.00  0.00     0.170 C 
HETATM    7  O   UNK N   1      21.228  19.538   2.544  0.00  0.00    -0.648 OA
BRANCH   6   8
HETATM    8  O   UNK N   1      21.525  21.735   2.684  0.00  0.00    -0.774 OA
HETATM    9  H   UNK N   1      21.948  22.403   3.187  0.00  0.00     0.167 HD
ENDBRANCH   6   8
ENDBRANCH   1   6
TORSDOF 2
ENDMDL
MODEL 6
REMARK VINA RESULT:      -3.9      2.148      3.260
REMARK  2 active torsions:
REMARK  status: ('A' for Active; 'I' for Inactive)
REMARK    1  A    between atoms: O_1  and  C_2 
REMARK    2  A    between atoms: C_4  and  C_2 
ROOT
HETATM    1  C   UNK N   1      34.817  16.843   9.653  0.00  0.00     0.218 A 
HETATM    2  C   UNK N   1      33.621  16.327   8.916  0.00  0.00     0.045 A 
HETATM    3  C   UNK N   1      33.356  17.437   7.947  0.00  0.00     0.029 A 
HETATM    4  C   UNK N   1      34.422  18.495   8.211  0.00  0.00     0.169 A 
HETATM    5  O   UNK N   1      35.283  18.095   9.250  0.00  0.00    -0.375 OA
ENDROOT
BRANCH   1   6
HETATM    6  C   UNK N   1      35.516  16.124  10.757  0.00  0.00     0.170 C 
HETATM    7  O   UNK N   1      34.879  15.473  11.567  0.00  0.00    -0.648 OA
BRANCH   6   8
HETATM    8  O   UNK N   1      36.857  16.194  10.857  0.00  0.00    -0.774 OA
HETATM    9  H   UNK N   1      37.373  15.417  10.778  0.00  0.00     0.167 HD
ENDBRANCH   6   8
ENDBRANCH   1   6
TORSDOF 2
ENDMDL
MODEL 7
REMARK VINA RESULT:      -3.8     12.439     13.359
REMARK  2 active torsions:
REMARK  status: ('A' for Active; 'I' for Inactive)
REMARK    1  A    between atoms: O_1  and  C_2 
REMARK    2  A    between atoms: C_4  and  C_2 
ROOT
HETATM    1  C   UNK N   1      21.715  13.395  10.063  0.00  0.00     0.218 A 
HETATM    2  C   UNK N   1      21.539  12.247  11.008  0.00  0.00     0.045 A 
HETATM    3  C   UNK N   1      22.930  11.700  11.086  0.00  0.00     0.029 A 
HETATM    4  C   UNK N   1      23.785  12.579  10.180  0.00  0.00     0.169 A 
HETATM    5  O   UNK N   1      23.011  13.591   9.583  0.00  0.00    -0.375 OA
ENDROOT
BRANCH   1   6
HETATM    6  C   UNK N   1      20.625  14.312   9.620  0.00  0.00     0.170 C 
HETATM    7  O   UNK N   1      19.458  14.016   9.811  0.00  0.00    -0.648 OA
BRANCH   6   8
HETATM    8  O   UNK N   1      20.933  15.469   9.006  0.00  0.00    -0.774 OA
HETATM    9  H   UNK N   1      21.731  15.913   9.216  0.00  0.00     0.167 HD
ENDBRANCH   6   8
ENDBRANCH   1   6
TORSDOF 2
ENDMDL
MODEL 8
REMARK VINA RESULT:      -3.8     10.803     11.957
REMARK  2 active torsions:
REMARK  status: ('A' for Active; 'I' for Inactive)
REMARK    1  A    between atoms: O_1  and  C_2 
REMARK    2  A    between atoms: C_4  and  C_2 
ROOT
HETATM    1  C   UNK N   1      22.943  20.219   3.081  0.00  0.00     0.218 A 
HETATM    2  C   UNK N   1      22.311  18.965   3.600  0.00  0.00     0.045 A 
HETATM    3  C   UNK N   1      20.853  19.266   3.435  0.00  0.00     0.029 A 
HETATM    4  C   UNK N   1      20.773  20.665   2.836  0.00  0.00     0.169 A 
HETATM    5  O   UNK N   1      22.058  21.204   2.638  0.00  0.00    -0.375 OA
ENDROOT
BRANCH   1   6
HETATM    6  C   UNK N   1      24.411  20.470   3.010  0.00  0.00     0.170 C 
HETATM    7  O   UNK N   1      24.934  20.761   1.948  0.00  0.00    -0.648 OA
BRANCH   6   8
HETATM    8  O   UNK N   1      25.160  20.374   4.124  0.00  0.00    -0.774 OA
HETATM    9  H   UNK N   1      24.781  20.559   4.961  0.00  0.00     0.167 HD
ENDBRANCH   6   8
ENDBRANCH   1   6
TORSDOF 2
ENDMDL
MODEL 9
REMARK VINA RESULT:      -3.7     10.764     11.673
REMARK  2 active torsions:
REMARK  status: ('A' for Active; 'I' for Inactive)
REMARK    1  A    between atoms: O_1  and  C_2 
REMARK    2  A    between atoms: C_4  and  C_2 
ROOT
HETATM    1  C   UNK N   1      31.110  22.305  -2.934  0.00  0.00     0.218 A 
HETATM    2  C   UNK N   1      30.196  22.535  -4.097  0.00  0.00     0.045 A 
HETATM    3  C   UNK N   1      29.021  23.189  -3.438  0.00  0.00     0.029 A 
HETATM    4  C   UNK N   1      29.361  23.278  -1.954  0.00  0.00     0.169 A 
HETATM    5  O   UNK N   1      30.632  22.732  -1.694  0.00  0.00    -0.375 OA
ENDROOT
BRANCH   1   6
HETATM    6  C   UNK N   1      32.455  21.667  -3.018  0.00  0.00     0.170 C 
HETATM    7  O   UNK N   1      33.093  21.714  -4.055  0.00  0.00    -0.648 OA
BRANCH   6   8
HETATM    8  O   UNK N   1      32.966  21.039  -1.942  0.00  0.00    -0.774 OA
HETATM    9  H   UNK N   1      32.589  21.178  -1.096  0.00  0.00     0.167 HD
ENDBRANCH   6   8
ENDBRANCH   1   6
TORSDOF 2
ENDMDL
