MODEL 1
REMARK VINA RESULT:      -5.4      0.000      0.000
REMARK  8 active torsions:
REMARK  status: ('A' for Active; 'I' for Inactive)
REMARK    1  A    between atoms: N_2  and  C_9 
REMARK    2  A    between atoms: N_2  and  C_11 
REMARK    3  A    between atoms: N_2  and  C_12 
REMARK    4  A    between atoms: N_3  and  C_8 
REMARK    5  A    between atoms: N_3  and  C_13 
REMARK    6  A    between atoms: C_6  and  C_7 
REMARK    7  A    between atoms: C_6  and  C_8 
REMARK    8  A    between atoms: C_7  and  C_9 
ROOT
HETATM    1 Cl   UNK N   1      30.168  30.113  -8.541  0.00  0.00    -0.084 Cl
HETATM    2  N   UNK N   1      27.067  29.704  -4.495  0.00  0.00    -0.365 N 
ATOM      3  HN  UNK N   1      27.459  30.589  -4.174  1.00  0.00     0.165 HD
HETATM    4  C   UNK N   1      26.003  27.298  -5.362  0.00  0.00     0.042 A 
HETATM    5  C   UNK N   1      26.993  27.936  -6.120  0.00  0.00     0.017 A 
HETATM    6  C   UNK N   1      25.552  27.885  -4.177  0.00  0.00     0.047 A 
HETATM    7  C   UNK N   1      27.517  29.163  -5.658  0.00  0.00     0.046 A 
HETATM    8  C   UNK N   1      27.444  27.398  -7.332  0.00  0.00     0.018 A 
HETATM    9  C   UNK N   1      26.107  29.091  -3.750  0.00  0.00     0.090 A 
HETATM   10  C   UNK N   1      28.489  29.829  -6.410  0.00  0.00     0.054 A 
HETATM   11  C   UNK N   1      28.418  28.071  -8.076  0.00  0.00     0.025 A 
HETATM   12  C   UNK N   1      28.940  29.283  -7.614  0.00  0.00     0.036 A 
ENDROOT
BRANCH   4  13
HETATM   13  N   UNK N   1      25.381  26.127  -5.837  0.00  0.00    -0.385 N 
HETATM   14  H   UNK N   1      24.502  26.156  -6.280  0.00  0.00     0.160 HD
BRANCH  13  15
HETATM   15  C   UNK N   1      26.084  24.892  -5.648  0.00  0.00     0.077 C 
HETATM   16  C   UNK N   1      25.991  23.936  -6.825  0.00  0.00     0.032 C 
BRANCH  15  17
HETATM   17  C   UNK N   1      26.014  24.376  -4.213  0.00  0.00     0.026 C 
BRANCH  17  18
HETATM   18  C   UNK N   1      27.352  24.266  -3.509  0.00  0.00     0.032 C 
BRANCH  18  19
HETATM   19  C   UNK N   1      28.488  24.990  -4.243  0.00  0.00     0.272 C 
BRANCH  19  20
HETATM   20  N   UNK N   1      29.652  24.116  -4.451  0.00  0.00     0.087 N 
BRANCH  20  21
HETATM   21  C   UNK N   1      29.675  23.658  -5.847  0.00  0.00     0.268 C 
HETATM   22  C   UNK N   1      29.304  22.191  -5.937  0.00  0.00     0.037 C 
ENDBRANCH  20  21
BRANCH  20  23
HETATM   23  C   UNK N   1      29.546  23.028  -3.466  0.00  0.00     0.268 C 
HETATM   24  C   UNK N   1      30.729  22.882  -2.516  0.00  0.00     0.037 C 
ENDBRANCH  20  23
ENDBRANCH  19  20
ENDBRANCH  18  19
ENDBRANCH  17  18
ENDBRANCH  15  17
ENDBRANCH  13  15
ENDBRANCH   4  13
TORSDOF 8
ENDMDL
MODEL 2
REMARK VINA RESULT:      -5.2     16.387     19.242
REMARK  8 active torsions:
REMARK  status: ('A' for Active; 'I' for Inactive)
REMARK    1  A    between atoms: N_2  and  C_9 
REMARK    2  A    between atoms: N_2  and  C_11 
REMARK    3  A    between atoms: N_2  and  C_12 
REMARK    4  A    between atoms: N_3  and  C_8 
REMARK    5  A    between atoms: N_3  and  C_13 
REMARK    6  A    between atoms: C_6  and  C_7 
REMARK    7  A    between atoms: C_6  and  C_8 
REMARK    8  A    between atoms: C_7  and  C_9 
ROOT
HETATM    1 Cl   UNK N   1      22.997  11.535  12.855  0.00  0.00    -0.084 Cl
HETATM    2  N   UNK N   1      24.476  13.505   8.374  0.00  0.00    -0.365 N 
ATOM      3  HN  UNK N   1      25.431  13.276   8.650  1.00  0.00     0.165 HD
HETATM    4  C   UNK N   1      21.885  14.130   7.620  0.00  0.00     0.042 A 
HETATM    5  C   UNK N   1      22.124  13.533   8.864  0.00  0.00     0.017 A 
HETATM    6  C   UNK N   1      22.955  14.399   6.764  0.00  0.00     0.047 A 
HETATM    7  C   UNK N   1      23.454  13.220   9.223  0.00  0.00     0.046 A 
HETATM    8  C   UNK N   1      21.074  13.213   9.735  0.00  0.00     0.018 A 
HETATM    9  C   UNK N   1      24.254  14.088   7.164  0.00  0.00     0.090 A 
HETATM   10  C   UNK N   1      23.714  12.602  10.449  0.00  0.00     0.054 A 
HETATM   11  C   UNK N   1      21.345  12.597  10.959  0.00  0.00     0.025 A 
HETATM   12  C   UNK N   1      22.662  12.294  11.316  0.00  0.00     0.036 A 
ENDROOT
BRANCH   4  13
HETATM   13  N   UNK N   1      20.568  14.364   7.180  0.00  0.00    -0.385 N 
HETATM   14  H   UNK N   1      19.958  13.621   6.966  0.00  0.00     0.160 HD
BRANCH  13  15
HETATM   15  C   UNK N   1      20.153  15.731   7.057  0.00  0.00     0.077 C 
HETATM   16  C   UNK N   1      19.995  16.455   8.384  0.00  0.00     0.032 C 
BRANCH  15  17
HETATM   17  C   UNK N   1      19.160  15.956   5.920  0.00  0.00     0.026 C 
BRANCH  17  18
HETATM   18  C   UNK N   1      19.598  15.410   4.575  0.00  0.00     0.032 C 
BRANCH  18  19
HETATM   19  C   UNK N   1      20.695  16.247   3.905  0.00  0.00     0.272 C 
BRANCH  19  20
HETATM   20  N   UNK N   1      20.452  17.689   4.050  0.00  0.00     0.087 N 
BRANCH  20  21
HETATM   21  C   UNK N   1      19.605  18.155   2.943  0.00  0.00     0.268 C 
HETATM   22  C   UNK N   1      20.239  17.825   1.606  0.00  0.00     0.037 C 
ENDBRANCH  20  21
BRANCH  20  23
HETATM   23  C   UNK N   1      21.771  18.338   4.107  0.00  0.00     0.268 C 
HETATM   24  C   UNK N   1      22.615  18.008   5.333  0.00  0.00     0.037 C 
ENDBRANCH  20  23
ENDBRANCH  19  20
ENDBRANCH  18  19
ENDBRANCH  17  18
ENDBRANCH  15  17
ENDBRANCH  13  15
ENDBRANCH   4  13
TORSDOF 8
ENDMDL
MODEL 3
REMARK VINA RESULT:      -5.2     12.026     15.911
REMARK  8 active torsions:
REMARK  status: ('A' for Active; 'I' for Inactive)
REMARK    1  A    between atoms: N_2  and  C_9 
REMARK    2  A    between atoms: N_2  and  C_11 
REMARK    3  A    between atoms: N_2  and  C_12 
REMARK    4  A    between atoms: N_3  and  C_8 
REMARK    5  A    between atoms: N_3  and  C_13 
REMARK    6  A    between atoms: C_6  and  C_7 
REMARK    7  A    between atoms: C_6  and  C_8 
REMARK    8  A    between atoms: C_7  and  C_9 
ROOT
HETATM    1 Cl   UNK N   1      33.541  13.710   3.098  0.00  0.00    -0.084 Cl
HETATM    2  N   UNK N   1      34.008  17.354   6.656  0.00  0.00    -0.365 N 
ATOM      3  HN  UNK N   1      34.945  17.518   6.288  1.00  0.00     0.165 HD
HETATM    4  C   UNK N   1      31.465  16.912   7.661  0.00  0.00     0.042 A 
HETATM    5  C   UNK N   1      31.938  16.136   6.595  0.00  0.00     0.017 A 
HETATM    6  C   UNK N   1      32.277  17.910   8.205  0.00  0.00     0.047 A 
HETATM    7  C   UNK N   1      33.237  16.383   6.098  0.00  0.00     0.046 A 
HETATM    8  C   UNK N   1      31.141  15.151   5.999  0.00  0.00     0.018 A 
HETATM    9  C   UNK N   1      33.558  18.112   7.693  0.00  0.00     0.090 A 
HETATM   10  C   UNK N   1      33.721  15.637   5.021  0.00  0.00     0.054 A 
HETATM   11  C   UNK N   1      31.634  14.408   4.923  0.00  0.00     0.025 A 
HETATM   12  C   UNK N   1      32.923  14.651   4.436  0.00  0.00     0.036 A 
ENDROOT
BRANCH   4  13
HETATM   13  N   UNK N   1      30.141  16.768   8.118  0.00  0.00    -0.385 N 
HETATM   14  H   UNK N   1      29.859  15.979   8.636  0.00  0.00     0.160 HD
BRANCH  13  15
HETATM   15  C   UNK N   1      29.221  17.820   7.798  0.00  0.00     0.077 C 
HETATM   16  C   UNK N   1      28.621  18.513   9.009  0.00  0.00     0.032 C 
BRANCH  15  17
HETATM   17  C   UNK N   1      28.370  17.517   6.567  0.00  0.00     0.026 C 
BRANCH  17  18
HETATM   18  C   UNK N   1      28.800  18.235   5.303  0.00  0.00     0.032 C 
BRANCH  18  19
HETATM   19  C   UNK N   1      27.981  19.499   5.011  0.00  0.00     0.272 C 
BRANCH  19  20
HETATM   20  N   UNK N   1      26.653  19.451   5.638  0.00  0.00     0.087 N 
BRANCH  20  21
HETATM   21  C   UNK N   1      25.619  19.512   4.596  0.00  0.00     0.268 C 
HETATM   22  C   UNK N   1      26.178  20.106   3.318  0.00  0.00     0.037 C 
ENDBRANCH  20  21
BRANCH  20  23
HETATM   23  C   UNK N   1      26.599  20.562   6.600  0.00  0.00     0.268 C 
HETATM   24  C   UNK N   1      27.556  21.717   6.327  0.00  0.00     0.037 C 
ENDBRANCH  20  23
ENDBRANCH  19  20
ENDBRANCH  18  19
ENDBRANCH  17  18
ENDBRANCH  15  17
ENDBRANCH  13  15
ENDBRANCH   4  13
TORSDOF 8
ENDMDL
MODEL 4
REMARK VINA RESULT:      -5.1     11.469     13.567
REMARK  8 active torsions:
REMARK  status: ('A' for Active; 'I' for Inactive)
REMARK    1  A    between atoms: N_2  and  C_9 
REMARK    2  A    between atoms: N_2  and  C_11 
REMARK    3  A    between atoms: N_2  and  C_12 
REMARK    4  A    between atoms: N_3  and  C_8 
REMARK    5  A    between atoms: N_3  and  C_13 
REMARK    6  A    between atoms: C_6  and  C_7 
REMARK    7  A    between atoms: C_6  and  C_8 
REMARK    8  A    between atoms: C_7  and  C_9 
ROOT
HETATM    1 Cl   UNK N   1      26.995  20.339   3.779  0.00  0.00    -0.084 Cl
HETATM    2  N   UNK N   1      22.115  20.777   2.314  0.00  0.00    -0.365 N 
ATOM      3  HN  UNK N   1      22.411  21.577   1.754  1.00  0.00     0.165 HD
HETATM    4  C   UNK N   1      21.304  18.607   3.833  0.00  0.00     0.042 A 
HETATM    5  C   UNK N   1      22.647  19.005   3.847  0.00  0.00     0.017 A 
HETATM    6  C   UNK N   1      20.384  19.302   3.045  0.00  0.00     0.047 A 
HETATM    7  C   UNK N   1      23.036  20.113   3.061  0.00  0.00     0.046 A 
HETATM    8  C   UNK N   1      23.607  18.312   4.595  0.00  0.00     0.018 A 
HETATM    9  C   UNK N   1      20.807  20.399   2.295  0.00  0.00     0.090 A 
HETATM   10  C   UNK N   1      24.374  20.514   3.041  0.00  0.00     0.054 A 
HETATM   11  C   UNK N   1      24.943  18.722   4.571  0.00  0.00     0.025 A 
HETATM   12  C   UNK N   1      25.324  19.822   3.796  0.00  0.00     0.036 A 
ENDROOT
BRANCH   4  13
HETATM   13  N   UNK N   1      20.895  17.449   4.521  0.00  0.00    -0.385 N 
HETATM   14  H   UNK N   1      21.080  17.328   5.480  0.00  0.00     0.160 HD
BRANCH  13  15
HETATM   15  C   UNK N   1      20.196  16.452   3.762  0.00  0.00     0.077 C 
HETATM   16  C   UNK N   1      19.185  15.653   4.567  0.00  0.00     0.032 C 
BRANCH  15  17
HETATM   17  C   UNK N   1      21.074  15.773   2.714  0.00  0.00     0.026 C 
BRANCH  17  18
HETATM   18  C   UNK N   1      22.230  14.968   3.275  0.00  0.00     0.032 C 
BRANCH  18  19
HETATM   19  C   UNK N   1      23.584  15.329   2.651  0.00  0.00     0.272 C 
BRANCH  19  20
HETATM   20  N   UNK N   1      24.215  14.173   1.999  0.00  0.00     0.087 N 
BRANCH  20  21
HETATM   21  C   UNK N   1      25.672  14.252   2.169  0.00  0.00     0.268 C 
HETATM   22  C   UNK N   1      26.104  15.678   2.448  0.00  0.00     0.037 C 
ENDBRANCH  20  21
BRANCH  20  23
HETATM   23  C   UNK N   1      23.775  14.187   0.595  0.00  0.00     0.268 C 
HETATM   24  C   UNK N   1      23.155  12.890   0.086  0.00  0.00     0.037 C 
ENDBRANCH  20  23
ENDBRANCH  19  20
ENDBRANCH  18  19
ENDBRANCH  17  18
ENDBRANCH  15  17
ENDBRANCH  13  15
ENDBRANCH   4  13
TORSDOF 8
ENDMDL
MODEL 5
REMARK VINA RESULT:      -5.1      2.898      4.656
REMARK  8 active torsions:
REMARK  status: ('A' for Active; 'I' for Inactive)
REMARK    1  A    between atoms: N_2  and  C_9 
REMARK    2  A    between atoms: N_2  and  C_11 
REMARK    3  A    between atoms: N_2  and  C_12 
REMARK    4  A    between atoms: N_3  and  C_8 
REMARK    5  A    between atoms: N_3  and  C_13 
REMARK    6  A    between atoms: C_6  and  C_7 
REMARK    7  A    between atoms: C_6  and  C_8 
REMARK    8  A    between atoms: C_7  and  C_9 
ROOT
HETATM    1 Cl   UNK N   1      25.544  28.052  -3.781  0.00  0.00    -0.084 Cl
HETATM    2  N   UNK N   1      25.744  26.060  -8.487  0.00  0.00    -0.365 N 
ATOM      3  HN  UNK N   1      25.525  26.995  -8.833  1.00  0.00     0.165 HD
HETATM    4  C   UNK N   1      26.336  23.521  -7.552  0.00  0.00     0.042 A 
HETATM    5  C   UNK N   1      26.140  24.569  -6.645  0.00  0.00     0.017 A 
HETATM    6  C   UNK N   1      26.241  23.765  -8.924  0.00  0.00     0.047 A 
HETATM    7  C   UNK N   1      25.843  25.856  -7.147  0.00  0.00     0.046 A 
HETATM    8  C   UNK N   1      26.264  24.373  -5.263  0.00  0.00     0.018 A 
HETATM    9  C   UNK N   1      25.931  25.047  -9.377  0.00  0.00     0.090 A 
HETATM   10  C   UNK N   1      25.666  26.922  -6.261  0.00  0.00     0.054 A 
HETATM   11  C   UNK N   1      26.083  25.445  -4.385  0.00  0.00     0.025 A 
HETATM   12  C   UNK N   1      25.783  26.716  -4.884  0.00  0.00     0.036 A 
ENDROOT
BRANCH   4  13
HETATM   13  N   UNK N   1      26.735  22.249  -7.099  0.00  0.00    -0.385 N 
HETATM   14  H   UNK N   1      26.116  21.660  -6.610  0.00  0.00     0.160 HD
BRANCH  13  15
HETATM   15  C   UNK N   1      28.082  21.847  -7.383  0.00  0.00     0.077 C 
HETATM   16  C   UNK N   1      28.194  20.546  -8.160  0.00  0.00     0.032 C 
BRANCH  15  17
HETATM   17  C   UNK N   1      29.054  22.168  -6.250  0.00  0.00     0.026 C 
BRANCH  17  18
HETATM   18  C   UNK N   1      30.434  21.561  -6.404  0.00  0.00     0.032 C 
BRANCH  18  19
HETATM   19  C   UNK N   1      30.971  20.931  -5.113  0.00  0.00     0.272 C 
BRANCH  19  20
HETATM   20  N   UNK N   1      31.752  21.889  -4.317  0.00  0.00     0.087 N 
BRANCH  20  21
HETATM   21  C   UNK N   1      33.181  21.571  -4.435  0.00  0.00     0.268 C 
HETATM   22  C   UNK N   1      33.668  20.822  -3.210  0.00  0.00     0.037 C 
ENDBRANCH  20  21
BRANCH  20  23
HETATM   23  C   UNK N   1      31.234  21.817  -2.941  0.00  0.00     0.268 C 
HETATM   24  C   UNK N   1      30.357  22.985  -2.506  0.00  0.00     0.037 C 
ENDBRANCH  20  23
ENDBRANCH  19  20
ENDBRANCH  18  19
ENDBRANCH  17  18
ENDBRANCH  15  17
ENDBRANCH  13  15
ENDBRANCH   4  13
TORSDOF 8
ENDMDL
MODEL 6
REMARK VINA RESULT:      -5.0     14.767     17.764
REMARK  8 active torsions:
REMARK  status: ('A' for Active; 'I' for Inactive)
REMARK    1  A    between atoms: N_2  and  C_9 
REMARK    2  A    between atoms: N_2  and  C_11 
REMARK    3  A    between atoms: N_2  and  C_12 
REMARK    4  A    between atoms: N_3  and  C_8 
REMARK    5  A    between atoms: N_3  and  C_13 
REMARK    6  A    between atoms: C_6  and  C_7 
REMARK    7  A    between atoms: C_6  and  C_8 
REMARK    8  A    between atoms: C_7  and  C_9 
ROOT
HETATM    1 Cl   UNK N   1      35.967  12.432   9.292  0.00  0.00    -0.084 Cl
HETATM    2  N   UNK N   1      34.827  17.314   8.285  0.00  0.00    -0.365 N 
ATOM      3  HN  UNK N   1      35.831  17.478   8.215  1.00  0.00     0.165 HD
HETATM    4  C   UNK N   1      32.098  16.876   8.478  0.00  0.00     0.042 A 
HETATM    5  C   UNK N   1      32.991  15.817   8.688  0.00  0.00     0.017 A 
HETATM    6  C   UNK N   1      32.590  18.145   8.164  0.00  0.00     0.047 A 
HETATM    7  C   UNK N   1      34.377  16.066   8.580  0.00  0.00     0.046 A 
HETATM    8  C   UNK N   1      32.536  14.522   8.968  0.00  0.00     0.018 A 
HETATM    9  C   UNK N   1      33.967  18.350   8.081  0.00  0.00     0.090 A 
HETATM   10  C   UNK N   1      35.286  15.020   8.762  0.00  0.00     0.054 A 
HETATM   11  C   UNK N   1      33.452  13.483   9.151  0.00  0.00     0.025 A 
HETATM   12  C   UNK N   1      34.824  13.733   9.049  0.00  0.00     0.036 A 
ENDROOT
BRANCH   4  13
HETATM   13  N   UNK N   1      30.708  16.649   8.474  0.00  0.00    -0.385 N 
HETATM   14  H   UNK N   1      30.335  15.747   8.597  0.00  0.00     0.160 HD
BRANCH  13  15
HETATM   15  C   UNK N   1      29.861  17.791   8.285  0.00  0.00     0.077 C 
HETATM   16  C   UNK N   1      29.467  18.494   9.572  0.00  0.00     0.032 C 
BRANCH  15  17
HETATM   17  C   UNK N   1      28.853  17.607   7.153  0.00  0.00     0.026 C 
BRANCH  17  18
HETATM   18  C   UNK N   1      29.432  17.736   5.758  0.00  0.00     0.032 C 
BRANCH  18  19
HETATM   19  C   UNK N   1      29.566  16.395   5.027  0.00  0.00     0.272 C 
BRANCH  19  20
HETATM   20  N   UNK N   1      30.892  16.234   4.412  0.00  0.00     0.087 N 
BRANCH  20  21
HETATM   21  C   UNK N   1      31.664  15.241   5.170  0.00  0.00     0.268 C 
HETATM   22  C   UNK N   1      30.823  14.014   5.461  0.00  0.00     0.037 C 
ENDBRANCH  20  21
BRANCH  20  23
HETATM   23  C   UNK N   1      31.507  17.570   4.378  0.00  0.00     0.268 C 
HETATM   24  C   UNK N   1      33.025  17.601   4.514  0.00  0.00     0.037 C 
ENDBRANCH  20  23
ENDBRANCH  19  20
ENDBRANCH  18  19
ENDBRANCH  17  18
ENDBRANCH  15  17
ENDBRANCH  13  15
ENDBRANCH   4  13
TORSDOF 8
ENDMDL
MODEL 7
REMARK VINA RESULT:      -5.0      3.960      5.613
REMARK  8 active torsions:
REMARK  status: ('A' for Active; 'I' for Inactive)
REMARK    1  A    between atoms: N_2  and  C_9 
REMARK    2  A    between atoms: N_2  and  C_11 
REMARK    3  A    between atoms: N_2  and  C_12 
REMARK    4  A    between atoms: N_3  and  C_8 
REMARK    5  A    between atoms: N_3  and  C_13 
REMARK    6  A    between atoms: C_6  and  C_7 
REMARK    7  A    between atoms: C_6  and  C_8 
REMARK    8  A    between atoms: C_7  and  C_9 
ROOT
HETATM    1 Cl   UNK N   1      25.783  21.247  -9.973  0.00  0.00    -0.084 Cl
HETATM    2  N   UNK N   1      25.390  23.994  -5.677  0.00  0.00    -0.365 N 
ATOM      3  HN  UNK N   1      24.397  24.086  -5.891  1.00  0.00     0.165 HD
HETATM    4  C   UNK N   1      28.087  23.749  -5.092  0.00  0.00     0.042 A 
HETATM    5  C   UNK N   1      27.569  23.163  -6.255  0.00  0.00     0.017 A 
HETATM    6  C   UNK N   1      27.236  24.446  -4.231  0.00  0.00     0.047 A 
HETATM    7  C   UNK N   1      26.190  23.299  -6.529  0.00  0.00     0.046 A 
HETATM    8  C   UNK N   1      28.382  22.425  -7.125  0.00  0.00     0.018 A 
HETATM    9  C   UNK N   1      25.884  24.568  -4.546  0.00  0.00     0.090 A 
HETATM   10  C   UNK N   1      25.648  22.704  -7.670  0.00  0.00     0.054 A 
HETATM   11  C   UNK N   1      27.830  21.835  -8.265  0.00  0.00     0.025 A 
HETATM   12  C   UNK N   1      26.466  21.976  -8.537  0.00  0.00     0.036 A 
ENDROOT
BRANCH   4  13
HETATM   13  N   UNK N   1      29.433  23.551  -4.730  0.00  0.00    -0.385 N 
HETATM   14  H   UNK N   1      30.050  23.042  -5.304  0.00  0.00     0.160 HD
BRANCH  13  15
HETATM   15  C   UNK N   1      29.866  24.123  -3.488  0.00  0.00     0.077 C 
HETATM   16  C   UNK N   1      30.670  25.403  -3.639  0.00  0.00     0.032 C 
BRANCH  15  17
HETATM   17  C   UNK N   1      30.251  23.074  -2.448  0.00  0.00     0.026 C 
BRANCH  17  18
HETATM   18  C   UNK N   1      30.433  21.672  -2.994  0.00  0.00     0.032 C 
BRANCH  18  19
HETATM   19  C   UNK N   1      31.884  21.348  -3.373  0.00  0.00     0.272 C 
BRANCH  19  20
HETATM   20  N   UNK N   1      31.969  20.219  -4.310  0.00  0.00     0.087 N 
BRANCH  20  21
HETATM   21  C   UNK N   1      33.380  19.913  -4.579  0.00  0.00     0.268 C 
HETATM   22  C   UNK N   1      34.284  20.649  -3.609  0.00  0.00     0.037 C 
ENDBRANCH  20  21
BRANCH  20  23
HETATM   23  C   UNK N   1      31.201  20.602  -5.505  0.00  0.00     0.268 C 
HETATM   24  C   UNK N   1      31.950  21.455  -6.523  0.00  0.00     0.037 C 
ENDBRANCH  20  23
ENDBRANCH  19  20
ENDBRANCH  18  19
ENDBRANCH  17  18
ENDBRANCH  15  17
ENDBRANCH  13  15
ENDBRANCH   4  13
TORSDOF 8
ENDMDL
MODEL 8
REMARK VINA RESULT:      -5.0     13.781     17.400
REMARK  8 active torsions:
REMARK  status: ('A' for Active; 'I' for Inactive)
REMARK    1  A    between atoms: N_2  and  C_9 
REMARK    2  A    between atoms: N_2  and  C_11 
REMARK    3  A    between atoms: N_2  and  C_12 
REMARK    4  A    between atoms: N_3  and  C_8 
REMARK    5  A    between atoms: N_3  and  C_13 
REMARK    6  A    between atoms: C_6  and  C_7 
REMARK    7  A    between atoms: C_6  and  C_8 
REMARK    8  A    between atoms: C_7  and  C_9 
ROOT
HETATM    1 Cl   UNK N   1      26.571  20.026   3.741  0.00  0.00    -0.084 Cl
HETATM    2  N   UNK N   1      27.846  18.907   8.566  0.00  0.00    -0.365 N 
ATOM      3  HN  UNK N   1      27.073  19.507   8.852  1.00  0.00     0.165 HD
HETATM    4  C   UNK N   1      29.950  17.279   7.794  0.00  0.00     0.042 A 
HETATM    5  C   UNK N   1      29.177  17.927   6.822  0.00  0.00     0.017 A 
HETATM    6  C   UNK N   1      29.649  17.451   9.147  0.00  0.00     0.047 A 
HETATM    7  C   UNK N   1      28.108  18.749   7.241  0.00  0.00     0.046 A 
HETATM    8  C   UNK N   1      29.424  17.750   5.454  0.00  0.00     0.018 A 
HETATM    9  C   UNK N   1      28.593  18.283   9.518  0.00  0.00     0.090 A 
HETATM   10  C   UNK N   1      27.308  19.387   6.289  0.00  0.00     0.054 A 
HETATM   11  C   UNK N   1      28.620  18.394   4.510  0.00  0.00     0.025 A 
HETATM   12  C   UNK N   1      27.566  19.211   4.927  0.00  0.00     0.036 A 
ENDROOT
BRANCH   4  13
HETATM   13  N   UNK N   1      30.958  16.371   7.417  0.00  0.00    -0.385 N 
HETATM   14  H   UNK N   1      30.761  15.588   6.853  0.00  0.00     0.160 HD
BRANCH  13  15
HETATM   15  C   UNK N   1      32.286  16.637   7.889  0.00  0.00     0.077 C 
HETATM   16  C   UNK N   1      33.171  17.359   6.887  0.00  0.00     0.032 C 
BRANCH  15  17
HETATM   17  C   UNK N   1      32.846  15.517   8.764  0.00  0.00     0.026 C 
BRANCH  17  18
HETATM   18  C   UNK N   1      34.281  15.715   9.209  0.00  0.00     0.032 C 
BRANCH  18  19
HETATM   19  C   UNK N   1      34.727  14.721  10.290  0.00  0.00     0.272 C 
BRANCH  19  20
HETATM   20  N   UNK N   1      36.167  14.820  10.567  0.00  0.00     0.087 N 
BRANCH  20  21
HETATM   21  C   UNK N   1      36.922  14.496   9.350  0.00  0.00     0.268 C 
HETATM   22  C   UNK N   1      38.300  13.967   9.697  0.00  0.00     0.037 C 
ENDBRANCH  20  21
BRANCH  20  23
HETATM   23  C   UNK N   1      36.442  13.921  11.699  0.00  0.00     0.268 C 
HETATM   24  C   UNK N   1      35.974  14.417  13.063  0.00  0.00     0.037 C 
ENDBRANCH  20  23
ENDBRANCH  19  20
ENDBRANCH  18  19
ENDBRANCH  17  18
ENDBRANCH  15  17
ENDBRANCH  13  15
ENDBRANCH   4  13
TORSDOF 8
ENDMDL
MODEL 9
REMARK VINA RESULT:      -5.0     22.655     26.744
REMARK  8 active torsions:
REMARK  status: ('A' for Active; 'I' for Inactive)
REMARK    1  A    between atoms: N_2  and  C_9 
REMARK    2  A    between atoms: N_2  and  C_11 
REMARK    3  A    between atoms: N_2  and  C_12 
REMARK    4  A    between atoms: N_3  and  C_8 
REMARK    5  A    between atoms: N_3  and  C_13 
REMARK    6  A    between atoms: C_6  and  C_7 
REMARK    7  A    between atoms: C_6  and  C_8 
REMARK    8  A    between atoms: C_7  and  C_9 
ROOT
HETATM    1 Cl   UNK N   1      34.584   8.825  10.404  0.00  0.00    -0.084 Cl
HETATM    2  N   UNK N   1      37.081   8.253  14.829  0.00  0.00    -0.365 N 
ATOM      3  HN  UNK N   1      37.684   7.591  14.342  1.00  0.00     0.165 HD
HETATM    4  C   UNK N   1      35.446  10.050  16.160  0.00  0.00     0.042 A 
HETATM    5  C   UNK N   1      35.215   9.766  14.808  0.00  0.00     0.017 A 
HETATM    6  C   UNK N   1      36.506   9.431  16.826  0.00  0.00     0.047 A 
HETATM    7  C   UNK N   1      36.065   8.849  14.151  0.00  0.00     0.046 A 
HETATM    8  C   UNK N   1      34.186  10.394  14.095  0.00  0.00     0.018 A 
HETATM    9  C   UNK N   1      37.313   8.521  16.144  0.00  0.00     0.090 A 
HETATM   10  C   UNK N   1      35.868   8.568  12.797  0.00  0.00     0.054 A 
HETATM   11  C   UNK N   1      33.995  10.105  12.741  0.00  0.00     0.025 A 
HETATM   12  C   UNK N   1      34.835   9.193  12.095  0.00  0.00     0.036 A 
ENDROOT
BRANCH   4  13
HETATM   13  N   UNK N   1      34.688  11.033  16.824  0.00  0.00    -0.385 N 
HETATM   14  H   UNK N   1      33.731  10.902  17.015  0.00  0.00     0.160 HD
BRANCH  13  15
HETATM   15  C   UNK N   1      35.370  12.234  17.210  0.00  0.00     0.077 C 
HETATM   16  C   UNK N   1      35.207  12.599  18.676  0.00  0.00     0.032 C 
BRANCH  15  17
HETATM   17  C   UNK N   1      35.346  13.311  16.128  0.00  0.00     0.026 C 
BRANCH  17  18
HETATM   18  C   UNK N   1      36.630  13.443  15.333  0.00  0.00     0.032 C 
BRANCH  18  19
HETATM   19  C   UNK N   1      36.448  14.179  13.999  0.00  0.00     0.272 C 
BRANCH  19  20
HETATM   20  N   UNK N   1      36.200  13.250  12.887  0.00  0.00     0.087 N 
BRANCH  20  21
HETATM   21  C   UNK N   1      37.206  12.179  12.913  0.00  0.00     0.268 C 
HETATM   22  C   UNK N   1      37.637  11.813  11.506  0.00  0.00     0.037 C 
ENDBRANCH  20  21
BRANCH  20  23
HETATM   23  C   UNK N   1      36.212  14.052  11.654  0.00  0.00     0.268 C 
HETATM   24  C   UNK N   1      35.768  15.503  11.808  0.00  0.00     0.037 C 
ENDBRANCH  20  23
ENDBRANCH  19  20
ENDBRANCH  18  19
ENDBRANCH  17  18
ENDBRANCH  15  17
ENDBRANCH  13  15
ENDBRANCH   4  13
TORSDOF 8
ENDMDL
