MODEL 1
REMARK VINA RESULT:      -6.9      0.000      0.000
REMARK  6 active torsions:
REMARK  status: ('A' for Active; 'I' for Inactive)
REMARK    1  A    between atoms: C_6  and  N_21 
REMARK    2  A    between atoms: C_15  and  O_20 
REMARK    3  A    between atoms: N_21  and  C_22 
REMARK    4  A    between atoms: C_22  and  C_23 
REMARK    5  A    between atoms: C_23  and  C_24 
REMARK    6  A    between atoms: C_24  and  N_25 
ROOT
HETATM    1  C   UNK N   1      26.045  22.383 -10.022  0.00  0.00     0.052 C 
HETATM    2  C   UNK N   1      26.482  22.836  -8.673  0.00  0.00    -0.019 A 
HETATM    3  C   UNK N   1      25.811  23.879  -8.015  0.00  0.00     0.098 A 
HETATM    4  N   UNK N   1      26.208  24.283  -6.768  0.00  0.00    -0.351 N 
ATOM      5  HN  UNK N   1      25.701  25.038  -6.306  1.00  0.00     0.166 HD
HETATM    6  C   UNK N   1      27.268  23.700  -6.125  0.00  0.00     0.114 A 
HETATM    7  C   UNK N   1      27.956  22.661  -6.765  0.00  0.00     0.048 A 
HETATM    8  C   UNK N   1      27.557  22.241  -8.014  0.00  0.00     0.055 A 
HETATM    9  N   UNK N   1      28.320  21.222  -8.464  0.00  0.00    -0.354 N 
HETATM   10  C   UNK N   1      29.217  20.992  -7.480  0.00  0.00     0.044 A 
HETATM   11  C   UNK N   1      29.040  21.856  -6.413  0.00  0.00     0.018 A 
HETATM   12  C   UNK N   1      29.886  21.776  -5.286  0.00  0.00    -0.012 A 
HETATM   13  C   UNK N   1      29.769  22.626  -4.184  0.00  0.00     0.016 A 
HETATM   14  C   UNK N   1      30.628  22.507  -3.091  0.00  0.00     0.037 A 
HETATM   15  C   UNK N   1      31.623  21.529  -3.088  0.00  0.00     0.066 A 
HETATM   16  C   UNK N   1      31.762  20.668  -4.181  0.00  0.00     0.048 A 
HETATM   17  C   UNK N   1      30.905  20.782  -5.282  0.00  0.00    -0.022 A 
HETATM   18  C   UNK N   1      31.055  19.913  -6.379  0.00  0.00     0.014 A 
HETATM   19  C   UNK N   1      30.208  20.016  -7.493  0.00  0.00     0.031 A 
HETATM   20  H   UNK N   1      28.239  20.748  -9.324  0.00  0.00     0.166 HD
ENDROOT
BRANCH   6  21
HETATM   21  N   UNK N   1      27.646  24.114  -4.835  0.00  0.00    -0.376 N 
HETATM   22  H   UNK N   1      28.582  23.965  -4.570  0.00  0.00     0.161 HD
BRANCH  21  23
HETATM   23  C   UNK N   1      26.783  24.734  -3.874  0.00  0.00     0.123 C 
BRANCH  23  24
HETATM   24  C   UNK N   1      27.160  26.201  -3.862  0.00  0.00     0.050 C 
BRANCH  24  25
HETATM   25  C   UNK N   1      25.997  27.093  -3.485  0.00  0.00     0.273 C 
BRANCH  25  26
HETATM   26  N   UNK N   1      25.651  27.942  -4.617  0.00  0.00     0.080 N 
HETATM   27  C   UNK N   1      26.877  28.203  -5.345  0.00  0.00     0.309 C 
HETATM   28  C   UNK N   1      24.773  27.204  -5.511  0.00  0.00     0.309 C 
ENDBRANCH  25  26
ENDBRANCH  24  25
ENDBRANCH  23  24
ENDBRANCH  21  23
ENDBRANCH   6  21
BRANCH  15  29
HETATM   29  O   UNK N   1      32.445  21.416  -2.033  0.00  0.00    -0.361 OA
HETATM   30  H   UNK N   1      32.099  21.186  -1.192  0.00  0.00     0.217 HD
ENDBRANCH  15  29
TORSDOF 6
ENDMDL
MODEL 2
REMARK VINA RESULT:      -6.6      2.072      5.362
REMARK  6 active torsions:
REMARK  status: ('A' for Active; 'I' for Inactive)
REMARK    1  A    between atoms: C_6  and  N_21 
REMARK    2  A    between atoms: C_15  and  O_20 
REMARK    3  A    between atoms: N_21  and  C_22 
REMARK    4  A    between atoms: C_22  and  C_23 
REMARK    5  A    between atoms: C_23  and  C_24 
REMARK    6  A    between atoms: C_24  and  N_25 
ROOT
HETATM    1  C   UNK N   1      24.699  27.010  -5.547  0.00  0.00     0.052 C 
HETATM    2  C   UNK N   1      25.857  26.129  -5.231  0.00  0.00    -0.019 A 
HETATM    3  C   UNK N   1      26.649  26.365  -4.096  0.00  0.00     0.098 A 
HETATM    4  N   UNK N   1      27.704  25.544  -3.802  0.00  0.00    -0.351 N 
ATOM      5  HN  UNK N   1      28.261  25.731  -2.968  1.00  0.00     0.166 HD
HETATM    6  C   UNK N   1      28.033  24.479  -4.599  0.00  0.00     0.114 A 
HETATM    7  C   UNK N   1      27.260  24.229  -5.740  0.00  0.00     0.048 A 
HETATM    8  C   UNK N   1      26.191  25.042  -6.037  0.00  0.00     0.055 A 
HETATM    9  N   UNK N   1      25.553  24.638  -7.157  0.00  0.00    -0.354 N 
HETATM   10  C   UNK N   1      26.233  23.547  -7.575  0.00  0.00     0.044 A 
HETATM   11  C   UNK N   1      27.297  23.255  -6.740  0.00  0.00     0.018 A 
HETATM   12  C   UNK N   1      28.133  22.151  -7.013  0.00  0.00    -0.012 A 
HETATM   13  C   UNK N   1      29.231  21.812  -6.218  0.00  0.00     0.016 A 
HETATM   14  C   UNK N   1      30.027  20.709  -6.528  0.00  0.00     0.037 A 
HETATM   15  C   UNK N   1      29.733  19.926  -7.644  0.00  0.00     0.066 A 
HETATM   16  C   UNK N   1      28.641  20.247  -8.457  0.00  0.00     0.048 A 
HETATM   17  C   UNK N   1      27.838  21.353  -8.154  0.00  0.00    -0.022 A 
HETATM   18  C   UNK N   1      26.744  21.671  -8.980  0.00  0.00     0.014 A 
HETATM   19  C   UNK N   1      25.931  22.779  -8.695  0.00  0.00     0.031 A 
HETATM   20  H   UNK N   1      24.763  25.049  -7.578  0.00  0.00     0.166 HD
ENDROOT
BRANCH   6  21
HETATM   21  N   UNK N   1      29.107  23.634  -4.267  0.00  0.00    -0.376 N 
HETATM   22  H   UNK N   1      29.539  23.144  -5.004  0.00  0.00     0.161 HD
BRANCH  21  23
HETATM   23  C   UNK N   1      29.626  23.428  -2.948  0.00  0.00     0.123 C 
BRANCH  23  24
HETATM   24  C   UNK N   1      31.106  23.153  -3.120  0.00  0.00     0.050 C 
BRANCH  24  25
HETATM   25  C   UNK N   1      31.450  21.695  -2.914  0.00  0.00     0.273 C 
BRANCH  25  26
HETATM   26  N   UNK N   1      32.462  21.294  -3.882  0.00  0.00     0.080 N 
HETATM   27  C   UNK N   1      32.862  22.489  -4.600  0.00  0.00     0.309 C 
HETATM   28  C   UNK N   1      33.635  20.813  -3.169  0.00  0.00     0.309 C 
ENDBRANCH  25  26
ENDBRANCH  24  25
ENDBRANCH  23  24
ENDBRANCH  21  23
ENDBRANCH   6  21
BRANCH  15  29
HETATM   29  O   UNK N   1      30.500  18.864  -7.936  0.00  0.00    -0.361 OA
HETATM   30  H   UNK N   1      31.280  18.975  -8.443  0.00  0.00     0.217 HD
ENDBRANCH  15  29
TORSDOF 6
ENDMDL
MODEL 3
REMARK VINA RESULT:      -6.6      2.479      4.867
REMARK  6 active torsions:
REMARK  status: ('A' for Active; 'I' for Inactive)
REMARK    1  A    between atoms: C_6  and  N_21 
REMARK    2  A    between atoms: C_15  and  O_20 
REMARK    3  A    between atoms: N_21  and  C_22 
REMARK    4  A    between atoms: C_22  and  C_23 
REMARK    5  A    between atoms: C_23  and  C_24 
REMARK    6  A    between atoms: C_24  and  N_25 
ROOT
HETATM    1  C   UNK N   1      32.732  21.297  -2.791  0.00  0.00     0.052 C 
HETATM    2  C   UNK N   1      31.495  21.976  -3.263  0.00  0.00    -0.019 A 
HETATM    3  C   UNK N   1      30.928  23.028  -2.525  0.00  0.00     0.098 A 
HETATM    4  N   UNK N   1      29.798  23.660  -2.971  0.00  0.00    -0.351 N 
ATOM      5  HN  UNK N   1      29.408  24.426  -2.421  1.00  0.00     0.166 HD
HETATM    6  C   UNK N   1      29.177  23.290  -4.135  0.00  0.00     0.114 A 
HETATM    7  C   UNK N   1      29.722  22.240  -4.884  0.00  0.00     0.048 A 
HETATM    8  C   UNK N   1      30.863  21.606  -4.450  0.00  0.00     0.055 A 
HETATM    9  N   UNK N   1      31.253  20.637  -5.306  0.00  0.00    -0.354 N 
HETATM   10  C   UNK N   1      30.339  20.660  -6.302  0.00  0.00     0.044 A 
HETATM   11  C   UNK N   1      29.371  21.625  -6.088  0.00  0.00     0.018 A 
HETATM   12  C   UNK N   1      28.324  21.800  -7.018  0.00  0.00    -0.012 A 
HETATM   13  C   UNK N   1      27.310  22.747  -6.854  0.00  0.00     0.016 A 
HETATM   14  C   UNK N   1      26.296  22.884  -7.802  0.00  0.00     0.037 A 
HETATM   15  C   UNK N   1      26.285  22.071  -8.936  0.00  0.00     0.066 A 
HETATM   16  C   UNK N   1      27.288  21.115  -9.121  0.00  0.00     0.048 A 
HETATM   17  C   UNK N   1      28.307  20.969  -8.173  0.00  0.00    -0.022 A 
HETATM   18  C   UNK N   1      29.311  20.001  -8.367  0.00  0.00     0.014 A 
HETATM   19  C   UNK N   1      30.338  19.838  -7.424  0.00  0.00     0.031 A 
HETATM   20  H   UNK N   1      32.033  20.042  -5.223  0.00  0.00     0.166 HD
ENDROOT
BRANCH   6  21
HETATM   21  N   UNK N   1      28.030  23.967  -4.587  0.00  0.00    -0.376 N 
HETATM   22  H   UNK N   1      28.001  24.219  -5.538  0.00  0.00     0.161 HD
BRANCH  21  23
HETATM   23  C   UNK N   1      26.900  24.318  -3.780  0.00  0.00     0.123 C 
BRANCH  23  24
HETATM   24  C   UNK N   1      26.940  25.826  -3.641  0.00  0.00     0.050 C 
BRANCH  24  25
HETATM   25  C   UNK N   1      27.115  26.523  -4.972  0.00  0.00     0.273 C 
BRANCH  25  26
HETATM   26  N   UNK N   1      26.106  27.565  -5.110  0.00  0.00     0.080 N 
HETATM   27  C   UNK N   1      24.942  26.953  -5.720  0.00  0.00     0.309 C 
HETATM   28  C   UNK N   1      25.707  28.016  -3.786  0.00  0.00     0.309 C 
ENDBRANCH  25  26
ENDBRANCH  24  25
ENDBRANCH  23  24
ENDBRANCH  21  23
ENDBRANCH   6  21
BRANCH  15  29
HETATM   29  O   UNK N   1      25.310  22.210  -9.847  0.00  0.00    -0.361 OA
HETATM   30  H   UNK N   1      24.519  22.660  -9.622  0.00  0.00     0.217 HD
ENDBRANCH  15  29
TORSDOF 6
ENDMDL
MODEL 4
REMARK VINA RESULT:      -6.5     12.069     14.331
REMARK  6 active torsions:
REMARK  status: ('A' for Active; 'I' for Inactive)
REMARK    1  A    between atoms: C_6  and  N_21 
REMARK    2  A    between atoms: C_15  and  O_20 
REMARK    3  A    between atoms: N_21  and  C_22 
REMARK    4  A    between atoms: C_22  and  C_23 
REMARK    5  A    between atoms: C_23  and  C_24 
REMARK    6  A    between atoms: C_24  and  N_25 
ROOT
HETATM    1  C   UNK N   1      30.172  17.555   5.103  0.00  0.00     0.052 C 
HETATM    2  C   UNK N   1      28.739  17.203   5.301  0.00  0.00    -0.019 A 
HETATM    3  C   UNK N   1      28.375  16.089   6.074  0.00  0.00     0.098 A 
HETATM    4  N   UNK N   1      27.055  15.778   6.265  0.00  0.00    -0.351 N 
ATOM      5  HN  UNK N   1      26.814  14.968   6.837  1.00  0.00     0.166 HD
HETATM    6  C   UNK N   1      26.050  16.524   5.708  0.00  0.00     0.114 A 
HETATM    7  C   UNK N   1      26.391  17.636   4.928  0.00  0.00     0.048 A 
HETATM    8  C   UNK N   1      27.714  17.963   4.739  0.00  0.00     0.055 A 
HETATM    9  N   UNK N   1      27.850  19.072   3.981  0.00  0.00    -0.354 N 
HETATM   10  C   UNK N   1      26.588  19.453   3.685  0.00  0.00     0.044 A 
HETATM   11  C   UNK N   1      25.651  18.599   4.239  0.00  0.00     0.018 A 
HETATM   12  C   UNK N   1      24.273  18.828   4.037  0.00  0.00    -0.012 A 
HETATM   13  C   UNK N   1      23.278  17.996   4.558  0.00  0.00     0.016 A 
HETATM   14  C   UNK N   1      21.928  18.265   4.333  0.00  0.00     0.037 A 
HETATM   15  C   UNK N   1      21.553  19.378   3.580  0.00  0.00     0.066 A 
HETATM   16  C   UNK N   1      22.530  20.223   3.046  0.00  0.00     0.048 A 
HETATM   17  C   UNK N   1      23.887  19.959   3.265  0.00  0.00    -0.022 A 
HETATM   18  C   UNK N   1      24.864  20.814   2.720  0.00  0.00     0.014 A 
HETATM   19  C   UNK N   1      26.229  20.563   2.926  0.00  0.00     0.031 A 
HETATM   20  H   UNK N   1      28.689  19.508   3.703  0.00  0.00     0.166 HD
ENDROOT
BRANCH   6  21
HETATM   21  N   UNK N   1      24.700  16.200   5.935  0.00  0.00    -0.376 N 
HETATM   22  H   UNK N   1      24.023  16.825   5.588  0.00  0.00     0.161 HD
BRANCH  21  23
HETATM   23  C   UNK N   1      24.229  15.038   6.628  0.00  0.00     0.123 C 
BRANCH  23  24
HETATM   24  C   UNK N   1      22.750  15.264   6.863  0.00  0.00     0.050 C 
BRANCH  24  25
HETATM   25  C   UNK N   1      22.155  14.250   7.815  0.00  0.00     0.273 C 
BRANCH  25  26
HETATM   26  N   UNK N   1      20.824  14.684   8.216  0.00  0.00     0.080 N 
HETATM   27  C   UNK N   1      20.622  14.236   9.580  0.00  0.00     0.309 C 
HETATM   28  C   UNK N   1      20.785  16.137   8.233  0.00  0.00     0.309 C 
ENDBRANCH  25  26
ENDBRANCH  24  25
ENDBRANCH  23  24
ENDBRANCH  21  23
ENDBRANCH   6  21
BRANCH  15  29
HETATM   29  O   UNK N   1      20.253  19.634   3.369  0.00  0.00    -0.361 OA
HETATM   30  H   UNK N   1      19.999  20.280   2.740  0.00  0.00     0.217 HD
ENDBRANCH  15  29
TORSDOF 6
ENDMDL
MODEL 5
REMARK VINA RESULT:      -6.5      1.447      1.860
REMARK  6 active torsions:
REMARK  status: ('A' for Active; 'I' for Inactive)
REMARK    1  A    between atoms: C_6  and  N_21 
REMARK    2  A    between atoms: C_15  and  O_20 
REMARK    3  A    between atoms: N_21  and  C_22 
REMARK    4  A    between atoms: C_22  and  C_23 
REMARK    5  A    between atoms: C_23  and  C_24 
REMARK    6  A    between atoms: C_24  and  N_25 
ROOT
HETATM    1  C   UNK N   1      28.185  20.548 -11.149  0.00  0.00     0.052 C 
HETATM    2  C   UNK N   1      27.934  21.404  -9.958  0.00  0.00    -0.019 A 
HETATM    3  C   UNK N   1      26.939  22.395  -9.983  0.00  0.00     0.098 A 
HETATM    4  N   UNK N   1      26.702  23.171  -8.880  0.00  0.00    -0.351 N 
ATOM      5  HN  UNK N   1      25.969  23.879  -8.920  1.00  0.00     0.166 HD
HETATM    6  C   UNK N   1      27.423  23.021  -7.725  0.00  0.00     0.114 A 
HETATM    7  C   UNK N   1      28.425  22.044  -7.679  0.00  0.00     0.048 A 
HETATM    8  C   UNK N   1      28.663  21.252  -8.779  0.00  0.00     0.055 A 
HETATM    9  N   UNK N   1      29.646  20.355  -8.545  0.00  0.00    -0.354 N 
HETATM   10  C   UNK N   1      30.036  20.585  -7.272  0.00  0.00     0.044 A 
HETATM   11  C   UNK N   1      29.320  21.619  -6.695  0.00  0.00     0.018 A 
HETATM   12  C   UNK N   1      29.586  22.013  -5.366  0.00  0.00    -0.012 A 
HETATM   13  C   UNK N   1      28.908  23.057  -4.731  0.00  0.00     0.016 A 
HETATM   14  C   UNK N   1      29.205  23.409  -3.414  0.00  0.00     0.037 A 
HETATM   15  C   UNK N   1      30.190  22.715  -2.711  0.00  0.00     0.066 A 
HETATM   16  C   UNK N   1      30.885  21.669  -3.326  0.00  0.00     0.048 A 
HETATM   17  C   UNK N   1      30.594  21.311  -4.648  0.00  0.00    -0.022 A 
HETATM   18  C   UNK N   1      31.300  20.259  -5.259  0.00  0.00     0.014 A 
HETATM   19  C   UNK N   1      31.025  19.889  -6.585  0.00  0.00     0.031 A 
HETATM   20  H   UNK N   1      30.002  19.680  -9.168  0.00  0.00     0.166 HD
ENDROOT
BRANCH   6  21
HETATM   21  N   UNK N   1      27.149  23.813  -6.596  0.00  0.00    -0.376 N 
HETATM   22  H   UNK N   1      27.857  23.887  -5.915  0.00  0.00     0.161 HD
BRANCH  21  23
HETATM   23  C   UNK N   1      25.928  24.521  -6.353  0.00  0.00     0.123 C 
BRANCH  23  24
HETATM   24  C   UNK N   1      26.317  25.780  -5.607  0.00  0.00     0.050 C 
BRANCH  24  25
HETATM   25  C   UNK N   1      26.180  25.628  -4.108  0.00  0.00     0.273 C 
BRANCH  25  26
HETATM   26  N   UNK N   1      26.752  26.794  -3.448  0.00  0.00     0.080 N 
HETATM   27  C   UNK N   1      27.919  27.188  -4.213  0.00  0.00     0.309 C 
HETATM   28  C   UNK N   1      25.803  27.894  -3.523  0.00  0.00     0.309 C 
ENDBRANCH  25  26
ENDBRANCH  24  25
ENDBRANCH  23  24
ENDBRANCH  21  23
ENDBRANCH   6  21
BRANCH  15  29
HETATM   29  O   UNK N   1      30.470  23.055  -1.443  0.00  0.00    -0.361 OA
HETATM   30  H   UNK N   1      30.373  22.424  -0.757  0.00  0.00     0.217 HD
ENDBRANCH  15  29
TORSDOF 6
ENDMDL
MODEL 6
REMARK VINA RESULT:      -6.4     11.701     14.979
REMARK  6 active torsions:
REMARK  status: ('A' for Active; 'I' for Inactive)
REMARK    1  A    between atoms: C_6  and  N_21 
REMARK    2  A    between atoms: C_15  and  O_20 
REMARK    3  A    between atoms: N_21  and  C_22 
REMARK    4  A    between atoms: C_22  and  C_23 
REMARK    5  A    between atoms: C_23  and  C_24 
REMARK    6  A    between atoms: C_24  and  N_25 
ROOT
HETATM    1  C   UNK N   1      33.535  14.602   8.975  0.00  0.00     0.052 C 
HETATM    2  C   UNK N   1      32.886  15.230   7.793  0.00  0.00    -0.019 A 
HETATM    3  C   UNK N   1      33.359  14.975   6.495  0.00  0.00     0.098 A 
HETATM    4  N   UNK N   1      32.749  15.544   5.409  0.00  0.00    -0.351 N 
ATOM      5  HN  UNK N   1      33.106  15.339   4.476  1.00  0.00     0.166 HD
HETATM    6  C   UNK N   1      31.673  16.382   5.543  0.00  0.00     0.114 A 
HETATM    7  C   UNK N   1      31.188  16.654   6.828  0.00  0.00     0.048 A 
HETATM    8  C   UNK N   1      31.788  16.079   7.925  0.00  0.00     0.055 A 
HETATM    9  N   UNK N   1      31.176  16.438   9.074  0.00  0.00    -0.354 N 
HETATM   10  C   UNK N   1      30.169  17.256   8.695  0.00  0.00     0.044 A 
HETATM   11  C   UNK N   1      30.136  17.427   7.323  0.00  0.00     0.018 A 
HETATM   12  C   UNK N   1      29.155  18.253   6.733  0.00  0.00    -0.012 A 
HETATM   13  C   UNK N   1      29.076  18.478   5.356  0.00  0.00     0.016 A 
HETATM   14  C   UNK N   1      28.087  19.302   4.819  0.00  0.00     0.037 A 
HETATM   15  C   UNK N   1      27.157  19.916   5.658  0.00  0.00     0.066 A 
HETATM   16  C   UNK N   1      27.217  19.709   7.040  0.00  0.00     0.048 A 
HETATM   17  C   UNK N   1      28.208  18.885   7.587  0.00  0.00    -0.022 A 
HETATM   18  C   UNK N   1      28.263  18.685   8.979  0.00  0.00     0.014 A 
HETATM   19  C   UNK N   1      29.252  17.866   9.545  0.00  0.00     0.031 A 
HETATM   20  H   UNK N   1      31.412  16.163   9.990  0.00  0.00     0.166 HD
ENDROOT
BRANCH   6  21
HETATM   21  N   UNK N   1      31.047  16.938   4.413  0.00  0.00    -0.376 N 
HETATM   22  H   UNK N   1      30.516  17.756   4.549  0.00  0.00     0.161 HD
BRANCH  21  23
HETATM   23  C   UNK N   1      31.118  16.415   3.081  0.00  0.00     0.123 C 
BRANCH  23  24
HETATM   24  C   UNK N   1      29.692  16.089   2.685  0.00  0.00     0.050 C 
BRANCH  24  25
HETATM   25  C   UNK N   1      29.314  14.662   3.016  0.00  0.00     0.273 C 
BRANCH  25  26
HETATM   26  N   UNK N   1      27.995  14.642   3.636  0.00  0.00     0.080 N 
HETATM   27  C   UNK N   1      28.193  14.793   5.064  0.00  0.00     0.309 C 
HETATM   28  C   UNK N   1      27.242  15.801   3.185  0.00  0.00     0.309 C 
ENDBRANCH  25  26
ENDBRANCH  24  25
ENDBRANCH  23  24
ENDBRANCH  21  23
ENDBRANCH   6  21
BRANCH  15  29
HETATM   29  O   UNK N   1      26.205  20.705   5.137  0.00  0.00    -0.361 OA
HETATM   30  H   UNK N   1      25.302  20.473   5.230  0.00  0.00     0.217 HD
ENDBRANCH  15  29
TORSDOF 6
ENDMDL
MODEL 7
REMARK VINA RESULT:      -6.4     12.852     15.034
REMARK  6 active torsions:
REMARK  status: ('A' for Active; 'I' for Inactive)
REMARK    1  A    between atoms: C_6  and  N_21 
REMARK    2  A    between atoms: C_15  and  O_20 
REMARK    3  A    between atoms: N_21  and  C_22 
REMARK    4  A    between atoms: C_22  and  C_23 
REMARK    5  A    between atoms: C_23  and  C_24 
REMARK    6  A    between atoms: C_24  and  N_25 
ROOT
HETATM    1  C   UNK N   1      24.826  15.538   6.436  0.00  0.00     0.052 C 
HETATM    2  C   UNK N   1      26.221  15.527   5.919  0.00  0.00    -0.019 A 
HETATM    3  C   UNK N   1      26.534  14.880   4.712  0.00  0.00     0.098 A 
HETATM    4  N   UNK N   1      27.818  14.885   4.234  0.00  0.00    -0.351 N 
ATOM      5  HN  UNK N   1      28.019  14.414   3.351  1.00  0.00     0.166 HD
HETATM    6  C   UNK N   1      28.836  15.503   4.909  0.00  0.00     0.114 A 
HETATM    7  C   UNK N   1      28.548  16.149   6.118  0.00  0.00     0.048 A 
HETATM    8  C   UNK N   1      27.260  16.159   6.601  0.00  0.00     0.055 A 
HETATM    9  N   UNK N   1      27.168  16.843   7.761  0.00  0.00    -0.354 N 
HETATM   10  C   UNK N   1      28.423  17.275   8.016  0.00  0.00     0.044 A 
HETATM   11  C   UNK N   1      29.313  16.869   7.037  0.00  0.00     0.018 A 
HETATM   12  C   UNK N   1      30.678  17.218   7.128  0.00  0.00    -0.012 A 
HETATM   13  C   UNK N   1      31.629  16.829   6.181  0.00  0.00     0.016 A 
HETATM   14  C   UNK N   1      32.966  17.201   6.314  0.00  0.00     0.037 A 
HETATM   15  C   UNK N   1      33.373  17.973   7.402  0.00  0.00     0.066 A 
HETATM   16  C   UNK N   1      32.441  18.372   8.365  0.00  0.00     0.048 A 
HETATM   17  C   UNK N   1      31.097  18.001   8.241  0.00  0.00    -0.022 A 
HETATM   18  C   UNK N   1      30.166  18.405   9.216  0.00  0.00     0.014 A 
HETATM   19  C   UNK N   1      28.815  18.039   9.110  0.00  0.00     0.031 A 
HETATM   20  H   UNK N   1      26.361  16.995   8.305  0.00  0.00     0.166 HD
ENDROOT
BRANCH   6  21
HETATM   21  N   UNK N   1      30.144  15.515   4.389  0.00  0.00    -0.376 N 
HETATM   22  H   UNK N   1      30.863  15.822   4.987  0.00  0.00     0.161 HD
BRANCH  21  23
HETATM   23  C   UNK N   1      30.515  15.118   3.064  0.00  0.00     0.123 C 
BRANCH  23  24
HETATM   24  C   UNK N   1      31.946  14.633   3.160  0.00  0.00     0.050 C 
BRANCH  24  25
HETATM   25  C   UNK N   1      32.120  13.549   4.201  0.00  0.00     0.273 C 
BRANCH  25  26
HETATM   26  N   UNK N   1      33.525  13.457   4.576  0.00  0.00     0.080 N 
HETATM   27  C   UNK N   1      34.194  14.611   4.006  0.00  0.00     0.309 C 
HETATM   28  C   UNK N   1      33.638  13.569   6.021  0.00  0.00     0.309 C 
ENDBRANCH  25  26
ENDBRANCH  24  25
ENDBRANCH  23  24
ENDBRANCH  21  23
ENDBRANCH   6  21
BRANCH  15  29
HETATM   29  O   UNK N   1      34.661  18.330   7.523  0.00  0.00    -0.361 OA
HETATM   30  H   UNK N   1      34.882  19.193   7.815  0.00  0.00     0.217 HD
ENDBRANCH  15  29
TORSDOF 6
ENDMDL
MODEL 8
REMARK VINA RESULT:      -6.3     22.281     25.641
REMARK  6 active torsions:
REMARK  status: ('A' for Active; 'I' for Inactive)
REMARK    1  A    between atoms: C_6  and  N_21 
REMARK    2  A    between atoms: C_15  and  O_20 
REMARK    3  A    between atoms: N_21  and  C_22 
REMARK    4  A    between atoms: C_22  and  C_23 
REMARK    5  A    between atoms: C_23  and  C_24 
REMARK    6  A    between atoms: C_24  and  N_25 
ROOT
HETATM    1  C   UNK N   1      35.825   5.879  14.430  0.00  0.00     0.052 C 
HETATM    2  C   UNK N   1      35.766   7.359  14.284  0.00  0.00    -0.019 A 
HETATM    3  C   UNK N   1      35.789   7.956  13.013  0.00  0.00     0.098 A 
HETATM    4  N   UNK N   1      35.720   9.317  12.884  0.00  0.00    -0.351 N 
ATOM      5  HN  UNK N   1      35.732   9.728  11.950  1.00  0.00     0.166 HD
HETATM    6  C   UNK N   1      35.637  10.142  13.975  0.00  0.00     0.114 A 
HETATM    7  C   UNK N   1      35.618   9.568  15.252  0.00  0.00     0.048 A 
HETATM    8  C   UNK N   1      35.676   8.201  15.392  0.00  0.00     0.055 A 
HETATM    9  N   UNK N   1      35.626   7.829  16.689  0.00  0.00    -0.354 N 
HETATM   10  C   UNK N   1      35.533   8.985  17.383  0.00  0.00     0.044 A 
HETATM   11  C   UNK N   1      35.530  10.087  16.546  0.00  0.00     0.018 A 
HETATM   12  C   UNK N   1      35.445  11.389  17.084  0.00  0.00    -0.012 A 
HETATM   13  C   UNK N   1      35.451  12.542  16.295  0.00  0.00     0.016 A 
HETATM   14  C   UNK N   1      35.363  13.808  16.873  0.00  0.00     0.037 A 
HETATM   15  C   UNK N   1      35.265  13.938  18.259  0.00  0.00     0.066 A 
HETATM   16  C   UNK N   1      35.260  12.799  19.070  0.00  0.00     0.048 A 
HETATM   17  C   UNK N   1      35.351  11.525  18.498  0.00  0.00    -0.022 A 
HETATM   18  C   UNK N   1      35.349  10.385  19.323  0.00  0.00     0.014 A 
HETATM   19  C   UNK N   1      35.443   9.099  18.767  0.00  0.00     0.031 A 
HETATM   20  H   UNK N   1      35.651   6.913  17.052  0.00  0.00     0.166 HD
ENDROOT
BRANCH   6  21
HETATM   21  N   UNK N   1      35.544  11.537  13.820  0.00  0.00    -0.376 N 
HETATM   22  H   UNK N   1      35.022  12.031  14.492  0.00  0.00     0.161 HD
BRANCH  21  23
HETATM   23  C   UNK N   1      36.146  12.298  12.765  0.00  0.00     0.123 C 
BRANCH  23  24
HETATM   24  C   UNK N   1      35.252  13.502  12.557  0.00  0.00     0.050 C 
BRANCH  24  25
HETATM   25  C   UNK N   1      36.019  14.805  12.602  0.00  0.00     0.273 C 
BRANCH  25  26
HETATM   26  N   UNK N   1      35.822  15.525  11.351  0.00  0.00     0.080 N 
HETATM   27  C   UNK N   1      36.731  14.949  10.379  0.00  0.00     0.309 C 
HETATM   28  C   UNK N   1      34.472  15.280  10.870  0.00  0.00     0.309 C 
ENDBRANCH  25  26
ENDBRANCH  24  25
ENDBRANCH  23  24
ENDBRANCH  21  23
ENDBRANCH   6  21
BRANCH  15  29
HETATM   29  O   UNK N   1      35.177  15.158  18.810  0.00  0.00    -0.361 OA
HETATM   30  H   UNK N   1      35.854  15.464  19.382  0.00  0.00     0.217 HD
ENDBRANCH  15  29
TORSDOF 6
ENDMDL
MODEL 9
REMARK VINA RESULT:      -6.3     11.884     14.197
REMARK  6 active torsions:
REMARK  status: ('A' for Active; 'I' for Inactive)
REMARK    1  A    between atoms: C_6  and  N_21 
REMARK    2  A    between atoms: C_15  and  O_20 
REMARK    3  A    between atoms: N_21  and  C_22 
REMARK    4  A    between atoms: C_22  and  C_23 
REMARK    5  A    between atoms: C_23  and  C_24 
REMARK    6  A    between atoms: C_24  and  N_25 
ROOT
HETATM    1  C   UNK N   1      24.930  16.632   5.302  0.00  0.00     0.052 C 
HETATM    2  C   UNK N   1      26.352  16.660   4.867  0.00  0.00    -0.019 A 
HETATM    3  C   UNK N   1      26.698  16.403   3.530  0.00  0.00     0.098 A 
HETATM    4  N   UNK N   1      28.008  16.443   3.131  0.00  0.00    -0.351 N 
ATOM      5  HN  UNK N   1      28.234  16.260   2.153  1.00  0.00     0.166 HD
HETATM    6  C   UNK N   1      29.021  16.723   4.010  0.00  0.00     0.114 A 
HETATM    7  C   UNK N   1      28.699  16.977   5.349  0.00  0.00     0.048 A 
HETATM    8  C   UNK N   1      27.386  16.949   5.757  0.00  0.00     0.055 A 
HETATM    9  N   UNK N   1      27.265  17.237   7.071  0.00  0.00    -0.354 N 
HETATM   10  C   UNK N   1      28.528  17.451   7.501  0.00  0.00     0.044 A 
HETATM   11  C   UNK N   1      29.450  17.298   6.481  0.00  0.00     0.018 A 
HETATM   12  C   UNK N   1      30.827  17.477   6.735  0.00  0.00    -0.012 A 
HETATM   13  C   UNK N   1      31.809  17.324   5.753  0.00  0.00     0.016 A 
HETATM   14  C   UNK N   1      33.158  17.513   6.051  0.00  0.00     0.037 A 
HETATM   15  C   UNK N   1      33.546  17.862   7.345  0.00  0.00     0.066 A 
HETATM   16  C   UNK N   1      32.582  18.018   8.346  0.00  0.00     0.048 A 
HETATM   17  C   UNK N   1      31.226  17.828   8.055  0.00  0.00    -0.022 A 
HETATM   18  C   UNK N   1      30.263  17.984   9.070  0.00  0.00     0.014 A 
HETATM   19  C   UNK N   1      28.900  17.793   8.798  0.00  0.00     0.031 A 
HETATM   20  H   UNK N   1      26.436  17.281   7.601  0.00  0.00     0.166 HD
ENDROOT
BRANCH   6  21
HETATM   21  N   UNK N   1      30.357  16.782   3.575  0.00  0.00    -0.376 N 
HETATM   22  H   UNK N   1      30.876  17.581   3.821  0.00  0.00     0.161 HD
BRANCH  21  23
HETATM   23  C   UNK N   1      31.026  15.776   2.804  0.00  0.00     0.123 C 
BRANCH  23  24
HETATM   24  C   UNK N   1      30.954  14.506   3.626  0.00  0.00     0.050 C 
BRANCH  24  25
HETATM   25  C   UNK N   1      30.814  13.269   2.765  0.00  0.00     0.273 C 
BRANCH  25  26
HETATM   26  N   UNK N   1      29.563  12.594   3.086  0.00  0.00     0.080 N 
HETATM   27  C   UNK N   1      29.166  13.038   4.409  0.00  0.00     0.309 C 
HETATM   28  C   UNK N   1      28.534  13.039   2.161  0.00  0.00     0.309 C 
ENDBRANCH  25  26
ENDBRANCH  24  25
ENDBRANCH  23  24
ENDBRANCH  21  23
ENDBRANCH   6  21
BRANCH  15  29
HETATM   29  O   UNK N   1      34.845  18.047   7.627  0.00  0.00    -0.361 OA
HETATM   30  H   UNK N   1      35.104  18.730   8.213  0.00  0.00     0.217 HD
ENDBRANCH  15  29
TORSDOF 6
ENDMDL
