REMARK  21 active torsions:
REMARK  status: ('A' for Active; 'I' for Inactive)
REMARK    1  A    between atoms: C_2  and  C_3 
REMARK    2  A    between atoms: C_5  and  C_3 
REMARK    3  A    between atoms: C_9  and  C_69 
REMARK    4  A    between atoms: C_13  and  C_65 
REMARK    5  A    between atoms: C_17  and  C_38 
REMARK    6  A    between atoms: C_26  and  C_30 
REMARK    7  A    between atoms: C_30  and  C_31 
REMARK    8  A    between atoms: C_34  and  O_37 
REMARK       I    between atoms: C_38  and  N_40 
REMARK    9  A    between atoms: N_40  and  C_41 
REMARK   10  A    between atoms: N_40  and  C_49 
REMARK   11  A    between atoms: C_41  and  C_42 
REMARK   12  A    between atoms: C_49  and  C_50 
REMARK       I    between atoms: C_50  and  N_52 
REMARK   13  A    between atoms: C_53  and  N_52 
REMARK   14  A    between atoms: C_53  and  C_54 
REMARK   15  A    between atoms: C_53  and  C_58 
REMARK   16  A    between atoms: C_54  and  C_55 
REMARK       I    between atoms: C_58  and  N_60 
REMARK   17  A    between atoms: N_60  and  C_61 
REMARK   18  A    between atoms: C_61  and  C_62 
REMARK       I    between atoms: C_62  and  N_64 
REMARK   19  A    between atoms: C_65  and  C_66 
REMARK       I    between atoms: C_66  and  N_68 
REMARK   20  A    between atoms: C_69  and  C_70 
REMARK   21  A    between atoms: C_70  and  C_71 
REMARK       I    between atoms: C_71  and  N_73 
ROOT
HETATM    1  C   UNK N   1      -1.213   7.083  -0.015  0.00  0.00     0.180 C 
HETATM    2  C   UNK N   1      -0.712   8.051   1.061  0.00  0.00     0.241 C 
HETATM    3  O   UNK N   1      -1.520   8.726   1.677  0.00  0.00    -0.271 OA
HETATM    4  N   UNK N   1       0.598   8.200   1.385  0.00  0.00    -0.346 N 
HETATM    5  C   UNK N   1       1.761   7.655   0.727  0.00  0.00     0.177 C 
HETATM    6  C   UNK N   1       1.930   6.175   0.675  0.00  0.00     0.241 C 
HETATM    7  O   UNK N   1       1.616   5.488   1.634  0.00  0.00    -0.271 OA
HETATM    8  N   UNK N   1       2.590   5.662  -0.392  0.00  0.00    -0.346 N 
HETATM    9  C   UNK N   1       3.275   4.396  -0.549  0.00  0.00     0.185 C 
HETATM   10  C   UNK N   1       3.582   3.629   0.745  0.00  0.00     0.241 C 
HETATM   11  O   UNK N   1       3.708   4.232   1.796  0.00  0.00    -0.271 OA
HETATM   12  N   UNK N   1       3.785   2.283   0.757  0.00  0.00    -0.345 N 
HETATM   13  C   UNK N   1       4.275   1.532  -0.376  0.00  0.00     0.186 C 
HETATM   14  C   UNK N   1       4.051   0.042  -0.134  0.00  0.00     0.108 C 
HETATM   15  S   UNK N   1       4.516  -1.028  -1.542  0.00  0.00    -0.167 SA
HETATM   16  C   UNK N   1       3.399  -0.321  -2.809  0.00  0.00     0.074 C 
HETATM   17  C   UNK N   1       1.987  -0.073  -2.307  0.00  0.00     0.019 C 
HETATM   18  C   UNK N   1       1.790   1.434  -2.256  0.00  0.00     0.103 C 
HETATM   19  C   UNK N   1       1.047   1.859  -1.030  0.00  0.00     0.218 C 
HETATM   20  O   UNK N   1       1.347   1.397   0.060  0.00  0.00    -0.274 OA
HETATM   21  N   UNK N   1       0.057   2.775  -1.128  0.00  0.00    -0.347 N 
HETATM   22  C   UNK N   1      -0.637   3.285   0.039  0.00  0.00     0.180 C 
HETATM   23  C   UNK N   1      -1.230   4.611  -0.327  0.00  0.00     0.241 C 
HETATM   24  O   UNK N   1      -2.047   4.677  -1.237  0.00  0.00    -0.271 OA
HETATM   25  N   UNK N   1      -0.844   5.726   0.345  0.00  0.00    -0.346 N 
HETATM   26  H   UNK N   1       0.779   8.754   2.179  0.00  0.00     0.163 HD
HETATM   27  H   UNK N   1       2.605   6.242  -1.188  0.00  0.00     0.163 HD
HETATM   28  H   UNK N   1       3.586   1.792   1.587  0.00  0.00     0.163 HD
HETATM   29  H   UNK N   1      -0.201   3.105  -2.019  0.00  0.00     0.163 HD
HETATM   30  H   UNK N   1      -0.272   5.605   1.137  0.00  0.00     0.163 HD
ENDROOT
BRANCH  13  31
HETATM   31  C   UNK N   1       5.707   1.983  -0.437  0.00  0.00     0.244 C 
HETATM   32  O   UNK N   1       6.073   2.617  -1.401  0.00  0.00    -0.271 OA
HETATM   33  N   UNK N   1       6.437   1.982   0.725  0.00  0.00    -0.337 N 
BRANCH  33  34
HETATM   34  C   UNK N   1       6.271   0.945   1.714  0.00  0.00     0.165 C 
BRANCH  34  35
HETATM   35  C   UNK N   1       6.896  -0.336   1.195  0.00  0.00    -0.040 A 
HETATM   36  C   UNK N   1       7.535  -0.365  -0.061  0.00  0.00     0.012 A 
HETATM   37  C   UNK N   1       8.082  -1.543  -0.561  0.00  0.00     0.043 A 
HETATM   38  C   UNK N   1       8.002  -2.713   0.188  0.00  0.00     0.116 A 
HETATM   39  C   UNK N   1       7.373  -2.702   1.439  0.00  0.00     0.043 A 
HETATM   40  F   UNK N   1       8.537  -3.858  -0.300  0.00  0.00    -0.206 F 
HETATM   41  C   UNK N   1       6.818  -1.516   1.942  0.00  0.00     0.012 A 
ENDBRANCH  34  35
ENDBRANCH  33  34
BRANCH  33  42
HETATM   42  C   UNK N   1       7.124   3.198   1.106  0.00  0.00     0.228 C 
BRANCH  42  43
HETATM   43  C   UNK N   1       8.455   3.292   0.518  0.00  0.00     0.236 C 
HETATM   44  O   UNK N   1       8.608   3.040  -0.668  0.00  0.00    -0.272 OA
HETATM   45  N   UNK N   1       9.502   3.654   1.303  0.00  0.00    -0.346 N 
HETATM   46  H   UNK N   1       9.323   3.965   2.220  0.00  0.00     0.163 HD
BRANCH  45  47
HETATM   47  C   UNK N   1      10.873   3.600   0.839  0.00  0.00     0.177 C 
BRANCH  47  48
HETATM   48  C   UNK N   1      11.324   2.132   0.898  0.00  0.00     0.038 C 
BRANCH  48  49
HETATM   49  C   UNK N   1      10.442   1.085   0.245  0.00  0.00    -0.020 C 
HETATM   50  C   UNK N   1      10.727  -0.253   0.891  0.00  0.00     0.009 C 
HETATM   51  C   UNK N   1      10.725   1.007  -1.240  0.00  0.00     0.009 C 
ENDBRANCH  48  49
ENDBRANCH  47  48
BRANCH  47  52
HETATM   52  C   UNK N   1      11.084   4.454  -0.422  0.00  0.00     0.240 C 
HETATM   53  O   UNK N   1      10.154   5.156  -0.793  0.00  0.00    -0.271 OA
HETATM   54  N   UNK N   1      12.247   4.556  -1.129  0.00  0.00    -0.351 N 
HETATM   55  H   UNK N   1      12.178   5.198  -1.872  0.00  0.00     0.163 HD
BRANCH  54  56
HETATM   56  C   UNK N   1      13.564   3.942  -1.051  0.00  0.00     0.225 C 
BRANCH  56  57
HETATM   57  C   UNK N   1      13.829   2.963   0.033  0.00  0.00     0.233 C 
HETATM   58  O   UNK N   1      13.918   3.332   1.192  0.00  0.00    -0.272 OA
HETATM   59  N   UNK N   1      14.026   1.666  -0.280  0.00  0.00    -0.369 N 
HETATM   60  H   UNK N   1      13.278   1.068  -0.508  0.00  0.00     0.159 HD
HETATM   61  H   UNK N   1      14.943   1.308  -0.280  0.00  0.00     0.159 HD
ENDBRANCH  56  57
ENDBRANCH  54  56
ENDBRANCH  47  52
ENDBRANCH  45  47
ENDBRANCH  42  43
ENDBRANCH  33  42
ENDBRANCH  13  31
BRANCH   9  62
HETATM   62  C   UNK N   1       4.527   4.706  -1.375  0.00  0.00     0.137 C 
BRANCH  62  63
HETATM   63  C   UNK N   1       5.481   5.726  -0.794  0.00  0.00     0.217 C 
HETATM   64  O   UNK N   1       5.150   6.446   0.134  0.00  0.00    -0.274 OA
HETATM   65  N   UNK N   1       6.716   5.849  -1.318  0.00  0.00    -0.370 N 
HETATM   66  H   UNK N   1       7.245   5.112  -1.700  0.00  0.00     0.159 HD
HETATM   67  H   UNK N   1       7.122   6.746  -1.318  0.00  0.00     0.159 HD
ENDBRANCH  62  63
ENDBRANCH   9  62
BRANCH   5  68
HETATM   68  C   UNK N   1       2.173   8.417  -0.527  0.00  0.00     0.044 C 
BRANCH  68  69
HETATM   69  C   UNK N   1       2.729   9.786  -0.156  0.00  0.00     0.105 C 
BRANCH  69  70
HETATM   70  C   UNK N   1       4.087   9.695   0.475  0.00  0.00     0.215 C 
HETATM   71  O   UNK N   1       4.238   9.116   1.540  0.00  0.00    -0.274 OA
HETATM   72  N   UNK N   1       5.140  10.288  -0.118  0.00  0.00    -0.370 N 
HETATM   73  H   UNK N   1       5.901   9.838  -0.551  0.00  0.00     0.159 HD
HETATM   74  H   UNK N   1       5.151  11.273  -0.118  0.00  0.00     0.159 HD
ENDBRANCH  69  70
ENDBRANCH  68  69
ENDBRANCH   5  68
BRANCH  22  75
HETATM   75  C   UNK N   1      -1.780   2.384   0.555  0.00  0.00     0.073 C 
BRANCH  75  76
HETATM   76  C   UNK N   1      -1.762   0.897   0.327  0.00  0.00    -0.056 A 
HETATM   77  C   UNK N   1      -1.453   0.369  -0.933  0.00  0.00     0.010 A 
HETATM   78  C   UNK N   1      -1.570  -0.996  -1.183  0.00  0.00     0.037 A 
HETATM   79  C   UNK N   1      -2.053  -1.845  -0.189  0.00  0.00     0.065 A 
HETATM   80  C   UNK N   1      -2.399  -1.327   1.064  0.00  0.00     0.037 A 
HETATM   81  C   UNK N   1      -2.256   0.043   1.322  0.00  0.00     0.010 A 
BRANCH  79  82
HETATM   82  O   UNK N   1      -2.194  -3.155  -0.442  0.00  0.00    -0.361 OA
HETATM   83  H   UNK N   1      -3.035  -3.528  -0.618  0.00  0.00     0.217 HD
ENDBRANCH  79  82
ENDBRANCH  75  76
ENDBRANCH  22  75
BRANCH   1  84
HETATM   84  C   UNK N   1      -2.737   7.195  -0.279  0.00  0.00     0.013 C 
HETATM   85  C   UNK N   1      -3.077   8.451  -1.056  0.00  0.00     0.012 C 
BRANCH  84  86
HETATM   86  C   UNK N   1      -3.600   7.096   0.977  0.00  0.00     0.002 C 
HETATM   87  C   UNK N   1      -4.348   5.783   1.021  0.00  0.00     0.005 C 
ENDBRANCH  84  86
ENDBRANCH   1  84
TORSDOF 21
