MODEL 1
REMARK VINA RESULT:      -7.9      0.000      0.000
REMARK  15 active torsions:
REMARK  status: ('A' for Active; 'I' for Inactive)
REMARK    1  A    between atoms: C_2  and  O_3 
REMARK    2  A    between atoms: O_3  and  C_4 
REMARK    3  A    between atoms: C_4  and  O_6 
REMARK    4  A    between atoms: O_6  and  C_7 
REMARK    5  A    between atoms: C_8  and  C_7 
REMARK    6  A    between atoms: C_9  and  O_38 
REMARK    7  A    between atoms: C_10  and  O_37 
REMARK    8  A    between atoms: C_11  and  O_36 
REMARK    9  A    between atoms: C_12  and  O_14 
REMARK   10  A    between atoms: O_14  and  C_15 
REMARK   11  A    between atoms: C_16  and  C_25 
REMARK   12  A    between atoms: N_18  and  C_21 
REMARK   13  A    between atoms: C_25  and  C_26 
REMARK   14  A    between atoms: C_29  and  O_32 
REMARK   15  A    between atoms: O_32  and  C_33 
ROOT
HETATM    1  C   UNK N   1      29.080  17.927   5.289  0.00  0.00     0.168 A 
HETATM    2  C   UNK N   1      28.235  19.018   5.194  0.00  0.00     0.022 A 
HETATM    3  C   UNK N   1      27.983  19.366   6.522  0.00  0.00     0.036 A 
HETATM    4  N   UNK N   1      28.632  18.500   7.327  0.00  0.00    -0.290 N 
HETATM    5  N   UNK N   1      29.305  17.626   6.585  0.00  0.00    -0.277 N 
ATOM      6  HN  UNK N   1      29.888  16.865   6.932  1.00  0.00     0.189 HD
HETATM    7  C   UNK N   1      27.175  20.505   7.049  0.00  0.00     0.070 C 
ENDROOT
BRANCH   1   8
HETATM    8  O   UNK N   1      29.704  17.331   4.246  0.00  0.00    -0.300 OA
BRANCH   8   9
HETATM    9  C   UNK N   1      30.732  16.414   4.328  0.00  0.00     0.300 C 
HETATM   10  C   UNK N   1      30.560  15.396   5.464  0.00  0.00     0.205 C 
HETATM   11  C   UNK N   1      31.733  14.448   5.343  0.00  0.00     0.183 C 
HETATM   12  C   UNK N   1      33.046  15.200   5.534  0.00  0.00     0.180 C 
HETATM   13  C   UNK N   1      32.933  16.697   5.186  0.00  0.00     0.180 C 
HETATM   14  O   UNK N   1      32.018  17.000   4.144  0.00  0.00    -0.348 OA
BRANCH  10  15
HETATM   15  O   UNK N   1      29.367  14.694   5.280  0.00  0.00    -0.388 OA
HETATM   16  H   UNK N   1      28.702  14.980   4.634  0.00  0.00     0.210 HD
ENDBRANCH  10  15
BRANCH  11  17
HETATM   17  O   UNK N   1      31.641  13.399   6.258  0.00  0.00    -0.390 OA
HETATM   18  H   UNK N   1      31.344  12.480   6.355  0.00  0.00     0.210 HD
ENDBRANCH  11  17
BRANCH  12  19
HETATM   19  O   UNK N   1      34.033  14.593   4.757  0.00  0.00    -0.390 OA
HETATM   20  H   UNK N   1      34.051  14.680   3.791  0.00  0.00     0.210 HD
ENDBRANCH  12  19
BRANCH  13  21
HETATM   21  C   UNK N   1      32.713  17.570   6.418  0.00  0.00     0.215 C 
BRANCH  21  22
HETATM   22  O   UNK N   1      33.887  18.188   6.800  0.00  0.00    -0.295 OA
BRANCH  22  23
HETATM   23  C   UNK N   1      34.309  18.262   8.087  0.00  0.00     0.406 C 
HETATM   24  O   UNK N   1      35.091  19.144   8.409  0.00  0.00    -0.230 OA
BRANCH  23  25
HETATM   25  O   UNK N   1      33.881  17.355   9.004  0.00  0.00    -0.298 OA
BRANCH  25  26
HETATM   26  C   UNK N   1      34.706  16.384   9.522  0.00  0.00     0.176 C 
HETATM   27  C   UNK N   1      33.872  15.207   9.984  0.00  0.00     0.034 C 
ENDBRANCH  25  26
ENDBRANCH  23  25
ENDBRANCH  22  23
ENDBRANCH  21  22
ENDBRANCH  13  21
ENDBRANCH   8   9
ENDBRANCH   1   8
BRANCH   2  28
HETATM   28  C   UNK N   1      27.781  19.637   3.883  0.00  0.00     0.083 C 
BRANCH  28  29
HETATM   29  C   UNK N   1      26.314  19.548   3.646  0.00  0.00    -0.054 A 
HETATM   30  C   UNK N   1      25.678  20.556   2.919  0.00  0.00     0.010 A 
HETATM   31  C   UNK N   1      24.285  20.586   2.844  0.00  0.00     0.037 A 
HETATM   32  C   UNK N   1      23.526  19.629   3.522  0.00  0.00     0.069 A 
HETATM   33  C   UNK N   1      24.168  18.569   4.183  0.00  0.00     0.037 A 
HETATM   34  C   UNK N   1      25.561  18.519   4.223  0.00  0.00     0.010 A 
BRANCH  32  35
HETATM   35  O   UNK N   1      22.187  19.811   3.612  0.00  0.00    -0.347 OA
BRANCH  35  36
HETATM   36  C   UNK N   1      21.293  19.448   2.611  0.00  0.00     0.120 C 
HETATM   37  C   UNK N   1      20.167  18.574   3.119  0.00  0.00     0.040 C 
HETATM   38  C   UNK N   1      20.770  20.640   1.810  0.00  0.00     0.040 C 
ENDBRANCH  35  36
ENDBRANCH  32  35
ENDBRANCH  28  29
ENDBRANCH   2  28
BRANCH   4  39
HETATM   39  C   UNK N   1      28.641  18.545   8.797  0.00  0.00     0.100 C 
HETATM   40  C   UNK N   1      30.045  18.689   9.357  0.00  0.00     0.034 C 
HETATM   41  C   UNK N   1      28.001  17.299   9.388  0.00  0.00     0.034 C 
ENDBRANCH   4  39
TORSDOF 15
ENDMDL
MODEL 2
REMARK VINA RESULT:      -7.9      4.946     12.042
REMARK  15 active torsions:
REMARK  status: ('A' for Active; 'I' for Inactive)
REMARK    1  A    between atoms: C_2  and  O_3 
REMARK    2  A    between atoms: O_3  and  C_4 
REMARK    3  A    between atoms: C_4  and  O_6 
REMARK    4  A    between atoms: O_6  and  C_7 
REMARK    5  A    between atoms: C_8  and  C_7 
REMARK    6  A    between atoms: C_9  and  O_38 
REMARK    7  A    between atoms: C_10  and  O_37 
REMARK    8  A    between atoms: C_11  and  O_36 
REMARK    9  A    between atoms: C_12  and  O_14 
REMARK   10  A    between atoms: O_14  and  C_15 
REMARK   11  A    between atoms: C_16  and  C_25 
REMARK   12  A    between atoms: N_18  and  C_21 
REMARK   13  A    between atoms: C_25  and  C_26 
REMARK   14  A    between atoms: C_29  and  O_32 
REMARK   15  A    between atoms: O_32  and  C_33 
ROOT
HETATM    1  C   UNK N   1      34.244  13.605  10.304  0.00  0.00     0.168 A 
HETATM    2  C   UNK N   1      35.234  12.946  11.009  0.00  0.00     0.022 A 
HETATM    3  C   UNK N   1      35.126  11.621  10.582  0.00  0.00     0.036 A 
HETATM    4  N   UNK N   1      34.109  11.532   9.700  0.00  0.00    -0.290 N 
HETATM    5  N   UNK N   1      33.572  12.735   9.522  0.00  0.00    -0.277 N 
ATOM      6  HN  UNK N   1      32.792  12.961   8.905  1.00  0.00     0.189 HD
HETATM    7  C   UNK N   1      35.970  10.449  10.959  0.00  0.00     0.070 C 
ENDROOT
BRANCH   1   8
HETATM    8  O   UNK N   1      34.060  14.947  10.289  0.00  0.00    -0.300 OA
BRANCH   8   9
HETATM    9  C   UNK N   1      34.254  15.784   9.209  0.00  0.00     0.300 C 
HETATM   10  C   UNK N   1      34.583  17.231   9.602  0.00  0.00     0.205 C 
HETATM   11  C   UNK N   1      34.828  17.962   8.300  0.00  0.00     0.183 C 
HETATM   12  C   UNK N   1      33.570  17.947   7.438  0.00  0.00     0.180 C 
HETATM   13  C   UNK N   1      32.642  16.760   7.756  0.00  0.00     0.180 C 
HETATM   14  O   UNK N   1      33.307  15.574   8.164  0.00  0.00    -0.348 OA
BRANCH  10  15
HETATM   15  O   UNK N   1      35.745  17.247  10.376  0.00  0.00    -0.388 OA
HETATM   16  H   UNK N   1      36.380  17.978  10.326  0.00  0.00     0.210 HD
ENDBRANCH  10  15
BRANCH  11  17
HETATM   17  O   UNK N   1      35.247  19.274   8.520  0.00  0.00    -0.390 OA
HETATM   18  H   UNK N   1      35.918  19.926   8.263  0.00  0.00     0.210 HD
ENDBRANCH  11  17
BRANCH  12  19
HETATM   19  O   UNK N   1      33.942  17.928   6.094  0.00  0.00    -0.390 OA
HETATM   20  H   UNK N   1      33.900  18.722   5.538  0.00  0.00     0.210 HD
ENDBRANCH  12  19
BRANCH  13  21
HETATM   21  C   UNK N   1      31.508  17.139   8.704  0.00  0.00     0.215 C 
BRANCH  21  22
HETATM   22  O   UNK N   1      30.502  17.802   8.030  0.00  0.00    -0.295 OA
BRANCH  22  23
HETATM   23  C   UNK N   1      29.518  18.498   8.652  0.00  0.00     0.406 C 
HETATM   24  O   UNK N   1      29.690  18.876   9.801  0.00  0.00    -0.230 OA
BRANCH  23  25
HETATM   25  O   UNK N   1      28.348  18.756   8.011  0.00  0.00    -0.298 OA
BRANCH  25  26
HETATM   26  C   UNK N   1      28.217  18.657   6.645  0.00  0.00     0.176 C 
HETATM   27  C   UNK N   1      27.678  19.961   6.094  0.00  0.00     0.034 C 
ENDBRANCH  25  26
ENDBRANCH  23  25
ENDBRANCH  22  23
ENDBRANCH  21  22
ENDBRANCH  13  21
ENDBRANCH   8   9
ENDBRANCH   1   8
BRANCH   2  28
HETATM   28  C   UNK N   1      36.192  13.621  11.974  0.00  0.00     0.083 C 
BRANCH  28  29
HETATM   29  C   UNK N   1      35.951  13.284  13.404  0.00  0.00    -0.054 A 
HETATM   30  C   UNK N   1      34.839  12.514  13.747  0.00  0.00     0.010 A 
HETATM   31  C   UNK N   1      34.496  12.345  15.089  0.00  0.00     0.037 A 
HETATM   32  C   UNK N   1      35.245  12.972  16.088  0.00  0.00     0.069 A 
HETATM   33  C   UNK N   1      36.411  13.676  15.747  0.00  0.00     0.037 A 
HETATM   34  C   UNK N   1      36.774  13.811  14.407  0.00  0.00     0.010 A 
BRANCH  32  35
HETATM   35  O   UNK N   1      34.764  12.970  17.354  0.00  0.00    -0.347 OA
BRANCH  35  36
HETATM   36  C   UNK N   1      35.368  12.290  18.405  0.00  0.00     0.120 C 
HETATM   37  C   UNK N   1      34.999  12.855  19.758  0.00  0.00     0.040 C 
HETATM   38  C   UNK N   1      35.156  10.777  18.344  0.00  0.00     0.040 C 
ENDBRANCH  35  36
ENDBRANCH  32  35
ENDBRANCH  28  29
ENDBRANCH   2  28
BRANCH   4  39
HETATM   39  C   UNK N   1      33.691  10.308   9.000  0.00  0.00     0.100 C 
HETATM   40  C   UNK N   1      33.469  10.544   7.517  0.00  0.00     0.034 C 
HETATM   41  C   UNK N   1      32.419   9.738   9.604  0.00  0.00     0.034 C 
ENDBRANCH   4  39
TORSDOF 15
ENDMDL
MODEL 3
REMARK VINA RESULT:      -7.8      5.789     10.253
REMARK  15 active torsions:
REMARK  status: ('A' for Active; 'I' for Inactive)
REMARK    1  A    between atoms: C_2  and  O_3 
REMARK    2  A    between atoms: O_3  and  C_4 
REMARK    3  A    between atoms: C_4  and  O_6 
REMARK    4  A    between atoms: O_6  and  C_7 
REMARK    5  A    between atoms: C_8  and  C_7 
REMARK    6  A    between atoms: C_9  and  O_38 
REMARK    7  A    between atoms: C_10  and  O_37 
REMARK    8  A    between atoms: C_11  and  O_36 
REMARK    9  A    between atoms: C_12  and  O_14 
REMARK   10  A    between atoms: O_14  and  C_15 
REMARK   11  A    between atoms: C_16  and  C_25 
REMARK   12  A    between atoms: N_18  and  C_21 
REMARK   13  A    between atoms: C_25  and  C_26 
REMARK   14  A    between atoms: C_29  and  O_32 
REMARK   15  A    between atoms: O_32  and  C_33 
ROOT
HETATM    1  C   UNK N   1      24.265  17.721   4.983  0.00  0.00     0.168 A 
HETATM    2  C   UNK N   1      25.171  16.679   5.072  0.00  0.00     0.022 A 
HETATM    3  C   UNK N   1      26.395  17.314   5.288  0.00  0.00     0.036 A 
HETATM    4  N   UNK N   1      26.195  18.649   5.294  0.00  0.00    -0.290 N 
HETATM    5  N   UNK N   1      24.902  18.903   5.115  0.00  0.00    -0.277 N 
ATOM      6  HN  UNK N   1      24.469  19.825   5.083  1.00  0.00     0.189 HD
HETATM    7  C   UNK N   1      27.735  16.700   5.518  0.00  0.00     0.070 C 
ENDROOT
BRANCH   1   8
HETATM    8  O   UNK N   1      22.921  17.580   4.913  0.00  0.00    -0.300 OA
BRANCH   8   9
HETATM    9  C   UNK N   1      22.154  17.634   3.766  0.00  0.00     0.300 C 
HETATM   10  C   UNK N   1      21.353  18.935   3.621  0.00  0.00     0.205 C 
HETATM   11  C   UNK N   1      20.646  18.831   2.287  0.00  0.00     0.183 C 
HETATM   12  C   UNK N   1      19.687  17.646   2.284  0.00  0.00     0.180 C 
HETATM   13  C   UNK N   1      20.091  16.548   3.287  0.00  0.00     0.180 C 
HETATM   14  O   UNK N   1      21.490  16.404   3.483  0.00  0.00    -0.348 OA
BRANCH  10  15
HETATM   15  O   UNK N   1      22.232  20.020   3.603  0.00  0.00    -0.388 OA
HETATM   16  H   UNK N   1      22.151  20.751   4.235  0.00  0.00     0.210 HD
ENDBRANCH  10  15
BRANCH  11  17
HETATM   17  O   UNK N   1      19.961  20.007   1.977  0.00  0.00    -0.390 OA
HETATM   18  H   UNK N   1      19.082  20.356   1.761  0.00  0.00     0.210 HD
ENDBRANCH  11  17
BRANCH  12  19
HETATM   19  O   UNK N   1      19.615  17.123   0.994  0.00  0.00    -0.390 OA
HETATM   20  H   UNK N   1      20.206  16.415   0.694  0.00  0.00     0.210 HD
ENDBRANCH  12  19
BRANCH  13  21
HETATM   21  C   UNK N   1      19.333  16.651   4.608  0.00  0.00     0.215 C 
BRANCH  21  22
HETATM   22  O   UNK N   1      20.057  16.084   5.638  0.00  0.00    -0.295 OA
BRANCH  22  23
HETATM   23  C   UNK N   1      19.990  16.513   6.923  0.00  0.00     0.406 C 
HETATM   24  O   UNK N   1      20.903  17.188   7.375  0.00  0.00    -0.230 OA
BRANCH  23  25
HETATM   25  O   UNK N   1      18.928  16.181   7.703  0.00  0.00    -0.298 OA
BRANCH  25  26
HETATM   26  C   UNK N   1      18.919  16.387   9.063  0.00  0.00     0.176 C 
HETATM   27  C   UNK N   1      17.874  17.425   9.410  0.00  0.00     0.034 C 
ENDBRANCH  25  26
ENDBRANCH  23  25
ENDBRANCH  22  23
ENDBRANCH  21  22
ENDBRANCH  13  21
ENDBRANCH   8   9
ENDBRANCH   1   8
BRANCH   2  28
HETATM   28  C   UNK N   1      24.797  15.210   4.981  0.00  0.00     0.083 C 
BRANCH  28  29
HETATM   29  C   UNK N   1      24.350  14.615   6.270  0.00  0.00    -0.054 A 
HETATM   30  C   UNK N   1      25.305  14.181   7.190  0.00  0.00     0.010 A 
HETATM   31  C   UNK N   1      24.909  13.457   8.315  0.00  0.00     0.037 A 
HETATM   32  C   UNK N   1      23.562  13.138   8.505  0.00  0.00     0.069 A 
HETATM   33  C   UNK N   1      22.594  13.647   7.624  0.00  0.00     0.037 A 
HETATM   34  C   UNK N   1      22.989  14.404   6.521  0.00  0.00     0.010 A 
BRANCH  32  35
HETATM   35  O   UNK N   1      23.238  12.256   9.480  0.00  0.00    -0.347 OA
BRANCH  35  36
HETATM   36  C   UNK N   1      22.708  12.629  10.709  0.00  0.00     0.120 C 
HETATM   37  C   UNK N   1      21.205  12.470  10.774  0.00  0.00     0.040 C 
HETATM   38  C   UNK N   1      23.403  11.955  11.893  0.00  0.00     0.040 C 
ENDBRANCH  35  36
ENDBRANCH  32  35
ENDBRANCH  28  29
ENDBRANCH   2  28
BRANCH   4  39
HETATM   39  C   UNK N   1      27.233  19.666   5.520  0.00  0.00     0.100 C 
HETATM   40  C   UNK N   1      26.717  20.840   6.333  0.00  0.00     0.034 C 
HETATM   41  C   UNK N   1      27.788  20.184   4.204  0.00  0.00     0.034 C 
ENDBRANCH   4  39
TORSDOF 15
ENDMDL
MODEL 4
REMARK VINA RESULT:      -7.8      4.249      9.899
REMARK  15 active torsions:
REMARK  status: ('A' for Active; 'I' for Inactive)
REMARK    1  A    between atoms: C_2  and  O_3 
REMARK    2  A    between atoms: O_3  and  C_4 
REMARK    3  A    between atoms: C_4  and  O_6 
REMARK    4  A    between atoms: O_6  and  C_7 
REMARK    5  A    between atoms: C_8  and  C_7 
REMARK    6  A    between atoms: C_9  and  O_38 
REMARK    7  A    between atoms: C_10  and  O_37 
REMARK    8  A    between atoms: C_11  and  O_36 
REMARK    9  A    between atoms: C_12  and  O_14 
REMARK   10  A    between atoms: O_14  and  C_15 
REMARK   11  A    between atoms: C_16  and  C_25 
REMARK   12  A    between atoms: N_18  and  C_21 
REMARK   13  A    between atoms: C_25  and  C_26 
REMARK   14  A    between atoms: C_29  and  O_32 
REMARK   15  A    between atoms: O_32  and  C_33 
ROOT
HETATM    1  C   UNK N   1      20.665  15.892   5.839  0.00  0.00     0.168 A 
HETATM    2  C   UNK N   1      21.417  15.092   6.679  0.00  0.00     0.022 A 
HETATM    3  C   UNK N   1      20.913  15.370   7.951  0.00  0.00     0.036 A 
HETATM    4  N   UNK N   1      19.942  16.300   7.837  0.00  0.00    -0.290 N 
HETATM    5  N   UNK N   1      19.783  16.618   6.556  0.00  0.00    -0.277 N 
ATOM      6  HN  UNK N   1      19.113  17.290   6.181  1.00  0.00     0.189 HD
HETATM    7  C   UNK N   1      21.298  14.764   9.259  0.00  0.00     0.070 C 
ENDROOT
BRANCH   1   8
HETATM    8  O   UNK N   1      20.706  15.857   4.486  0.00  0.00    -0.300 OA
BRANCH   8   9
HETATM    9  C   UNK N   1      20.260  16.844   3.631  0.00  0.00     0.300 C 
HETATM   10  C   UNK N   1      20.761  16.683   2.189  0.00  0.00     0.205 C 
HETATM   11  C   UNK N   1      20.115  17.805   1.405  0.00  0.00     0.183 C 
HETATM   12  C   UNK N   1      20.562  19.158   1.947  0.00  0.00     0.180 C 
HETATM   13  C   UNK N   1      21.001  19.096   3.422  0.00  0.00     0.180 C 
HETATM   14  O   UNK N   1      20.304  18.145   4.213  0.00  0.00    -0.348 OA
BRANCH  10  15
HETATM   15  O   UNK N   1      20.335  15.452   1.687  0.00  0.00    -0.388 OA
HETATM   16  H   UNK N   1      19.422  15.310   1.393  0.00  0.00     0.210 HD
ENDBRANCH  10  15
BRANCH  11  17
HETATM   17  O   UNK N   1      20.402  17.710   0.043  0.00  0.00    -0.390 OA
HETATM   18  H   UNK N   1      20.965  18.078  -0.656  0.00  0.00     0.210 HD
ENDBRANCH  11  17
BRANCH  12  19
HETATM   19  O   UNK N   1      19.525  20.076   1.785  0.00  0.00    -0.390 OA
HETATM   20  H   UNK N   1      19.564  20.967   2.168  0.00  0.00     0.210 HD
ENDBRANCH  12  19
BRANCH  13  21
HETATM   21  C   UNK N   1      22.514  18.978   3.581  0.00  0.00     0.215 C 
BRANCH  21  22
HETATM   22  O   UNK N   1      23.132  20.186   3.327  0.00  0.00    -0.295 OA
BRANCH  22  23
HETATM   23  C   UNK N   1      24.464  20.311   3.104  0.00  0.00     0.406 C 
HETATM   24  O   UNK N   1      24.849  20.958   2.141  0.00  0.00    -0.230 OA
BRANCH  23  25
HETATM   25  O   UNK N   1      25.360  19.711   3.931  0.00  0.00    -0.298 OA
BRANCH  25  26
HETATM   26  C   UNK N   1      26.719  19.832   3.759  0.00  0.00     0.176 C 
HETATM   27  C   UNK N   1      27.336  20.418   5.011  0.00  0.00     0.034 C 
ENDBRANCH  25  26
ENDBRANCH  23  25
ENDBRANCH  22  23
ENDBRANCH  21  22
ENDBRANCH  13  21
ENDBRANCH   8   9
ENDBRANCH   1   8
BRANCH   2  28
HETATM   28  C   UNK N   1      22.498  14.134   6.208  0.00  0.00     0.083 C 
BRANCH  28  29
HETATM   29  C   UNK N   1      23.835  14.764   6.035  0.00  0.00    -0.054 A 
HETATM   30  C   UNK N   1      24.799  14.608   7.033  0.00  0.00     0.010 A 
HETATM   31  C   UNK N   1      25.985  15.339   6.975  0.00  0.00     0.037 A 
HETATM   32  C   UNK N   1      26.197  16.251   5.938  0.00  0.00     0.069 A 
HETATM   33  C   UNK N   1      25.266  16.345   4.891  0.00  0.00     0.037 A 
HETATM   34  C   UNK N   1      24.097  15.584   4.931  0.00  0.00     0.010 A 
BRANCH  32  35
HETATM   35  O   UNK N   1      27.250  17.098   6.026  0.00  0.00    -0.347 OA
BRANCH  35  36
HETATM   36  C   UNK N   1      28.262  16.970   6.970  0.00  0.00     0.120 C 
HETATM   37  C   UNK N   1      29.630  16.809   6.345  0.00  0.00     0.040 C 
HETATM   38  C   UNK N   1      28.245  18.078   8.024  0.00  0.00     0.040 C 
ENDBRANCH  35  36
ENDBRANCH  32  35
ENDBRANCH  28  29
ENDBRANCH   2  28
BRANCH   4  39
HETATM   39  C   UNK N   1      19.144  16.840   8.948  0.00  0.00     0.100 C 
HETATM   40  C   UNK N   1      17.654  16.780   8.665  0.00  0.00     0.034 C 
HETATM   41  C   UNK N   1      19.530  18.278   9.252  0.00  0.00     0.034 C 
ENDBRANCH   4  39
TORSDOF 15
ENDMDL
MODEL 5
REMARK VINA RESULT:      -7.7      4.883      9.525
REMARK  15 active torsions:
REMARK  status: ('A' for Active; 'I' for Inactive)
REMARK    1  A    between atoms: C_2  and  O_3 
REMARK    2  A    between atoms: O_3  and  C_4 
REMARK    3  A    between atoms: C_4  and  O_6 
REMARK    4  A    between atoms: O_6  and  C_7 
REMARK    5  A    between atoms: C_8  and  C_7 
REMARK    6  A    between atoms: C_9  and  O_38 
REMARK    7  A    between atoms: C_10  and  O_37 
REMARK    8  A    between atoms: C_11  and  O_36 
REMARK    9  A    between atoms: C_12  and  O_14 
REMARK   10  A    between atoms: O_14  and  C_15 
REMARK   11  A    between atoms: C_16  and  C_25 
REMARK   12  A    between atoms: N_18  and  C_21 
REMARK   13  A    between atoms: C_25  and  C_26 
REMARK   14  A    between atoms: C_29  and  O_32 
REMARK   15  A    between atoms: O_32  and  C_33 
ROOT
HETATM    1  C   UNK N   1      20.547  16.602   5.455  0.00  0.00     0.168 A 
HETATM    2  C   UNK N   1      21.321  15.569   5.952  0.00  0.00     0.022 A 
HETATM    3  C   UNK N   1      21.066  15.586   7.324  0.00  0.00     0.036 A 
HETATM    4  N   UNK N   1      20.210  16.594   7.593  0.00  0.00    -0.290 N 
HETATM    5  N   UNK N   1      19.887  17.212   6.461  0.00  0.00    -0.277 N 
ATOM      6  HN  UNK N   1      19.252  18.005   6.368  1.00  0.00     0.189 HD
HETATM    7  C   UNK N   1      21.580  14.664   8.379  0.00  0.00     0.070 C 
ENDROOT
BRANCH   1   8
HETATM    8  O   UNK N   1      20.365  16.877   4.142  0.00  0.00    -0.300 OA
BRANCH   8   9
HETATM    9  C   UNK N   1      20.364  18.131   3.565  0.00  0.00     0.300 C 
HETATM   10  C   UNK N   1      20.583  18.110   2.046  0.00  0.00     0.205 C 
HETATM   11  C   UNK N   1      20.478  19.553   1.599  0.00  0.00     0.183 C 
HETATM   12  C   UNK N   1      21.569  20.393   2.255  0.00  0.00     0.180 C 
HETATM   13  C   UNK N   1      22.066  19.794   3.584  0.00  0.00     0.180 C 
HETATM   14  O   UNK N   1      21.081  19.097   4.331  0.00  0.00    -0.348 OA
BRANCH  10  15
HETATM   15  O   UNK N   1      19.574  17.357   1.443  0.00  0.00    -0.388 OA
HETATM   16  H   UNK N   1      19.163  16.603   1.895  0.00  0.00     0.210 HD
ENDBRANCH  10  15
BRANCH  11  17
HETATM   17  O   UNK N   1      20.551  19.665   0.211  0.00  0.00    -0.390 OA
HETATM   18  H   UNK N   1      20.860  19.209  -0.588  0.00  0.00     0.210 HD
ENDBRANCH  11  17
BRANCH  12  19
HETATM   19  O   UNK N   1      21.087  21.686   2.454  0.00  0.00    -0.390 OA
HETATM   20  H   UNK N   1      20.301  22.017   1.992  0.00  0.00     0.210 HD
ENDBRANCH  12  19
BRANCH  13  21
HETATM   21  C   UNK N   1      23.346  18.979   3.419  0.00  0.00     0.215 C 
BRANCH  21  22
HETATM   22  O   UNK N   1      24.440  19.679   3.888  0.00  0.00    -0.295 OA
BRANCH  22  23
HETATM   23  C   UNK N   1      25.385  20.219   3.078  0.00  0.00     0.406 C 
HETATM   24  O   UNK N   1      25.035  20.848   2.091  0.00  0.00    -0.230 OA
BRANCH  23  25
HETATM   25  O   UNK N   1      26.705  20.046   3.352  0.00  0.00    -0.298 OA
BRANCH  25  26
HETATM   26  C   UNK N   1      27.155  19.631   4.583  0.00  0.00     0.176 C 
HETATM   27  C   UNK N   1      27.432  20.838   5.453  0.00  0.00     0.034 C 
ENDBRANCH  25  26
ENDBRANCH  23  25
ENDBRANCH  22  23
ENDBRANCH  21  22
ENDBRANCH  13  21
ENDBRANCH   8   9
ENDBRANCH   1   8
BRANCH   2  28
HETATM   28  C   UNK N   1      22.187  14.660   5.096  0.00  0.00     0.083 C 
BRANCH  28  29
HETATM   29  C   UNK N   1      23.395  15.324   4.535  0.00  0.00    -0.054 A 
HETATM   30  C   UNK N   1      23.668  15.206   3.171  0.00  0.00     0.010 A 
HETATM   31  C   UNK N   1      24.885  15.661   2.663  0.00  0.00     0.037 A 
HETATM   32  C   UNK N   1      25.843  16.207   3.521  0.00  0.00     0.069 A 
HETATM   33  C   UNK N   1      25.534  16.403   4.877  0.00  0.00     0.037 A 
HETATM   34  C   UNK N   1      24.301  15.982   5.375  0.00  0.00     0.010 A 
BRANCH  32  35
HETATM   35  O   UNK N   1      27.087  16.437   3.039  0.00  0.00    -0.347 OA
BRANCH  35  36
HETATM   36  C   UNK N   1      28.172  15.603   3.282  0.00  0.00     0.120 C 
HETATM   37  C   UNK N   1      28.492  14.700   2.111  0.00  0.00     0.040 C 
HETATM   38  C   UNK N   1      29.409  16.354   3.776  0.00  0.00     0.040 C 
ENDBRANCH  35  36
ENDBRANCH  32  35
ENDBRANCH  28  29
ENDBRANCH   2  28
BRANCH   4  39
HETATM   39  C   UNK N   1      19.672  16.926   8.920  0.00  0.00     0.100 C 
HETATM   40  C   UNK N   1      18.251  16.427   9.105  0.00  0.00     0.034 C 
HETATM   41  C   UNK N   1      19.703  18.426   9.165  0.00  0.00     0.034 C 
ENDBRANCH   4  39
TORSDOF 15
ENDMDL
MODEL 6
REMARK VINA RESULT:      -7.7      5.943     10.557
REMARK  15 active torsions:
REMARK  status: ('A' for Active; 'I' for Inactive)
REMARK    1  A    between atoms: C_2  and  O_3 
REMARK    2  A    between atoms: O_3  and  C_4 
REMARK    3  A    between atoms: C_4  and  O_6 
REMARK    4  A    between atoms: O_6  and  C_7 
REMARK    5  A    between atoms: C_8  and  C_7 
REMARK    6  A    between atoms: C_9  and  O_38 
REMARK    7  A    between atoms: C_10  and  O_37 
REMARK    8  A    between atoms: C_11  and  O_36 
REMARK    9  A    between atoms: C_12  and  O_14 
REMARK   10  A    between atoms: O_14  and  C_15 
REMARK   11  A    between atoms: C_16  and  C_25 
REMARK   12  A    between atoms: N_18  and  C_21 
REMARK   13  A    between atoms: C_25  and  C_26 
REMARK   14  A    between atoms: C_29  and  O_32 
REMARK   15  A    between atoms: O_32  and  C_33 
ROOT
HETATM    1  C   UNK N   1      20.144  15.946   3.612  0.00  0.00     0.168 A 
HETATM    2  C   UNK N   1      21.266  15.424   4.228  0.00  0.00     0.022 A 
HETATM    3  C   UNK N   1      21.593  14.314   3.447  0.00  0.00     0.036 A 
HETATM    4  N   UNK N   1      20.686  14.199   2.456  0.00  0.00    -0.290 N 
HETATM    5  N   UNK N   1      19.805  15.191   2.547  0.00  0.00    -0.277 N 
ATOM      6  HN  UNK N   1      19.015  15.353   1.922  1.00  0.00     0.189 HD
HETATM    7  C   UNK N   1      22.749  13.381   3.593  0.00  0.00     0.070 C 
ENDROOT
BRANCH   1   8
HETATM    8  O   UNK N   1      19.549  17.118   3.939  0.00  0.00    -0.300 OA
BRANCH   8   9
HETATM    9  C   UNK N   1      19.852  18.359   3.418  0.00  0.00     0.300 C 
HETATM   10  C   UNK N   1      20.245  18.325   1.934  0.00  0.00     0.205 C 
HETATM   11  C   UNK N   1      20.466  19.768   1.537  0.00  0.00     0.183 C 
HETATM   12  C   UNK N   1      21.607  20.373   2.347  0.00  0.00     0.180 C 
HETATM   13  C   UNK N   1      21.820  19.666   3.700  0.00  0.00     0.180 C 
HETATM   14  O   UNK N   1      20.639  19.156   4.299  0.00  0.00    -0.348 OA
BRANCH  10  15
HETATM   15  O   UNK N   1      19.192  17.788   1.190  0.00  0.00    -0.388 OA
HETATM   16  H   UNK N   1      19.144  17.894   0.227  0.00  0.00     0.210 HD
ENDBRANCH  10  15
BRANCH  11  17
HETATM   17  O   UNK N   1      20.725  19.891   0.172  0.00  0.00    -0.390 OA
HETATM   18  H   UNK N   1      20.466  19.549  -0.698  0.00  0.00     0.210 HD
ENDBRANCH  11  17
BRANCH  12  19
HETATM   19  O   UNK N   1      21.355  21.731   2.542  0.00  0.00    -0.390 OA
HETATM   20  H   UNK N   1      20.749  22.227   1.971  0.00  0.00     0.210 HD
ENDBRANCH  12  19
BRANCH  13  21
HETATM   21  C   UNK N   1      22.936  18.626   3.649  0.00  0.00     0.215 C 
BRANCH  21  22
HETATM   22  O   UNK N   1      24.176  19.232   3.630  0.00  0.00    -0.295 OA
BRANCH  22  23
HETATM   23  C   UNK N   1      25.319  18.609   4.008  0.00  0.00     0.406 C 
HETATM   24  O   UNK N   1      25.419  17.400   3.851  0.00  0.00    -0.230 OA
BRANCH  23  25
HETATM   25  O   UNK N   1      26.334  19.315   4.571  0.00  0.00    -0.298 OA
BRANCH  25  26
HETATM   26  C   UNK N   1      26.114  20.393   5.397  0.00  0.00     0.176 C 
HETATM   27  C   UNK N   1      27.442  20.974   5.832  0.00  0.00     0.034 C 
ENDBRANCH  25  26
ENDBRANCH  23  25
ENDBRANCH  22  23
ENDBRANCH  21  22
ENDBRANCH  13  21
ENDBRANCH   8   9
ENDBRANCH   1   8
BRANCH   2  28
HETATM   28  C   UNK N   1      21.931  16.030   5.451  0.00  0.00     0.083 C 
BRANCH  28  29
HETATM   29  C   UNK N   1      21.768  15.225   6.693  0.00  0.00    -0.054 A 
HETATM   30  C   UNK N   1      20.644  15.425   7.495  0.00  0.00     0.010 A 
HETATM   31  C   UNK N   1      20.566  14.817   8.748  0.00  0.00     0.037 A 
HETATM   32  C   UNK N   1      21.625  14.035   9.215  0.00  0.00     0.069 A 
HETATM   33  C   UNK N   1      22.717  13.767   8.374  0.00  0.00     0.037 A 
HETATM   34  C   UNK N   1      22.775  14.344   7.106  0.00  0.00     0.010 A 
BRANCH  32  35
HETATM   35  O   UNK N   1      21.616  13.642  10.510  0.00  0.00    -0.347 OA
BRANCH  35  36
HETATM   36  C   UNK N   1      21.536  12.313  10.910  0.00  0.00     0.120 C 
HETATM   37  C   UNK N   1      22.785  11.836  11.617  0.00  0.00     0.040 C 
HETATM   38  C   UNK N   1      20.274  12.003  11.716  0.00  0.00     0.040 C 
ENDBRANCH  35  36
ENDBRANCH  32  35
ENDBRANCH  28  29
ENDBRANCH   2  28
BRANCH   4  39
HETATM   39  C   UNK N   1      20.697  13.173   1.403  0.00  0.00     0.100 C 
HETATM   40  C   UNK N   1      21.836  13.372   0.420  0.00  0.00     0.034 C 
HETATM   41  C   UNK N   1      19.383  13.157   0.639  0.00  0.00     0.034 C 
ENDBRANCH   4  39
TORSDOF 15
ENDMDL
MODEL 7
REMARK VINA RESULT:      -7.6      3.903      9.987
REMARK  15 active torsions:
REMARK  status: ('A' for Active; 'I' for Inactive)
REMARK    1  A    between atoms: C_2  and  O_3 
REMARK    2  A    between atoms: O_3  and  C_4 
REMARK    3  A    between atoms: C_4  and  O_6 
REMARK    4  A    between atoms: O_6  and  C_7 
REMARK    5  A    between atoms: C_8  and  C_7 
REMARK    6  A    between atoms: C_9  and  O_38 
REMARK    7  A    between atoms: C_10  and  O_37 
REMARK    8  A    between atoms: C_11  and  O_36 
REMARK    9  A    between atoms: C_12  and  O_14 
REMARK   10  A    between atoms: O_14  and  C_15 
REMARK   11  A    between atoms: C_16  and  C_25 
REMARK   12  A    between atoms: N_18  and  C_21 
REMARK   13  A    between atoms: C_25  and  C_26 
REMARK   14  A    between atoms: C_29  and  O_32 
REMARK   15  A    between atoms: O_32  and  C_33 
ROOT
HETATM    1  C   UNK N   1      22.134  14.788   4.886  0.00  0.00     0.168 A 
HETATM    2  C   UNK N   1      23.458  14.632   5.253  0.00  0.00     0.022 A 
HETATM    3  C   UNK N   1      23.409  14.485   6.640  0.00  0.00     0.036 A 
HETATM    4  N   UNK N   1      22.125  14.580   7.040  0.00  0.00    -0.290 N 
HETATM    5  N   UNK N   1      21.343  14.759   5.979  0.00  0.00    -0.277 N 
ATOM      6  HN  UNK N   1      20.328  14.856   5.989  1.00  0.00     0.189 HD
HETATM    7  C   UNK N   1      24.532  14.229   7.590  0.00  0.00     0.070 C 
ENDROOT
BRANCH   1   8
HETATM    8  O   UNK N   1      21.677  14.826   3.613  0.00  0.00    -0.300 OA
BRANCH   8   9
HETATM    9  C   UNK N   1      20.765  15.726   3.101  0.00  0.00     0.300 C 
HETATM   10  C   UNK N   1      21.162  16.295   1.732  0.00  0.00     0.205 C 
HETATM   11  C   UNK N   1      20.017  17.193   1.315  0.00  0.00     0.183 C 
HETATM   12  C   UNK N   1      19.851  18.338   2.308  0.00  0.00     0.180 C 
HETATM   13  C   UNK N   1      20.392  17.997   3.709  0.00  0.00     0.180 C 
HETATM   14  O   UNK N   1      20.267  16.633   4.082  0.00  0.00    -0.348 OA
BRANCH  10  15
HETATM   15  O   UNK N   1      21.296  15.248   0.817  0.00  0.00    -0.388 OA
HETATM   16  H   UNK N   1      22.076  14.672   0.813  0.00  0.00     0.210 HD
ENDBRANCH  10  15
BRANCH  11  17
HETATM   17  O   UNK N   1      20.201  17.694   0.026  0.00  0.00    -0.390 OA
HETATM   18  H   UNK N   1      20.175  18.510  -0.498  0.00  0.00     0.210 HD
ENDBRANCH  11  17
BRANCH  12  19
HETATM   19  O   UNK N   1      18.502  18.685   2.378  0.00  0.00    -0.390 OA
HETATM   20  H   UNK N   1      18.202  19.488   2.832  0.00  0.00     0.210 HD
ENDBRANCH  12  19
BRANCH  13  21
HETATM   21  C   UNK N   1      21.804  18.529   3.939  0.00  0.00     0.215 C 
BRANCH  21  22
HETATM   22  O   UNK N   1      22.269  19.193   2.822  0.00  0.00    -0.295 OA
BRANCH  22  23
HETATM   23  C   UNK N   1      22.609  20.506   2.820  0.00  0.00     0.406 C 
HETATM   24  O   UNK N   1      21.725  21.350   2.802  0.00  0.00    -0.230 OA
BRANCH  23  25
HETATM   25  O   UNK N   1      23.916  20.878   2.821  0.00  0.00    -0.298 OA
BRANCH  25  26
HETATM   26  C   UNK N   1      24.943  19.964   2.771  0.00  0.00     0.176 C 
HETATM   27  C   UNK N   1      26.246  20.652   3.120  0.00  0.00     0.034 C 
ENDBRANCH  25  26
ENDBRANCH  23  25
ENDBRANCH  22  23
ENDBRANCH  21  22
ENDBRANCH  13  21
ENDBRANCH   8   9
ENDBRANCH   1   8
BRANCH   2  28
HETATM   28  C   UNK N   1      24.620  14.602   4.274  0.00  0.00     0.083 C 
BRANCH  28  29
HETATM   29  C   UNK N   1      25.755  15.488   4.652  0.00  0.00    -0.054 A 
HETATM   30  C   UNK N   1      26.992  14.919   4.962  0.00  0.00     0.010 A 
HETATM   31  C   UNK N   1      28.008  15.712   5.493  0.00  0.00     0.037 A 
HETATM   32  C   UNK N   1      27.781  17.068   5.746  0.00  0.00     0.069 A 
HETATM   33  C   UNK N   1      26.567  17.656   5.356  0.00  0.00     0.037 A 
HETATM   34  C   UNK N   1      25.565  16.868   4.789  0.00  0.00     0.010 A 
BRANCH  32  35
HETATM   35  O   UNK N   1      28.704  17.756   6.459  0.00  0.00    -0.347 OA
BRANCH  35  36
HETATM   36  C   UNK N   1      29.029  17.466   7.778  0.00  0.00     0.120 C 
HETATM   37  C   UNK N   1      30.515  17.549   8.048  0.00  0.00     0.040 C 
HETATM   38  C   UNK N   1      28.221  18.279   8.790  0.00  0.00     0.040 C 
ENDBRANCH  35  36
ENDBRANCH  32  35
ENDBRANCH  28  29
ENDBRANCH   2  28
BRANCH   4  39
HETATM   39  C   UNK N   1      21.651  14.451   8.426  0.00  0.00     0.100 C 
HETATM   40  C   UNK N   1      21.258  13.025   8.767  0.00  0.00     0.034 C 
HETATM   41  C   UNK N   1      20.464  15.364   8.687  0.00  0.00     0.034 C 
ENDBRANCH   4  39
TORSDOF 15
ENDMDL
MODEL 8
REMARK VINA RESULT:      -7.6      2.438      4.173
REMARK  15 active torsions:
REMARK  status: ('A' for Active; 'I' for Inactive)
REMARK    1  A    between atoms: C_2  and  O_3 
REMARK    2  A    between atoms: O_3  and  C_4 
REMARK    3  A    between atoms: C_4  and  O_6 
REMARK    4  A    between atoms: O_6  and  C_7 
REMARK    5  A    between atoms: C_8  and  C_7 
REMARK    6  A    between atoms: C_9  and  O_38 
REMARK    7  A    between atoms: C_10  and  O_37 
REMARK    8  A    between atoms: C_11  and  O_36 
REMARK    9  A    between atoms: C_12  and  O_14 
REMARK   10  A    between atoms: O_14  and  C_15 
REMARK   11  A    between atoms: C_16  and  C_25 
REMARK   12  A    between atoms: N_18  and  C_21 
REMARK   13  A    between atoms: C_25  and  C_26 
REMARK   14  A    between atoms: C_29  and  O_32 
REMARK   15  A    between atoms: O_32  and  C_33 
ROOT
HETATM    1  C   UNK N   1      28.893  17.854   5.193  0.00  0.00     0.168 A 
HETATM    2  C   UNK N   1      28.039  18.934   5.079  0.00  0.00     0.022 A 
HETATM    3  C   UNK N   1      27.830  19.340   6.399  0.00  0.00     0.036 A 
HETATM    4  N   UNK N   1      28.512  18.513   7.218  0.00  0.00    -0.290 N 
HETATM    5  N   UNK N   1      29.165  17.611   6.492  0.00  0.00    -0.277 N 
ATOM      6  HN  UNK N   1      29.764  16.868   6.852  1.00  0.00     0.189 HD
HETATM    7  C   UNK N   1      27.033  20.497   6.902  0.00  0.00     0.070 C 
ENDROOT
BRANCH   1   8
HETATM    8  O   UNK N   1      29.485  17.215   4.156  0.00  0.00    -0.300 OA
BRANCH   8   9
HETATM    9  C   UNK N   1      30.532  16.319   4.241  0.00  0.00     0.300 C 
HETATM   10  C   UNK N   1      31.415  16.283   2.986  0.00  0.00     0.205 C 
HETATM   11  C   UNK N   1      32.529  15.308   3.299  0.00  0.00     0.183 C 
HETATM   12  C   UNK N   1      31.962  13.917   3.556  0.00  0.00     0.180 C 
HETATM   13  C   UNK N   1      30.498  13.948   4.038  0.00  0.00     0.180 C 
HETATM   14  O   UNK N   1      30.154  15.076   4.828  0.00  0.00    -0.348 OA
BRANCH  10  15
HETATM   15  O   UNK N   1      31.951  17.553   2.761  0.00  0.00    -0.388 OA
HETATM   16  H   UNK N   1      31.581  18.151   2.092  0.00  0.00     0.210 HD
ENDBRANCH  10  15
BRANCH  11  17
HETATM   17  O   UNK N   1      33.474  15.263   2.274  0.00  0.00    -0.390 OA
HETATM   18  H   UNK N   1      34.168  15.782   1.837  0.00  0.00     0.210 HD
ENDBRANCH  11  17
BRANCH  12  19
HETATM   19  O   UNK N   1      32.767  13.264   4.488  0.00  0.00    -0.390 OA
HETATM   20  H   UNK N   1      33.367  13.748   5.077  0.00  0.00     0.210 HD
ENDBRANCH  12  19
BRANCH  13  21
HETATM   21  C   UNK N   1      29.502  13.713   2.906  0.00  0.00     0.215 C 
BRANCH  21  22
HETATM   22  O   UNK N   1      28.212  13.643   3.391  0.00  0.00    -0.295 OA
BRANCH  22  23
HETATM   23  C   UNK N   1      27.299  14.634   3.234  0.00  0.00     0.406 C 
HETATM   24  O   UNK N   1      27.157  15.145   2.133  0.00  0.00    -0.230 OA
BRANCH  23  25
HETATM   25  O   UNK N   1      26.564  15.066   4.292  0.00  0.00    -0.298 OA
BRANCH  25  26
HETATM   26  C   UNK N   1      26.856  14.709   5.588  0.00  0.00     0.176 C 
HETATM   27  C   UNK N   1      26.126  15.632   6.542  0.00  0.00     0.034 C 
ENDBRANCH  25  26
ENDBRANCH  23  25
ENDBRANCH  22  23
ENDBRANCH  21  22
ENDBRANCH  13  21
ENDBRANCH   8   9
ENDBRANCH   1   8
BRANCH   2  28
HETATM   28  C   UNK N   1      27.536  19.492   3.759  0.00  0.00     0.083 C 
BRANCH  28  29
HETATM   29  C   UNK N   1      26.056  19.441   3.602  0.00  0.00    -0.054 A 
HETATM   30  C   UNK N   1      25.398  20.497   2.970  0.00  0.00     0.010 A 
HETATM   31  C   UNK N   1      24.005  20.554   2.977  0.00  0.00     0.037 A 
HETATM   32  C   UNK N   1      23.267  19.571   3.644  0.00  0.00     0.069 A 
HETATM   33  C   UNK N   1      23.926  18.466   4.206  0.00  0.00     0.037 A 
HETATM   34  C   UNK N   1      25.318  18.392   4.163  0.00  0.00     0.010 A 
BRANCH  32  35
HETATM   35  O   UNK N   1      21.939  19.769   3.820  0.00  0.00    -0.347 OA
BRANCH  35  36
HETATM   36  C   UNK N   1      20.973  19.356   2.910  0.00  0.00     0.120 C 
HETATM   37  C   UNK N   1      21.026  20.126   1.609  0.00  0.00     0.040 C 
HETATM   38  C   UNK N   1      20.972  17.845   2.677  0.00  0.00     0.040 C 
ENDBRANCH  35  36
ENDBRANCH  32  35
ENDBRANCH  28  29
ENDBRANCH   2  28
BRANCH   4  39
HETATM   39  C   UNK N   1      28.572  18.623   8.683  0.00  0.00     0.100 C 
HETATM   40  C   UNK N   1      29.993  18.791   9.188  0.00  0.00     0.034 C 
HETATM   41  C   UNK N   1      27.953  17.405   9.350  0.00  0.00     0.034 C 
ENDBRANCH   4  39
TORSDOF 15
ENDMDL
MODEL 9
REMARK VINA RESULT:      -7.4      5.743     10.568
REMARK  15 active torsions:
REMARK  status: ('A' for Active; 'I' for Inactive)
REMARK    1  A    between atoms: C_2  and  O_3 
REMARK    2  A    between atoms: O_3  and  C_4 
REMARK    3  A    between atoms: C_4  and  O_6 
REMARK    4  A    between atoms: O_6  and  C_7 
REMARK    5  A    between atoms: C_8  and  C_7 
REMARK    6  A    between atoms: C_9  and  O_38 
REMARK    7  A    between atoms: C_10  and  O_37 
REMARK    8  A    between atoms: C_11  and  O_36 
REMARK    9  A    between atoms: C_12  and  O_14 
REMARK   10  A    between atoms: O_14  and  C_15 
REMARK   11  A    between atoms: C_16  and  C_25 
REMARK   12  A    between atoms: N_18  and  C_21 
REMARK   13  A    between atoms: C_25  and  C_26 
REMARK   14  A    between atoms: C_29  and  O_32 
REMARK   15  A    between atoms: O_32  and  C_33 
ROOT
HETATM    1  C   UNK N   1      24.370  17.932   5.078  0.00  0.00     0.168 A 
HETATM    2  C   UNK N   1      25.212  16.838   5.152  0.00  0.00     0.022 A 
HETATM    3  C   UNK N   1      26.468  17.395   5.400  0.00  0.00     0.036 A 
HETATM    4  N   UNK N   1      26.345  18.738   5.438  0.00  0.00    -0.290 N 
HETATM    5  N   UNK N   1      25.072  19.071   5.249  0.00  0.00    -0.277 N 
ATOM      6  HN  UNK N   1      24.693  20.018   5.236  1.00  0.00     0.189 HD
HETATM    7  C   UNK N   1      27.767  16.698   5.631  0.00  0.00     0.070 C 
ENDROOT
BRANCH   1   8
HETATM    8  O   UNK N   1      23.021  17.871   4.987  0.00  0.00    -0.300 OA
BRANCH   8   9
HETATM    9  C   UNK N   1      22.286  17.774   3.822  0.00  0.00     0.300 C 
HETATM   10  C   UNK N   1      21.355  18.970   3.579  0.00  0.00     0.205 C 
HETATM   11  C   UNK N   1      20.701  18.712   2.239  0.00  0.00     0.183 C 
HETATM   12  C   UNK N   1      19.874  17.432   2.289  0.00  0.00     0.180 C 
HETATM   13  C   UNK N   1      20.365  16.445   3.366  0.00  0.00     0.180 C 
HETATM   14  O   UNK N   1      21.765  16.466   3.601  0.00  0.00    -0.348 OA
BRANCH  10  15
HETATM   15  O   UNK N   1      22.113  20.141   3.515  0.00  0.00    -0.388 OA
HETATM   16  H   UNK N   1      22.756  20.369   4.204  0.00  0.00     0.210 HD
ENDBRANCH  10  15
BRANCH  11  17
HETATM   17  O   UNK N   1      19.903  19.786   1.843  0.00  0.00    -0.390 OA
HETATM   18  H   UNK N   1      18.983  20.052   1.689  0.00  0.00     0.210 HD
ENDBRANCH  11  17
BRANCH  12  19
HETATM   19  O   UNK N   1      19.896  16.830   1.031  0.00  0.00    -0.390 OA
HETATM   20  H   UNK N   1      20.414  16.029   0.855  0.00  0.00     0.210 HD
ENDBRANCH  12  19
BRANCH  13  21
HETATM   21  C   UNK N   1      19.563  16.542   4.660  0.00  0.00     0.215 C 
BRANCH  21  22
HETATM   22  O   UNK N   1      18.614  15.542   4.729  0.00  0.00    -0.295 OA
BRANCH  22  23
HETATM   23  C   UNK N   1      18.920  14.221   4.735  0.00  0.00     0.406 C 
HETATM   24  O   UNK N   1      19.628  13.777   5.627  0.00  0.00    -0.230 OA
BRANCH  23  25
HETATM   25  O   UNK N   1      18.459  13.403   3.752  0.00  0.00    -0.298 OA
BRANCH  25  26
HETATM   26  C   UNK N   1      19.276  12.903   2.765  0.00  0.00     0.176 C 
HETATM   27  C   UNK N   1      18.906  13.529   1.437  0.00  0.00     0.034 C 
ENDBRANCH  25  26
ENDBRANCH  23  25
ENDBRANCH  22  23
ENDBRANCH  21  22
ENDBRANCH  13  21
ENDBRANCH   8   9
ENDBRANCH   1   8
BRANCH   2  28
HETATM   28  C   UNK N   1      24.756  15.395   5.017  0.00  0.00     0.083 C 
BRANCH  28  29
HETATM   29  C   UNK N   1      24.319  14.774   6.297  0.00  0.00    -0.054 A 
HETATM   30  C   UNK N   1      25.266  14.163   7.119  0.00  0.00     0.010 A 
HETATM   31  C   UNK N   1      24.853  13.419   8.224  0.00  0.00     0.037 A 
HETATM   32  C   UNK N   1      23.490  13.258   8.491  0.00  0.00     0.069 A 
HETATM   33  C   UNK N   1      22.542  13.941   7.713  0.00  0.00     0.037 A 
HETATM   34  C   UNK N   1      22.960  14.717   6.631  0.00  0.00     0.010 A 
BRANCH  32  35
HETATM   35  O   UNK N   1      23.118  12.358   9.432  0.00  0.00    -0.347 OA
BRANCH  35  36
HETATM   36  C   UNK N   1      22.563  12.712  10.656  0.00  0.00     0.120 C 
HETATM   37  C   UNK N   1      21.053  12.632  10.661  0.00  0.00     0.040 C 
HETATM   38  C   UNK N   1      23.176  11.955  11.835  0.00  0.00     0.040 C 
ENDBRANCH  35  36
ENDBRANCH  32  35
ENDBRANCH  28  29
ENDBRANCH   2  28
BRANCH   4  39
HETATM   39  C   UNK N   1      27.437  19.687   5.704  0.00  0.00     0.100 C 
HETATM   40  C   UNK N   1      26.950  20.932   6.423  0.00  0.00     0.034 C 
HETATM   41  C   UNK N   1      28.129  20.101   4.416  0.00  0.00     0.034 C 
ENDBRANCH   4  39
TORSDOF 15
ENDMDL
