MODEL 1
REMARK VINA RESULT:      -7.6      0.000      0.000
REMARK  4 active torsions:
REMARK  status: ('A' for Active; 'I' for Inactive)
REMARK    1  A    between atoms: C_6  and  O_7 
REMARK    2  A    between atoms: O_7  and  C_8 
REMARK    3  A    between atoms: C_11  and  C_15 
REMARK       I    between atoms: C_15  and  N_17 
REMARK    4  A    between atoms: N_21  and  C_24 
ROOT
HETATM    1  C   UNK N   1      34.776  14.621  11.227  0.00  0.00     0.147 A 
HETATM    2  C   UNK N   1      35.584  15.534  10.536  0.00  0.00     0.057 A 
HETATM    3  C   UNK N   1      35.323  15.812   9.208  0.00  0.00     0.022 A 
HETATM    4  C   UNK N   1      34.268  15.177   8.556  0.00  0.00     0.047 A 
HETATM    5  C   UNK N   1      33.515  14.225   9.269  0.00  0.00     0.107 A 
HETATM    6  N   UNK N   1      33.780  13.966  10.578  0.00  0.00    -0.346 N 
ATOM      7  HN  UNK N   1      33.223  13.272  11.077  1.00  0.00     0.167 HD
ENDROOT
BRANCH   4   8
HETATM    8  C   UNK N   1      33.993  15.547   7.134  0.00  0.00     0.255 C 
HETATM    9  O   UNK N   1      34.057  14.665   6.289  0.00  0.00    -0.267 OA
HETATM   10  N   UNK N   1      33.615  16.812   6.755  0.00  0.00    -0.346 N 
HETATM   11  C   UNK N   1      33.222  17.058   5.388  0.00  0.00     0.127 C 
HETATM   12  C   UNK N   1      33.320  17.851   7.705  0.00  0.00     0.145 C 
HETATM   13  C   UNK N   1      31.732  17.421   5.357  0.00  0.00     0.039 C 
HETATM   14  C   UNK N   1      30.938  16.572   6.361  0.00  0.00     0.119 C 
HETATM   15  N   UNK N   1      30.872  17.156   7.714  0.00  0.00    -0.406 N 
HETATM   16  C   UNK N   1      32.091  17.423   8.511  0.00  0.00     0.137 C 
BRANCH  15  17
HETATM   17  C   UNK N   1      29.744  18.070   7.914  0.00  0.00     0.079 A 
HETATM   18  C   UNK N   1      29.547  18.423   9.377  0.00  0.00     0.025 A 
HETATM   19  C   UNK N   1      28.246  17.639   9.387  0.00  0.00     0.004 A 
HETATM   20  C   UNK N   1      28.426  17.311   7.918  0.00  0.00     0.025 A 
ENDBRANCH  15  17
ENDBRANCH   4   8
BRANCH   1  21
HETATM   21  O   UNK N   1      34.888  14.524  12.571  0.00  0.00    -0.294 OA
BRANCH  21  22
HETATM   22  C   UNK N   1      35.733  13.596  13.095  0.00  0.00     0.078 A 
HETATM   23  C   UNK N   1      35.934  13.531  14.491  0.00  0.00     0.040 A 
HETATM   24  C   UNK N   1      36.827  12.627  15.045  0.00  0.00     0.045 A 
HETATM   25  C   UNK N   1      37.535  11.767  14.213  0.00  0.00     0.116 A 
HETATM   26  C   UNK N   1      37.329  11.798  12.826  0.00  0.00     0.045 A 
HETATM   27  F   UNK N   1      38.422  10.902  14.756  0.00  0.00    -0.206 F 
HETATM   28  C   UNK N   1      36.423  12.710  12.266  0.00  0.00     0.040 A 
ENDBRANCH  21  22
ENDBRANCH   1  21
TORSDOF 4
ENDMDL
MODEL 2
REMARK VINA RESULT:      -7.4     14.888     17.672
REMARK  4 active torsions:
REMARK  status: ('A' for Active; 'I' for Inactive)
REMARK    1  A    between atoms: C_6  and  O_7 
REMARK    2  A    between atoms: O_7  and  C_8 
REMARK    3  A    between atoms: C_11  and  C_15 
REMARK       I    between atoms: C_15  and  N_17 
REMARK    4  A    between atoms: N_21  and  C_24 
ROOT
HETATM    1  C   UNK N   1      30.300  23.126  -2.737  0.00  0.00     0.147 A 
HETATM    2  C   UNK N   1      29.059  23.167  -2.087  0.00  0.00     0.057 A 
HETATM    3  C   UNK N   1      27.964  23.707  -2.733  0.00  0.00     0.022 A 
HETATM    4  C   UNK N   1      28.098  24.220  -4.022  0.00  0.00     0.047 A 
HETATM    5  C   UNK N   1      29.372  24.212  -4.618  0.00  0.00     0.107 A 
HETATM    6  N   UNK N   1      30.440  23.671  -3.971  0.00  0.00    -0.346 N 
ATOM      7  HN  UNK N   1      31.356  23.675  -4.420  1.00  0.00     0.167 HD
ENDROOT
BRANCH   4   8
HETATM    8  C   UNK N   1      26.875  24.749  -4.701  0.00  0.00     0.255 C 
HETATM    9  O   UNK N   1      25.844  24.099  -4.613  0.00  0.00    -0.267 OA
HETATM   10  N   UNK N   1      26.854  25.955  -5.360  0.00  0.00    -0.346 N 
HETATM   11  C   UNK N   1      25.602  26.469  -5.862  0.00  0.00     0.127 C 
HETATM   12  C   UNK N   1      27.962  26.871  -5.337  0.00  0.00     0.145 C 
HETATM   13  C   UNK N   1      25.244  27.744  -5.088  0.00  0.00     0.039 C 
HETATM   14  C   UNK N   1      25.604  27.605  -3.601  0.00  0.00     0.119 C 
HETATM   15  N   UNK N   1      26.986  28.012  -3.283  0.00  0.00    -0.406 N 
HETATM   16  C   UNK N   1      28.158  27.345  -3.895  0.00  0.00     0.137 C 
BRANCH  15  17
HETATM   17  C   UNK N   1      27.131  29.436  -2.970  0.00  0.00     0.079 A 
HETATM   18  C   UNK N   1      26.722  30.322  -4.132  0.00  0.00     0.025 A 
HETATM   19  C   UNK N   1      28.169  30.744  -4.315  0.00  0.00     0.004 A 
HETATM   20  C   UNK N   1      28.576  29.882  -3.136  0.00  0.00     0.025 A 
ENDBRANCH  15  17
ENDBRANCH   4   8
BRANCH   1  21
HETATM   21  O   UNK N   1      31.304  22.397  -2.198  0.00  0.00    -0.294 OA
BRANCH  21  22
HETATM   22  C   UNK N   1      31.919  21.459  -2.966  0.00  0.00     0.078 A 
HETATM   23  C   UNK N   1      33.302  21.215  -2.813  0.00  0.00     0.040 A 
HETATM   24  C   UNK N   1      33.961  20.299  -3.617  0.00  0.00     0.045 A 
HETATM   25  C   UNK N   1      33.250  19.604  -4.589  0.00  0.00     0.116 A 
HETATM   26  C   UNK N   1      31.871  19.812  -4.738  0.00  0.00     0.045 A 
HETATM   27  F   UNK N   1      33.902  18.728  -5.387  0.00  0.00    -0.206 F 
HETATM   28  C   UNK N   1      31.203  20.736  -3.922  0.00  0.00     0.040 A 
ENDBRANCH  21  22
ENDBRANCH   1  21
TORSDOF 4
ENDMDL
MODEL 3
REMARK VINA RESULT:      -7.4      3.458      8.464
REMARK  4 active torsions:
REMARK  status: ('A' for Active; 'I' for Inactive)
REMARK    1  A    between atoms: C_6  and  O_7 
REMARK    2  A    between atoms: O_7  and  C_8 
REMARK    3  A    between atoms: C_11  and  C_15 
REMARK       I    between atoms: C_15  and  N_17 
REMARK    4  A    between atoms: N_21  and  C_24 
ROOT
HETATM    1  C   UNK N   1      34.853  16.468   9.635  0.00  0.00     0.147 A 
HETATM    2  C   UNK N   1      35.505  16.494  10.875  0.00  0.00     0.057 A 
HETATM    3  C   UNK N   1      36.250  15.403  11.281  0.00  0.00     0.022 A 
HETATM    4  C   UNK N   1      36.343  14.278  10.464  0.00  0.00     0.047 A 
HETATM    5  C   UNK N   1      35.628  14.269   9.252  0.00  0.00     0.107 A 
HETATM    6  N   UNK N   1      34.903  15.353   8.863  0.00  0.00    -0.346 N 
ATOM      7  HN  UNK N   1      34.391  15.327   7.981  1.00  0.00     0.167 HD
ENDROOT
BRANCH   4   8
HETATM    8  C   UNK N   1      37.201  13.142  10.922  0.00  0.00     0.255 C 
HETATM    9  O   UNK N   1      38.413  13.294  10.898  0.00  0.00    -0.267 OA
HETATM   10  N   UNK N   1      36.681  11.972  11.419  0.00  0.00    -0.346 N 
HETATM   11  C   UNK N   1      37.568  10.981  11.979  0.00  0.00     0.127 C 
HETATM   12  C   UNK N   1      35.276  11.791  11.668  0.00  0.00     0.145 C 
HETATM   13  C   UNK N   1      37.290  10.859  13.482  0.00  0.00     0.039 C 
HETATM   14  C   UNK N   1      37.005  12.235  14.102  0.00  0.00     0.119 C 
HETATM   15  N   UNK N   1      35.585  12.629  14.051  0.00  0.00    -0.406 N 
HETATM   16  C   UNK N   1      34.859  12.770  12.768  0.00  0.00     0.137 C 
BRANCH  15  17
HETATM   17  C   UNK N   1      34.799  12.180  15.203  0.00  0.00     0.079 A 
HETATM   18  C   UNK N   1      35.562  11.191  16.066  0.00  0.00     0.025 A 
HETATM   19  C   UNK N   1      34.608  10.089  15.639  0.00  0.00     0.004 A 
HETATM   20  C   UNK N   1      33.827  11.081  14.800  0.00  0.00     0.025 A 
ENDBRANCH  15  17
ENDBRANCH   4   8
BRANCH   1  21
HETATM   21  O   UNK N   1      34.321  17.610   9.145  0.00  0.00    -0.294 OA
BRANCH  21  22
HETATM   22  C   UNK N   1      33.446  17.535   8.106  0.00  0.00     0.078 A 
HETATM   23  C   UNK N   1      32.065  17.373   8.355  0.00  0.00     0.040 A 
HETATM   24  C   UNK N   1      31.161  17.243   7.313  0.00  0.00     0.045 A 
HETATM   25  C   UNK N   1      31.617  17.278   6.001  0.00  0.00     0.116 A 
HETATM   26  C   UNK N   1      32.981  17.465   5.733  0.00  0.00     0.045 A 
HETATM   27  F   UNK N   1      30.733  17.128   4.988  0.00  0.00    -0.206 F 
HETATM   28  C   UNK N   1      33.897  17.599   6.786  0.00  0.00     0.040 A 
ENDBRANCH  21  22
ENDBRANCH   1  21
TORSDOF 4
ENDMDL
MODEL 4
REMARK VINA RESULT:      -7.3      8.761     12.025
REMARK  4 active torsions:
REMARK  status: ('A' for Active; 'I' for Inactive)
REMARK    1  A    between atoms: C_6  and  O_7 
REMARK    2  A    between atoms: O_7  and  C_8 
REMARK    3  A    between atoms: C_11  and  C_15 
REMARK       I    between atoms: C_15  and  N_17 
REMARK    4  A    between atoms: N_21  and  C_24 
ROOT
HETATM    1  C   UNK N   1      21.456  15.865   5.719  0.00  0.00     0.147 A 
HETATM    2  C   UNK N   1      21.779  17.046   6.401  0.00  0.00     0.057 A 
HETATM    3  C   UNK N   1      22.455  18.055   5.742  0.00  0.00     0.022 A 
HETATM    4  C   UNK N   1      22.824  17.892   4.408  0.00  0.00     0.047 A 
HETATM    5  C   UNK N   1      22.531  16.670   3.776  0.00  0.00     0.107 A 
HETATM    6  N   UNK N   1      21.860  15.687   4.436  0.00  0.00    -0.346 N 
ATOM      7  HN  UNK N   1      21.658  14.808   3.960  1.00  0.00     0.167 HD
ENDROOT
BRANCH   4   8
HETATM    8  C   UNK N   1      23.509  19.030   3.722  0.00  0.00     0.255 C 
HETATM    9  O   UNK N   1      22.912  20.093   3.638  0.00  0.00    -0.267 OA
HETATM   10  N   UNK N   1      24.794  18.943   3.242  0.00  0.00    -0.346 N 
HETATM   11  C   UNK N   1      25.442  20.126   2.726  0.00  0.00     0.127 C 
HETATM   12  C   UNK N   1      25.635  17.801   3.479  0.00  0.00     0.145 C 
HETATM   13  C   UNK N   1      26.614  20.490   3.645  0.00  0.00     0.039 C 
HETATM   14  C   UNK N   1      26.250  20.259   5.119  0.00  0.00     0.119 C 
HETATM   15  N   UNK N   1      26.532  18.892   5.595  0.00  0.00    -0.406 N 
HETATM   16  C   UNK N   1      25.892  17.704   4.985  0.00  0.00     0.137 C 
BRANCH  15  17
HETATM   17  C   UNK N   1      27.888  18.710   6.119  0.00  0.00     0.079 A 
HETATM   18  C   UNK N   1      28.107  17.312   6.667  0.00  0.00     0.025 A 
HETATM   19  C   UNK N   1      28.196  17.880   8.073  0.00  0.00     0.004 A 
HETATM   20  C   UNK N   1      28.007  19.281   7.524  0.00  0.00     0.025 A 
ENDBRANCH  15  17
ENDBRANCH   4   8
BRANCH   1  21
HETATM   21  O   UNK N   1      20.604  14.984   6.291  0.00  0.00    -0.294 OA
BRANCH  21  22
HETATM   22  C   UNK N   1      20.972  14.370   7.447  0.00  0.00     0.078 A 
HETATM   23  C   UNK N   1      20.264  14.628   8.642  0.00  0.00     0.040 A 
HETATM   24  C   UNK N   1      20.651  14.052   9.842  0.00  0.00     0.045 A 
HETATM   25  C   UNK N   1      21.750  13.202   9.871  0.00  0.00     0.116 A 
HETATM   26  C   UNK N   1      22.449  12.912   8.690  0.00  0.00     0.045 A 
HETATM   27  F   UNK N   1      22.138  12.661  11.048  0.00  0.00    -0.206 F 
HETATM   28  C   UNK N   1      22.057  13.491   7.475  0.00  0.00     0.040 A 
ENDBRANCH  21  22
ENDBRANCH   1  21
TORSDOF 4
ENDMDL
MODEL 5
REMARK VINA RESULT:      -7.3     11.589     13.532
REMARK  4 active torsions:
REMARK  status: ('A' for Active; 'I' for Inactive)
REMARK    1  A    between atoms: C_6  and  O_7 
REMARK    2  A    between atoms: O_7  and  C_8 
REMARK    3  A    between atoms: C_11  and  C_15 
REMARK       I    between atoms: C_15  and  N_17 
REMARK    4  A    between atoms: N_21  and  C_24 
ROOT
HETATM    1  C   UNK N   1      21.277  13.544   8.033  0.00  0.00     0.147 A 
HETATM    2  C   UNK N   1      20.666  14.759   8.367  0.00  0.00     0.057 A 
HETATM    3  C   UNK N   1      20.717  15.819   7.482  0.00  0.00     0.022 A 
HETATM    4  C   UNK N   1      21.384  15.681   6.267  0.00  0.00     0.047 A 
HETATM    5  C   UNK N   1      22.033  14.463   5.993  0.00  0.00     0.107 A 
HETATM    6  N   UNK N   1      21.969  13.427   6.872  0.00  0.00    -0.346 N 
ATOM      7  HN  UNK N   1      22.447  12.552   6.654  1.00  0.00     0.167 HD
ENDROOT
BRANCH   4   8
HETATM    8  C   UNK N   1      21.370  16.838   5.319  0.00  0.00     0.255 C 
HETATM    9  O   UNK N   1      22.383  17.515   5.226  0.00  0.00    -0.267 OA
HETATM   10  N   UNK N   1      20.294  17.126   4.515  0.00  0.00    -0.346 N 
HETATM   11  C   UNK N   1      20.408  18.166   3.520  0.00  0.00     0.127 C 
HETATM   12  C   UNK N   1      19.147  16.264   4.415  0.00  0.00     0.145 C 
HETATM   13  C   UNK N   1      20.319  17.531   2.127  0.00  0.00     0.039 C 
HETATM   14  C   UNK N   1      21.064  16.189   2.085  0.00  0.00     0.119 C 
HETATM   15  N   UNK N   1      20.232  15.034   2.471  0.00  0.00    -0.406 N 
HETATM   16  C   UNK N   1      19.602  14.936   3.807  0.00  0.00     0.137 C 
BRANCH  15  17
HETATM   17  C   UNK N   1      19.502  14.425   1.355  0.00  0.00     0.079 A 
HETATM   18  C   UNK N   1      18.740  13.183   1.780  0.00  0.00     0.025 A 
HETATM   19  C   UNK N   1      19.684  12.326   0.955  0.00  0.00     0.004 A 
HETATM   20  C   UNK N   1      20.429  13.568   0.506  0.00  0.00     0.025 A 
ENDBRANCH  15  17
ENDBRANCH   4   8
BRANCH   1  21
HETATM   21  O   UNK N   1      21.032  12.450   8.790  0.00  0.00    -0.294 OA
BRANCH  21  22
HETATM   22  C   UNK N   1      21.681  12.315   9.978  0.00  0.00     0.078 A 
HETATM   23  C   UNK N   1      23.092  12.253  10.010  0.00  0.00     0.040 A 
HETATM   24  C   UNK N   1      23.773  12.066  11.202  0.00  0.00     0.045 A 
HETATM   25  C   UNK N   1      23.059  11.941  12.387  0.00  0.00     0.116 A 
HETATM   26  C   UNK N   1      21.659  12.027  12.380  0.00  0.00     0.045 A 
HETATM   27  F   UNK N   1      23.727  11.735  13.545  0.00  0.00    -0.206 F 
HETATM   28  C   UNK N   1      20.968  12.219  11.175  0.00  0.00     0.040 A 
ENDBRANCH  21  22
ENDBRANCH   1  21
TORSDOF 4
ENDMDL
MODEL 6
REMARK VINA RESULT:      -7.3      2.483      3.928
REMARK  4 active torsions:
REMARK  status: ('A' for Active; 'I' for Inactive)
REMARK    1  A    between atoms: C_6  and  O_7 
REMARK    2  A    between atoms: O_7  and  C_8 
REMARK    3  A    between atoms: C_11  and  C_15 
REMARK       I    between atoms: C_15  and  N_17 
REMARK    4  A    between atoms: N_21  and  C_24 
ROOT
HETATM    1  C   UNK N   1      35.768  13.401  11.642  0.00  0.00     0.147 A 
HETATM    2  C   UNK N   1      36.628  14.000  10.713  0.00  0.00     0.057 A 
HETATM    3  C   UNK N   1      36.200  15.096   9.989  0.00  0.00     0.022 A 
HETATM    4  C   UNK N   1      34.912  15.596  10.176  0.00  0.00     0.047 A 
HETATM    5  C   UNK N   1      34.060  14.932  11.077  0.00  0.00     0.107 A 
HETATM    6  N   UNK N   1      34.498  13.857  11.787  0.00  0.00    -0.346 N 
ATOM      7  HN  UNK N   1      33.865  13.390  12.436  1.00  0.00     0.167 HD
ENDROOT
BRANCH   4   8
HETATM    8  C   UNK N   1      34.510  16.814   9.407  0.00  0.00     0.255 C 
HETATM    9  O   UNK N   1      35.267  17.773   9.415  0.00  0.00    -0.267 OA
HETATM   10  N   UNK N   1      33.362  16.871   8.653  0.00  0.00    -0.346 N 
HETATM   11  C   UNK N   1      33.115  18.024   7.821  0.00  0.00     0.127 C 
HETATM   12  C   UNK N   1      32.524  15.725   8.429  0.00  0.00     0.145 C 
HETATM   13  C   UNK N   1      33.159  17.593   6.350  0.00  0.00     0.039 C 
HETATM   14  C   UNK N   1      34.270  16.559   6.113  0.00  0.00     0.119 C 
HETATM   15  N   UNK N   1      33.841  15.165   6.325  0.00  0.00    -0.406 N 
HETATM   16  C   UNK N   1      33.329  14.695   7.633  0.00  0.00     0.137 C 
BRANCH  15  17
HETATM   17  C   UNK N   1      33.279  14.524   5.133  0.00  0.00     0.079 A 
HETATM   18  C   UNK N   1      33.825  13.124   4.924  0.00  0.00     0.025 A 
HETATM   19  C   UNK N   1      34.567  13.602   3.687  0.00  0.00     0.004 A 
HETATM   20  C   UNK N   1      33.998  14.994   3.877  0.00  0.00     0.025 A 
ENDBRANCH  15  17
ENDBRANCH   4   8
BRANCH   1  21
HETATM   21  O   UNK N   1      36.262  12.484  12.504  0.00  0.00    -0.294 OA
BRANCH  21  22
HETATM   22  C   UNK N   1      35.979  12.607  13.829  0.00  0.00     0.078 A 
HETATM   23  C   UNK N   1      35.026  11.756  14.430  0.00  0.00     0.040 A 
HETATM   24  C   UNK N   1      34.684  11.895  15.767  0.00  0.00     0.045 A 
HETATM   25  C   UNK N   1      35.293  12.885  16.530  0.00  0.00     0.116 A 
HETATM   26  C   UNK N   1      36.261  13.721  15.957  0.00  0.00     0.045 A 
HETATM   27  F   UNK N   1      34.939  13.031  17.827  0.00  0.00    -0.206 F 
HETATM   28  C   UNK N   1      36.610  13.580  14.606  0.00  0.00     0.040 A 
ENDBRANCH  21  22
ENDBRANCH   1  21
TORSDOF 4
ENDMDL
MODEL 7
REMARK VINA RESULT:      -7.3     14.787     17.766
REMARK  4 active torsions:
REMARK  status: ('A' for Active; 'I' for Inactive)
REMARK    1  A    between atoms: C_6  and  O_7 
REMARK    2  A    between atoms: O_7  and  C_8 
REMARK    3  A    between atoms: C_11  and  C_15 
REMARK       I    between atoms: C_15  and  N_17 
REMARK    4  A    between atoms: N_21  and  C_24 
ROOT
HETATM    1  C   UNK N   1      30.457  23.006  -2.801  0.00  0.00     0.147 A 
HETATM    2  C   UNK N   1      30.799  23.934  -3.794  0.00  0.00     0.057 A 
HETATM    3  C   UNK N   1      29.878  24.886  -4.189  0.00  0.00     0.022 A 
HETATM    4  C   UNK N   1      28.611  24.913  -3.609  0.00  0.00     0.047 A 
HETATM    5  C   UNK N   1      28.288  23.930  -2.656  0.00  0.00     0.107 A 
HETATM    6  N   UNK N   1      29.208  23.002  -2.273  0.00  0.00    -0.346 N 
ATOM      7  HN  UNK N   1      28.954  22.297  -1.581  1.00  0.00     0.167 HD
ENDROOT
BRANCH   4   8
HETATM    8  C   UNK N   1      27.665  25.992  -4.031  0.00  0.00     0.255 C 
HETATM    9  O   UNK N   1      28.090  27.136  -4.088  0.00  0.00    -0.267 OA
HETATM   10  N   UNK N   1      26.370  25.737  -4.411  0.00  0.00    -0.346 N 
HETATM   11  C   UNK N   1      25.563  26.806  -4.948  0.00  0.00     0.127 C 
HETATM   12  C   UNK N   1      25.855  24.403  -4.567  0.00  0.00     0.145 C 
HETATM   13  C   UNK N   1      25.256  26.505  -6.420  0.00  0.00     0.039 C 
HETATM   14  C   UNK N   1      26.475  25.887  -7.121  0.00  0.00     0.119 C 
HETATM   15  N   UNK N   1      26.539  24.417  -7.017  0.00  0.00    -0.406 N 
HETATM   16  C   UNK N   1      26.619  23.728  -5.709  0.00  0.00     0.137 C 
BRANCH  15  17
HETATM   17  C   UNK N   1      25.829  23.711  -8.088  0.00  0.00     0.079 A 
HETATM   18  C   UNK N   1      25.411  22.313  -7.671  0.00  0.00     0.025 A 
HETATM   19  C   UNK N   1      26.411  21.726  -8.652  0.00  0.00     0.004 A 
HETATM   20  C   UNK N   1      26.809  23.122  -9.090  0.00  0.00     0.025 A 
ENDBRANCH  15  17
ENDBRANCH   4   8
BRANCH   1  21
HETATM   21  O   UNK N   1      31.425  22.232  -2.259  0.00  0.00    -0.294 OA
BRANCH  21  22
HETATM   22  C   UNK N   1      32.061  21.327  -3.050  0.00  0.00     0.078 A 
HETATM   23  C   UNK N   1      33.437  21.067  -2.863  0.00  0.00     0.040 A 
HETATM   24  C   UNK N   1      34.118  20.186  -3.687  0.00  0.00     0.045 A 
HETATM   25  C   UNK N   1      33.436  19.542  -4.714  0.00  0.00     0.116 A 
HETATM   26  C   UNK N   1      32.064  19.766  -4.898  0.00  0.00     0.045 A 
HETATM   27  F   UNK N   1      34.110  18.700  -5.530  0.00  0.00    -0.206 F 
HETATM   28  C   UNK N   1      31.373  20.655  -4.062  0.00  0.00     0.040 A 
ENDBRANCH  21  22
ENDBRANCH   1  21
TORSDOF 4
ENDMDL
MODEL 8
REMARK VINA RESULT:      -7.1     16.067     19.001
REMARK  4 active torsions:
REMARK  status: ('A' for Active; 'I' for Inactive)
REMARK    1  A    between atoms: C_6  and  O_7 
REMARK    2  A    between atoms: O_7  and  C_8 
REMARK    3  A    between atoms: C_11  and  C_15 
REMARK       I    between atoms: C_15  and  N_17 
REMARK    4  A    between atoms: N_21  and  C_24 
ROOT
HETATM    1  C   UNK N   1      27.787  24.596  -3.126  0.00  0.00     0.147 A 
HETATM    2  C   UNK N   1      28.928  25.213  -3.657  0.00  0.00     0.057 A 
HETATM    3  C   UNK N   1      30.139  24.547  -3.640  0.00  0.00     0.022 A 
HETATM    4  C   UNK N   1      30.226  23.271  -3.086  0.00  0.00     0.047 A 
HETATM    5  C   UNK N   1      29.070  22.710  -2.513  0.00  0.00     0.107 A 
HETATM    6  N   UNK N   1      27.883  23.376  -2.542  0.00  0.00    -0.346 N 
ATOM      7  HN  UNK N   1      27.057  22.951  -2.121  1.00  0.00     0.167 HD
ENDROOT
BRANCH   4   8
HETATM    8  C   UNK N   1      31.545  22.569  -3.136  0.00  0.00     0.255 C 
HETATM    9  O   UNK N   1      31.943  22.026  -2.116  0.00  0.00    -0.267 OA
HETATM   10  N   UNK N   1      32.286  22.462  -4.287  0.00  0.00    -0.346 N 
HETATM   11  C   UNK N   1      33.475  21.643  -4.293  0.00  0.00     0.127 C 
HETATM   12  C   UNK N   1      31.797  22.894  -5.569  0.00  0.00     0.145 C 
HETATM   13  C   UNK N   1      33.249  20.447  -5.225  0.00  0.00     0.039 C 
HETATM   14  C   UNK N   1      31.814  19.913  -5.097  0.00  0.00     0.119 C 
HETATM   15  N   UNK N   1      30.850  20.572  -5.998  0.00  0.00    -0.406 N 
HETATM   16  C   UNK N   1      30.589  22.028  -5.933  0.00  0.00     0.137 C 
BRANCH  15  17
HETATM   17  C   UNK N   1      30.742  19.944  -7.318  0.00  0.00     0.079 A 
HETATM   18  C   UNK N   1      30.124  20.875  -8.345  0.00  0.00     0.025 A 
HETATM   19  C   UNK N   1      28.888  19.993  -8.394  0.00  0.00     0.004 A 
HETATM   20  C   UNK N   1      29.517  19.046  -7.391  0.00  0.00     0.025 A 
ENDBRANCH  15  17
ENDBRANCH   4   8
BRANCH   1  21
HETATM   21  O   UNK N   1      26.573  25.149  -3.348  0.00  0.00    -0.294 OA
BRANCH  21  22
HETATM   22  C   UNK N   1      26.228  25.485  -4.620  0.00  0.00     0.078 A 
HETATM   23  C   UNK N   1      26.207  24.498  -5.631  0.00  0.00     0.040 A 
HETATM   24  C   UNK N   1      25.906  24.825  -6.944  0.00  0.00     0.045 A 
HETATM   25  C   UNK N   1      25.616  26.144  -7.273  0.00  0.00     0.116 A 
HETATM   26  C   UNK N   1      25.605  27.132  -6.278  0.00  0.00     0.045 A 
HETATM   27  F   UNK N   1      25.345  26.462  -8.559  0.00  0.00    -0.206 F 
HETATM   28  C   UNK N   1      25.905  26.803  -4.949  0.00  0.00     0.040 A 
ENDBRANCH  21  22
ENDBRANCH   1  21
TORSDOF 4
ENDMDL
MODEL 9
REMARK VINA RESULT:      -7.1      3.847      8.493
REMARK  4 active torsions:
REMARK  status: ('A' for Active; 'I' for Inactive)
REMARK    1  A    between atoms: C_6  and  O_7 
REMARK    2  A    between atoms: O_7  and  C_8 
REMARK    3  A    between atoms: C_11  and  C_15 
REMARK       I    between atoms: C_15  and  N_17 
REMARK    4  A    between atoms: N_21  and  C_24 
ROOT
HETATM    1  C   UNK N   1      33.572  16.761   9.281  0.00  0.00     0.147 A 
HETATM    2  C   UNK N   1      33.157  15.424   9.337  0.00  0.00     0.057 A 
HETATM    3  C   UNK N   1      33.788  14.545  10.197  0.00  0.00     0.022 A 
HETATM    4  C   UNK N   1      34.842  14.986  10.995  0.00  0.00     0.047 A 
HETATM    5  C   UNK N   1      35.265  16.322  10.868  0.00  0.00     0.107 A 
HETATM    6  N   UNK N   1      34.630  17.177  10.021  0.00  0.00    -0.346 N 
ATOM      7  HN  UNK N   1      34.953  18.142   9.944  1.00  0.00     0.167 HD
ENDROOT
BRANCH   4   8
HETATM    8  C   UNK N   1      35.461  14.013  11.946  0.00  0.00     0.255 C 
HETATM    9  O   UNK N   1      34.801  13.654  12.910  0.00  0.00    -0.267 OA
HETATM   10  N   UNK N   1      36.706  13.468  11.745  0.00  0.00    -0.346 N 
HETATM   11  C   UNK N   1      37.176  12.424  12.625  0.00  0.00     0.127 C 
HETATM   12  C   UNK N   1      37.461  13.680  10.539  0.00  0.00     0.145 C 
HETATM   13  C   UNK N   1      37.308  11.123  11.825  0.00  0.00     0.039 C 
HETATM   14  C   UNK N   1      36.153  10.974  10.822  0.00  0.00     0.119 C 
HETATM   15  N   UNK N   1      36.418  11.599   9.513  0.00  0.00    -0.406 N 
HETATM   16  C   UNK N   1      36.689  13.048   9.379  0.00  0.00     0.137 C 
BRANCH  15  17
HETATM   17  C   UNK N   1      37.086  10.715   8.554  0.00  0.00     0.079 A 
HETATM   18  C   UNK N   1      36.650  10.985   7.126  0.00  0.00     0.025 A 
HETATM   19  C   UNK N   1      35.946   9.639   7.091  0.00  0.00     0.004 A 
HETATM   20  C   UNK N   1      36.407   9.355   8.507  0.00  0.00     0.025 A 
ENDBRANCH  15  17
ENDBRANCH   4   8
BRANCH   1  21
HETATM   21  O   UNK N   1      32.812  17.661   8.617  0.00  0.00    -0.294 OA
BRANCH  21  22
HETATM   22  C   UNK N   1      32.607  17.491   7.283  0.00  0.00     0.078 A 
HETATM   23  C   UNK N   1      33.694  17.565   6.385  0.00  0.00     0.040 A 
HETATM   24  C   UNK N   1      33.503  17.443   5.018  0.00  0.00     0.045 A 
HETATM   25  C   UNK N   1      32.220  17.242   4.521  0.00  0.00     0.116 A 
HETATM   26  C   UNK N   1      31.132  17.139   5.399  0.00  0.00     0.045 A 
HETATM   27  F   UNK N   1      32.035  17.147   3.184  0.00  0.00    -0.206 F 
HETATM   28  C   UNK N   1      31.324  17.258   6.783  0.00  0.00     0.040 A 
ENDBRANCH  21  22
ENDBRANCH   1  21
TORSDOF 4
ENDMDL
