REMARK  14 active torsions:
REMARK  status: ('A' for Active; 'I' for Inactive)
REMARK    1  A    between atoms: C_13  and  C_9 
REMARK    2  A    between atoms: C_14  and  C_9 
REMARK    3  A    between atoms: C_15  and  C_12 
REMARK    4  A    between atoms: C_21  and  C_12 
REMARK    5  A    between atoms: C_28  and  C_13 
REMARK    6  A    between atoms: N_30  and  C_14 
REMARK    7  A    between atoms: N_30  and  C_15 
REMARK    8  A    between atoms: C_28  and  C_20 
REMARK    9  A    between atoms: C_28  and  C_22 
REMARK   10  A    between atoms: O_31  and  C_23 
REMARK   11  A    between atoms: O_32  and  C_24 
REMARK   12  A    between atoms: O_33  and  C_25 
REMARK   13  A    between atoms: O_34  and  C_26 
REMARK   14  A    between atoms: O_35  and  C_27 
ROOT
HETATM    1  C   UNK N   1       5.518  -4.770   1.607  0.00  0.00     0.074 C 
HETATM    2  C   UNK N   1       5.953  -4.299   0.273  0.00  0.00     0.079 C 
HETATM    3  N   UNK N   1       5.170  -5.160   2.642  0.00  0.00    -0.196 NA
ENDROOT
BRANCH   2   4
HETATM    4  C   UNK N   1       4.786  -4.345  -0.731  0.00  0.00     0.032 C 
BRANCH   4   5
HETATM    5  C   UNK N   1       3.516  -3.630  -0.251  0.00  0.00     0.032 C 
BRANCH   5   6
HETATM    6  C   UNK N   1       2.701  -4.480   0.736  0.00  0.00     0.272 C 
BRANCH   6   7
HETATM    7  N   UNK N   1       2.790  -5.910   0.422  0.00  0.00     0.084 N 
HETATM    8  C   UNK N   1       2.247  -6.638   1.555  0.00  0.00     0.309 C 
BRANCH   7   9
HETATM    9  C   UNK N   1       2.049  -6.356  -0.769  0.00  0.00     0.276 C 
BRANCH   9  10
HETATM   10  C   UNK N   1       1.591  -5.265  -1.750  0.00  0.00     0.068 C 
BRANCH  10  11
HETATM   11  C   UNK N   1       0.408  -4.534  -1.205  0.00  0.00    -0.054 A 
HETATM   12  C   UNK N   1       0.417  -3.141  -1.099  0.00  0.00     0.010 A 
HETATM   13  C   UNK N   1      -0.694  -2.477  -0.577  0.00  0.00     0.040 A 
HETATM   14  C   UNK N   1      -1.826  -3.198  -0.146  0.00  0.00     0.101 A 
HETATM   15  C   UNK N   1      -1.820  -4.616  -0.244  0.00  0.00     0.102 A 
HETATM   16  C   UNK N   1      -0.704  -5.256  -0.779  0.00  0.00     0.046 A 
BRANCH  14  17
HETATM   17  O   UNK N   1      -2.911  -2.549   0.344  0.00  0.00    -0.353 OA
HETATM   18  C   UNK N   1      -3.025  -1.177   0.386  0.00  0.00     0.210 C 
ENDBRANCH  14  17
BRANCH  15  19
HETATM   19  O   UNK N   1      -2.852  -5.405   0.153  0.00  0.00    -0.353 OA
HETATM   20  C   UNK N   1      -4.019  -4.967   0.730  0.00  0.00     0.210 C 
ENDBRANCH  15  19
ENDBRANCH  10  11
ENDBRANCH   9  10
ENDBRANCH   7   9
ENDBRANCH   6   7
ENDBRANCH   5   6
ENDBRANCH   4   5
ENDBRANCH   2   4
BRANCH   2  21
HETATM   21  C   UNK N   1       6.506  -2.847   0.414  0.00  0.00     0.004 C 
HETATM   22  C   UNK N   1       5.564  -1.880   1.124  0.00  0.00     0.011 C 
HETATM   23  C   UNK N   1       6.924  -2.239  -0.919  0.00  0.00     0.011 C 
ENDBRANCH   2  21
BRANCH   2  24
HETATM   24  C   UNK N   1       7.029  -5.303  -0.109  0.00  0.00    -0.030 A 
HETATM   25  C   UNK N   1       8.367  -4.919  -0.154  0.00  0.00     0.048 A 
HETATM   26  C   UNK N   1       9.397  -5.866  -0.164  0.00  0.00     0.104 A 
HETATM   27  C   UNK N   1       9.073  -7.254  -0.100  0.00  0.00     0.135 A 
HETATM   28  C   UNK N   1       7.702  -7.646  -0.123  0.00  0.00     0.104 A 
HETATM   29  C   UNK N   1       6.710  -6.666  -0.138  0.00  0.00     0.048 A 
BRANCH  26  30
HETATM   30  O   UNK N   1      10.689  -5.452  -0.196  0.00  0.00    -0.353 OA
HETATM   31  C   UNK N   1      11.054  -4.122  -0.237  0.00  0.00     0.210 C 
ENDBRANCH  26  30
BRANCH  27  32
HETATM   32  O   UNK N   1      10.032  -8.214  -0.002  0.00  0.00    -0.351 OA
HETATM   33  C   UNK N   1      11.338  -7.994   0.373  0.00  0.00     0.210 C 
ENDBRANCH  27  32
BRANCH  28  34
HETATM   34  O   UNK N   1       7.288  -8.940  -0.055  0.00  0.00    -0.353 OA
HETATM   35  C   UNK N   1       8.076 -10.014   0.292  0.00  0.00     0.210 C 
ENDBRANCH  28  34
ENDBRANCH   2  24
TORSDOF 14
