MODEL 1
REMARK VINA RESULT:      -7.5      0.000      0.000
REMARK  9 active torsions:
REMARK  status: ('A' for Active; 'I' for Inactive)
REMARK    1  A    between atoms: C_6  and  C_5 
REMARK    2  A    between atoms: N_18  and  C_5 
REMARK    3  A    between atoms: N_23  and  C_6 
REMARK    4  A    between atoms: C_13  and  C_8 
REMARK    5  A    between atoms: N_18  and  C_8 
REMARK    6  A    between atoms: C_13  and  C_10 
REMARK    7  A    between atoms: O_24  and  C_11 
REMARK    8  A    between atoms: O_25  and  C_12 
REMARK    9  A    between atoms: O_26  and  C_13 
ROOT
HETATM    1  C   UNK N   1      20.006  15.126   5.895  0.00  0.00     0.134 C 
ENDROOT
BRANCH   1   2
HETATM    2  C   UNK N   1      21.161  15.438   4.941  0.00  0.00     0.149 C 
BRANCH   2   3
HETATM    3  N   UNK N   1      20.937  16.625   4.131  0.00  0.00    -0.334 N 
HETATM    4  C   UNK N   1      19.768  16.905   3.503  0.00  0.00     0.185 A 
HETATM    5  N   UNK N   1      19.816  18.112   2.880  0.00  0.00    -0.336 N 
HETATM    6  C   UNK N   1      21.051  18.576   3.147  0.00  0.00     0.145 A 
ATOM      7  HN  UNK N   1      19.083  18.563   2.333  1.00  0.00     0.168 HD
HETATM    8  C   UNK N   1      21.735  17.685   3.898  0.00  0.00     0.149 A 
HETATM    9  N   UNK N   1      21.572  19.767   2.762  0.00  0.00    -0.287 N 
HETATM   10  C   UNK N   1      23.036  17.971   4.307  0.00  0.00     0.282 A 
HETATM   11  N   UNK N   1      23.598  19.173   3.916  0.00  0.00    -0.269 N 
HETATM   12  O   UNK N   1      23.666  17.191   4.995  0.00  0.00    -0.265 OA
HETATM   13  C   UNK N   1      24.964  19.501   4.318  0.00  0.00     0.164 C 
HETATM   14  C   UNK N   1      22.867  20.074   3.148  0.00  0.00     0.332 A 
HETATM   15  O   UNK N   1      23.365  21.139   2.818  0.00  0.00    -0.246 OA
HETATM   16  C   UNK N   1      20.779  20.699   1.971  0.00  0.00     0.163 C 
ENDBRANCH   2   3
ENDBRANCH   1   2
BRANCH   1  17
HETATM   17  N   UNK N   1      20.126  15.794   7.196  0.00  0.00    -0.417 N 
HETATM   18  H   UNK N   1      19.502  16.537   7.512  0.00  0.00     0.153 HD
BRANCH  17  19
HETATM   19  C   UNK N   1      21.246  15.275   7.990  0.00  0.00     0.150 C 
BRANCH  19  20
HETATM   20  C   UNK N   1      20.906  13.938   8.635  0.00  0.00     0.168 C 
BRANCH  20  21
HETATM   21  C   UNK N   1      22.035  13.326   9.427  0.00  0.00    -0.025 A 
HETATM   22  C   UNK N   1      23.348  13.444   8.956  0.00  0.00     0.013 A 
HETATM   23  C   UNK N   1      24.413  12.911   9.687  0.00  0.00     0.040 A 
HETATM   24  C   UNK N   1      24.176  12.272  10.906  0.00  0.00     0.098 A 
HETATM   25  C   UNK N   1      22.868  12.165  11.397  0.00  0.00     0.099 A 
HETATM   26  C   UNK N   1      21.805  12.693  10.660  0.00  0.00     0.049 A 
BRANCH  24  27
HETATM   27  O   UNK N   1      25.208  11.766  11.603  0.00  0.00    -0.358 OA
HETATM   28  H   UNK N   1      25.376  10.845  11.603  0.00  0.00     0.217 HD
ENDBRANCH  24  27
BRANCH  25  29
HETATM   29  O   UNK N   1      22.631  11.561  12.575  0.00  0.00    -0.358 OA
HETATM   30  H   UNK N   1      22.917  10.684  12.740  0.00  0.00     0.217 HD
ENDBRANCH  25  29
ENDBRANCH  20  21
BRANCH  20  31
HETATM   31  O   UNK N   1      19.745  14.061   9.402  0.00  0.00    -0.389 OA
HETATM   32  H   UNK N   1      19.448  14.602  10.150  0.00  0.00     0.210 HD
ENDBRANCH  20  31
ENDBRANCH  19  20
ENDBRANCH  17  19
ENDBRANCH   1  17
TORSDOF 9
ENDMDL
MODEL 2
REMARK VINA RESULT:      -7.4     12.511     14.808
REMARK  9 active torsions:
REMARK  status: ('A' for Active; 'I' for Inactive)
REMARK    1  A    between atoms: C_6  and  C_5 
REMARK    2  A    between atoms: N_18  and  C_5 
REMARK    3  A    between atoms: N_23  and  C_6 
REMARK    4  A    between atoms: C_13  and  C_8 
REMARK    5  A    between atoms: N_18  and  C_8 
REMARK    6  A    between atoms: C_13  and  C_10 
REMARK    7  A    between atoms: O_24  and  C_11 
REMARK    8  A    between atoms: O_25  and  C_12 
REMARK    9  A    between atoms: O_26  and  C_13 
ROOT
HETATM    1  C   UNK N   1      36.385  13.101  11.640  0.00  0.00     0.134 C 
ENDROOT
BRANCH   1   2
HETATM    2  C   UNK N   1      36.974  14.091  10.633  0.00  0.00     0.149 C 
BRANCH   2   3
HETATM    3  N   UNK N   1      36.031  15.117  10.213  0.00  0.00    -0.334 N 
HETATM    4  C   UNK N   1      35.538  16.075  11.035  0.00  0.00     0.185 A 
HETATM    5  N   UNK N   1      34.736  16.942  10.361  0.00  0.00    -0.336 N 
HETATM    6  C   UNK N   1      34.755  16.496   9.092  0.00  0.00     0.145 A 
ATOM      7  HN  UNK N   1      34.234  17.748  10.734  1.00  0.00     0.168 HD
HETATM    8  C   UNK N   1      35.531  15.394   8.993  0.00  0.00     0.149 A 
HETATM    9  N   UNK N   1      34.124  17.048   8.027  0.00  0.00    -0.287 N 
HETATM   10  C   UNK N   1      35.706  14.772   7.758  0.00  0.00     0.282 A 
HETATM   11  N   UNK N   1      35.061  15.306   6.657  0.00  0.00    -0.269 N 
HETATM   12  O   UNK N   1      36.410  13.787   7.643  0.00  0.00    -0.265 OA
HETATM   13  C   UNK N   1      35.214  14.674   5.349  0.00  0.00     0.164 C 
HETATM   14  C   UNK N   1      34.274  16.446   6.788  0.00  0.00     0.332 A 
HETATM   15  O   UNK N   1      33.719  16.920   5.809  0.00  0.00    -0.246 OA
HETATM   16  C   UNK N   1      33.318  18.251   8.188  0.00  0.00     0.163 C 
ENDBRANCH   2   3
ENDBRANCH   1   2
BRANCH   1  17
HETATM   17  N   UNK N   1      37.014  13.171  12.965  0.00  0.00    -0.417 N 
HETATM   18  H   UNK N   1      37.989  12.930  13.144  0.00  0.00     0.153 HD
BRANCH  17  19
HETATM   19  C   UNK N   1      36.081  13.626  14.003  0.00  0.00     0.150 C 
BRANCH  19  20
HETATM   20  C   UNK N   1      35.382  12.455  14.682  0.00  0.00     0.168 C 
BRANCH  20  21
HETATM   21  C   UNK N   1      35.320  12.559  16.186  0.00  0.00    -0.025 A 
HETATM   22  C   UNK N   1      35.390  11.394  16.959  0.00  0.00     0.013 A 
HETATM   23  C   UNK N   1      35.364  11.467  18.354  0.00  0.00     0.040 A 
HETATM   24  C   UNK N   1      35.287  12.708  18.990  0.00  0.00     0.098 A 
HETATM   25  C   UNK N   1      35.237  13.883  18.227  0.00  0.00     0.099 A 
HETATM   26  C   UNK N   1      35.256  13.805  16.832  0.00  0.00     0.049 A 
BRANCH  24  27
HETATM   27  O   UNK N   1      35.267  12.768  20.332  0.00  0.00    -0.358 OA
HETATM   28  H   UNK N   1      34.849  12.095  20.832  0.00  0.00     0.217 HD
ENDBRANCH  24  27
BRANCH  25  29
HETATM   29  O   UNK N   1      35.175  15.083  18.830  0.00  0.00    -0.358 OA
HETATM   30  H   UNK N   1      34.655  15.779  18.479  0.00  0.00     0.217 HD
ENDBRANCH  25  29
ENDBRANCH  20  21
BRANCH  20  31
HETATM   31  O   UNK N   1      34.115  12.269  14.125  0.00  0.00    -0.389 OA
HETATM   32  H   UNK N   1      33.330  11.735  14.320  0.00  0.00     0.210 HD
ENDBRANCH  20  31
ENDBRANCH  19  20
ENDBRANCH  17  19
ENDBRANCH   1  17
TORSDOF 9
ENDMDL
MODEL 3
REMARK VINA RESULT:      -7.4     10.085     12.273
REMARK  9 active torsions:
REMARK  status: ('A' for Active; 'I' for Inactive)
REMARK    1  A    between atoms: C_6  and  C_5 
REMARK    2  A    between atoms: N_18  and  C_5 
REMARK    3  A    between atoms: N_23  and  C_6 
REMARK    4  A    between atoms: C_13  and  C_8 
REMARK    5  A    between atoms: N_18  and  C_8 
REMARK    6  A    between atoms: C_13  and  C_10 
REMARK    7  A    between atoms: O_24  and  C_11 
REMARK    8  A    between atoms: O_25  and  C_12 
REMARK    9  A    between atoms: O_26  and  C_13 
ROOT
HETATM    1  C   UNK N   1      34.771  17.190   8.958  0.00  0.00     0.134 C 
ENDROOT
BRANCH   1   2
HETATM    2  C   UNK N   1      33.846  18.255   8.365  0.00  0.00     0.149 C 
BRANCH   2   3
HETATM    3  N   UNK N   1      32.576  17.721   7.896  0.00  0.00    -0.334 N 
HETATM    4  C   UNK N   1      31.468  17.612   8.669  0.00  0.00     0.185 A 
HETATM    5  N   UNK N   1      30.408  17.150   7.955  0.00  0.00    -0.336 N 
HETATM    6  C   UNK N   1      30.892  16.983   6.710  0.00  0.00     0.145 A 
ATOM      7  HN  UNK N   1      29.461  16.969   8.287  1.00  0.00     0.168 HD
HETATM    8  C   UNK N   1      32.199  17.323   6.665  0.00  0.00     0.149 A 
HETATM    9  N   UNK N   1      30.205  16.562   5.620  0.00  0.00    -0.287 N 
HETATM   10  C   UNK N   1      32.900  17.244   5.463  0.00  0.00     0.282 A 
HETATM   11  N   UNK N   1      32.227  16.802   4.339  0.00  0.00    -0.269 N 
HETATM   12  O   UNK N   1      34.074  17.557   5.397  0.00  0.00    -0.265 OA
HETATM   13  C   UNK N   1      32.933  16.697   3.065  0.00  0.00     0.164 C 
HETATM   14  C   UNK N   1      30.879  16.466   4.414  0.00  0.00     0.332 A 
HETATM   15  O   UNK N   1      30.287  16.091   3.413  0.00  0.00    -0.246 OA
HETATM   16  C   UNK N   1      28.789  16.231   5.722  0.00  0.00     0.163 C 
ENDBRANCH   2   3
ENDBRANCH   1   2
BRANCH   1  17
HETATM   17  N   UNK N   1      34.653  17.058  10.415  0.00  0.00    -0.417 N 
HETATM   18  H   UNK N   1      34.015  17.614  10.985  0.00  0.00     0.153 HD
BRANCH  17  19
HETATM   19  C   UNK N   1      35.557  16.038  10.959  0.00  0.00     0.150 C 
BRANCH  19  20
HETATM   20  C   UNK N   1      34.827  14.729  11.233  0.00  0.00     0.168 C 
BRANCH  20  21
HETATM   21  C   UNK N   1      35.301  14.002  12.468  0.00  0.00    -0.025 A 
HETATM   22  C   UNK N   1      34.899  12.678  12.683  0.00  0.00     0.013 A 
HETATM   23  C   UNK N   1      35.348  11.976  13.804  0.00  0.00     0.040 A 
HETATM   24  C   UNK N   1      36.219  12.585  14.711  0.00  0.00     0.098 A 
HETATM   25  C   UNK N   1      36.643  13.903  14.496  0.00  0.00     0.099 A 
HETATM   26  C   UNK N   1      36.186  14.605  13.377  0.00  0.00     0.049 A 
BRANCH  24  27
HETATM   27  O   UNK N   1      36.648  11.899  15.784  0.00  0.00    -0.358 OA
HETATM   28  H   UNK N   1      37.563  11.829  15.969  0.00  0.00     0.217 HD
ENDBRANCH  24  27
BRANCH  25  29
HETATM   29  O   UNK N   1      37.489  14.494  15.357  0.00  0.00    -0.358 OA
HETATM   30  H   UNK N   1      38.317  14.831  15.075  0.00  0.00     0.217 HD
ENDBRANCH  25  29
ENDBRANCH  20  21
BRANCH  20  31
HETATM   31  O   UNK N   1      33.449  14.950  11.260  0.00  0.00    -0.389 OA
HETATM   32  H   UNK N   1      32.797  15.409  10.709  0.00  0.00     0.210 HD
ENDBRANCH  20  31
ENDBRANCH  19  20
ENDBRANCH  17  19
ENDBRANCH   1  17
TORSDOF 9
ENDMDL
MODEL 4
REMARK VINA RESULT:      -7.1      2.374      8.933
REMARK  9 active torsions:
REMARK  status: ('A' for Active; 'I' for Inactive)
REMARK    1  A    between atoms: C_6  and  C_5 
REMARK    2  A    between atoms: N_18  and  C_5 
REMARK    3  A    between atoms: N_23  and  C_6 
REMARK    4  A    between atoms: C_13  and  C_8 
REMARK    5  A    between atoms: N_18  and  C_8 
REMARK    6  A    between atoms: C_13  and  C_10 
REMARK    7  A    between atoms: O_24  and  C_11 
REMARK    8  A    between atoms: O_25  and  C_12 
REMARK    9  A    between atoms: O_26  and  C_13 
ROOT
HETATM    1  C   UNK N   1      19.609  14.859   5.284  0.00  0.00     0.134 C 
ENDROOT
BRANCH   1   2
HETATM    2  C   UNK N   1      20.427  15.792   6.179  0.00  0.00     0.149 C 
BRANCH   2   3
HETATM    3  N   UNK N   1      21.631  15.172   6.712  0.00  0.00    -0.334 N 
HETATM    4  C   UNK N   1      22.864  15.322   6.170  0.00  0.00     0.185 A 
HETATM    5  N   UNK N   1      23.813  14.693   6.912  0.00  0.00    -0.336 N 
HETATM    6  C   UNK N   1      23.130  14.153   7.938  0.00  0.00     0.145 A 
ATOM      7  HN  UNK N   1      24.816  14.641   6.732  1.00  0.00     0.168 HD
HETATM    8  C   UNK N   1      21.813  14.434   7.824  0.00  0.00     0.149 A 
HETATM    9  N   UNK N   1      23.643  13.443   8.972  0.00  0.00    -0.287 N 
HETATM   10  C   UNK N   1      20.917  13.985   8.793  0.00  0.00     0.282 A 
HETATM   11  N   UNK N   1      21.412  13.245   9.851  0.00  0.00    -0.269 N 
HETATM   12  O   UNK N   1      19.730  14.237   8.718  0.00  0.00    -0.265 OA
HETATM   13  C   UNK N   1      20.501  12.749  10.879  0.00  0.00     0.164 C 
HETATM   14  C   UNK N   1      22.774  12.977   9.945  0.00  0.00     0.332 A 
HETATM   15  O   UNK N   1      23.206  12.335  10.890  0.00  0.00    -0.246 OA
HETATM   16  C   UNK N   1      25.076  13.190   9.055  0.00  0.00     0.163 C 
ENDBRANCH   2   3
ENDBRANCH   1   2
BRANCH   1  17
HETATM   17  N   UNK N   1      19.258  15.452   3.988  0.00  0.00    -0.417 N 
HETATM   18  H   UNK N   1      18.320  15.770   3.744  0.00  0.00     0.153 HD
BRANCH  17  19
HETATM   19  C   UNK N   1      20.409  15.534   3.081  0.00  0.00     0.150 C 
BRANCH  19  20
HETATM   20  C   UNK N   1      20.109  16.408   1.869  0.00  0.00     0.168 C 
BRANCH  20  21
HETATM   21  C   UNK N   1      20.481  17.860   2.045  0.00  0.00    -0.025 A 
HETATM   22  C   UNK N   1      20.925  18.310   3.293  0.00  0.00     0.013 A 
HETATM   23  C   UNK N   1      21.302  19.643   3.472  0.00  0.00     0.040 A 
HETATM   24  C   UNK N   1      21.256  20.535   2.398  0.00  0.00     0.098 A 
HETATM   25  C   UNK N   1      20.832  20.091   1.138  0.00  0.00     0.099 A 
HETATM   26  C   UNK N   1      20.448  18.758   0.965  0.00  0.00     0.049 A 
BRANCH  24  27
HETATM   27  O   UNK N   1      21.624  21.814   2.579  0.00  0.00    -0.358 OA
HETATM   28  H   UNK N   1      21.071  22.407   3.048  0.00  0.00     0.217 HD
ENDBRANCH  24  27
BRANCH  25  29
HETATM   29  O   UNK N   1      20.794  20.939   0.096  0.00  0.00    -0.358 OA
HETATM   30  H   UNK N   1      19.982  21.209  -0.285  0.00  0.00     0.217 HD
ENDBRANCH  25  29
ENDBRANCH  20  21
BRANCH  20  31
HETATM   31  O   UNK N   1      20.699  15.857   0.729  0.00  0.00    -0.389 OA
HETATM   32  H   UNK N   1      21.526  15.975   0.236  0.00  0.00     0.210 HD
ENDBRANCH  20  31
ENDBRANCH  19  20
ENDBRANCH  17  19
ENDBRANCH   1  17
TORSDOF 9
ENDMDL
MODEL 5
REMARK VINA RESULT:      -7.1      2.156      9.314
REMARK  9 active torsions:
REMARK  status: ('A' for Active; 'I' for Inactive)
REMARK    1  A    between atoms: C_6  and  C_5 
REMARK    2  A    between atoms: N_18  and  C_5 
REMARK    3  A    between atoms: N_23  and  C_6 
REMARK    4  A    between atoms: C_13  and  C_8 
REMARK    5  A    between atoms: N_18  and  C_8 
REMARK    6  A    between atoms: C_13  and  C_10 
REMARK    7  A    between atoms: O_24  and  C_11 
REMARK    8  A    between atoms: O_25  and  C_12 
REMARK    9  A    between atoms: O_26  and  C_13 
ROOT
HETATM    1  C   UNK N   1      20.377  16.810   7.734  0.00  0.00     0.134 C 
ENDROOT
BRANCH   1   2
HETATM    2  C   UNK N   1      20.331  15.311   7.430  0.00  0.00     0.149 C 
BRANCH   2   3
HETATM    3  N   UNK N   1      21.499  14.588   7.910  0.00  0.00    -0.334 N 
HETATM    4  C   UNK N   1      22.731  14.682   7.352  0.00  0.00     0.185 A 
HETATM    5  N   UNK N   1      23.647  13.956   8.046  0.00  0.00    -0.336 N 
HETATM    6  C   UNK N   1      22.945  13.414   9.058  0.00  0.00     0.145 A 
ATOM      7  HN  UNK N   1      24.641  13.847   7.844  1.00  0.00     0.168 HD
HETATM    8  C   UNK N   1      21.648  13.787   8.983  0.00  0.00     0.149 A 
HETATM    9  N   UNK N   1      23.425  12.623  10.048  0.00  0.00    -0.287 N 
HETATM   10  C   UNK N   1      20.740  13.352   9.946  0.00  0.00     0.282 A 
HETATM   11  N   UNK N   1      21.201  12.530  10.959  0.00  0.00    -0.269 N 
HETATM   12  O   UNK N   1      19.571  13.685   9.906  0.00  0.00    -0.265 OA
HETATM   13  C   UNK N   1      20.275  12.047  11.980  0.00  0.00     0.164 C 
HETATM   14  C   UNK N   1      22.543  12.169  11.014  0.00  0.00     0.332 A 
HETATM   15  O   UNK N   1      22.946  11.454  11.920  0.00  0.00    -0.246 OA
HETATM   16  C   UNK N   1      24.839  12.272  10.092  0.00  0.00     0.163 C 
ENDBRANCH   2   3
ENDBRANCH   1   2
BRANCH   1  17
HETATM   17  N   UNK N   1      20.868  17.619   6.611  0.00  0.00    -0.417 N 
HETATM   18  H   UNK N   1      21.442  18.455   6.722  0.00  0.00     0.153 HD
BRANCH  17  19
HETATM   19  C   UNK N   1      20.438  17.090   5.312  0.00  0.00     0.150 C 
BRANCH  19  20
HETATM   20  C   UNK N   1      21.544  17.190   4.270  0.00  0.00     0.168 C 
BRANCH  20  21
HETATM   21  C   UNK N   1      21.330  18.271   3.239  0.00  0.00    -0.025 A 
HETATM   22  C   UNK N   1      20.636  17.971   2.061  0.00  0.00     0.013 A 
HETATM   23  C   UNK N   1      20.401  18.963   1.106  0.00  0.00     0.040 A 
HETATM   24  C   UNK N   1      20.840  20.270   1.329  0.00  0.00     0.098 A 
HETATM   25  C   UNK N   1      21.517  20.587   2.514  0.00  0.00     0.099 A 
HETATM   26  C   UNK N   1      21.758  19.590   3.464  0.00  0.00     0.049 A 
BRANCH  24  27
HETATM   27  O   UNK N   1      20.604  21.217   0.406  0.00  0.00    -0.358 OA
HETATM   28  H   UNK N   1      19.777  21.261  -0.030  0.00  0.00     0.217 HD
ENDBRANCH  24  27
BRANCH  25  29
HETATM   29  O   UNK N   1      21.934  21.845   2.743  0.00  0.00    -0.358 OA
HETATM   30  H   UNK N   1      22.680  22.199   2.302  0.00  0.00     0.217 HD
ENDBRANCH  25  29
ENDBRANCH  20  21
BRANCH  20  31
HETATM   31  O   UNK N   1      22.783  17.317   4.902  0.00  0.00    -0.389 OA
HETATM   32  H   UNK N   1      23.177  17.038   5.743  0.00  0.00     0.210 HD
ENDBRANCH  20  31
ENDBRANCH  19  20
ENDBRANCH  17  19
ENDBRANCH   1  17
TORSDOF 9
ENDMDL
MODEL 6
REMARK VINA RESULT:      -7.0      5.956      7.849
REMARK  9 active torsions:
REMARK  status: ('A' for Active; 'I' for Inactive)
REMARK    1  A    between atoms: C_6  and  C_5 
REMARK    2  A    between atoms: N_18  and  C_5 
REMARK    3  A    between atoms: N_23  and  C_6 
REMARK    4  A    between atoms: C_13  and  C_8 
REMARK    5  A    between atoms: N_18  and  C_8 
REMARK    6  A    between atoms: C_13  and  C_10 
REMARK    7  A    between atoms: O_24  and  C_11 
REMARK    8  A    between atoms: O_25  and  C_12 
REMARK    9  A    between atoms: O_26  and  C_13 
ROOT
HETATM    1  C   UNK N   1      27.328  15.716   6.759  0.00  0.00     0.134 C 
ENDROOT
BRANCH   1   2
HETATM    2  C   UNK N   1      27.801  17.170   6.827  0.00  0.00     0.149 C 
BRANCH   2   3
HETATM    3  N   UNK N   1      29.120  17.320   7.425  0.00  0.00    -0.334 N 
HETATM    4  C   UNK N   1      29.347  17.351   8.761  0.00  0.00     0.185 A 
HETATM    5  N   UNK N   1      30.675  17.427   9.037  0.00  0.00    -0.336 N 
HETATM    6  C   UNK N   1      31.267  17.434   7.828  0.00  0.00     0.145 A 
ATOM      7  HN  UNK N   1      31.122  17.470   9.953  1.00  0.00     0.168 HD
HETATM    8  C   UNK N   1      30.336  17.373   6.850  0.00  0.00     0.149 A 
HETATM    9  N   UNK N   1      32.598  17.473   7.575  0.00  0.00    -0.287 N 
HETATM   10  C   UNK N   1      30.730  17.351   5.513  0.00  0.00     0.282 A 
HETATM   11  N   UNK N   1      32.082  17.405   5.226  0.00  0.00    -0.269 N 
HETATM   12  O   UNK N   1      29.911  17.283   4.617  0.00  0.00    -0.265 OA
HETATM   13  C   UNK N   1      32.529  17.395   3.836  0.00  0.00     0.164 C 
HETATM   14  C   UNK N   1      33.017  17.460   6.255  0.00  0.00     0.332 A 
HETATM   15  O   UNK N   1      34.210  17.493   5.994  0.00  0.00    -0.246 OA
HETATM   16  C   UNK N   1      33.557  17.515   8.671  0.00  0.00     0.163 C 
ENDBRANCH   2   3
ENDBRANCH   1   2
BRANCH   1  17
HETATM   17  N   UNK N   1      25.881  15.563   6.955  0.00  0.00    -0.417 N 
HETATM   18  H   UNK N   1      25.247  16.341   7.137  0.00  0.00     0.153 HD
BRANCH  17  19
HETATM   19  C   UNK N   1      25.450  14.163   6.863  0.00  0.00     0.150 C 
BRANCH  19  20
HETATM   20  C   UNK N   1      23.954  14.017   7.114  0.00  0.00     0.168 C 
BRANCH  20  21
HETATM   21  C   UNK N   1      23.607  13.396   8.444  0.00  0.00    -0.025 A 
HETATM   22  C   UNK N   1      22.288  12.996   8.693  0.00  0.00     0.013 A 
HETATM   23  C   UNK N   1      21.949  12.392   9.906  0.00  0.00     0.040 A 
HETATM   24  C   UNK N   1      22.929  12.163  10.874  0.00  0.00     0.098 A 
HETATM   25  C   UNK N   1      24.256  12.540  10.628  0.00  0.00     0.099 A 
HETATM   26  C   UNK N   1      24.591  13.151   9.417  0.00  0.00     0.049 A 
BRANCH  24  27
HETATM   27  O   UNK N   1      22.592  11.578  12.036  0.00  0.00    -0.358 OA
HETATM   28  H   UNK N   1      22.687  12.038  12.846  0.00  0.00     0.217 HD
ENDBRANCH  24  27
BRANCH  25  29
HETATM   29  O   UNK N   1      25.209  12.315  11.550  0.00  0.00    -0.358 OA
HETATM   30  H   UNK N   1      25.430  12.960  12.191  0.00  0.00     0.217 HD
ENDBRANCH  25  29
ENDBRANCH  20  21
BRANCH  20  31
HETATM   31  O   UNK N   1      23.321  15.250   6.939  0.00  0.00    -0.389 OA
HETATM   32  H   UNK N   1      22.554  15.708   7.315  0.00  0.00     0.210 HD
ENDBRANCH  20  31
ENDBRANCH  19  20
ENDBRANCH  17  19
ENDBRANCH   1  17
TORSDOF 9
ENDMDL
MODEL 7
REMARK VINA RESULT:      -6.9      4.627      6.492
REMARK  9 active torsions:
REMARK  status: ('A' for Active; 'I' for Inactive)
REMARK    1  A    between atoms: C_6  and  C_5 
REMARK    2  A    between atoms: N_18  and  C_5 
REMARK    3  A    between atoms: N_23  and  C_6 
REMARK    4  A    between atoms: C_13  and  C_8 
REMARK    5  A    between atoms: N_18  and  C_8 
REMARK    6  A    between atoms: C_13  and  C_10 
REMARK    7  A    between atoms: O_24  and  C_11 
REMARK    8  A    between atoms: O_25  and  C_12 
REMARK    9  A    between atoms: O_26  and  C_13 
ROOT
HETATM    1  C   UNK N   1      25.737  16.827   3.847  0.00  0.00     0.134 C 
ENDROOT
BRANCH   1   2
HETATM    2  C   UNK N   1      25.176  17.916   4.764  0.00  0.00     0.149 C 
BRANCH   2   3
HETATM    3  N   UNK N   1      24.226  18.796   4.102  0.00  0.00    -0.334 N 
HETATM    4  C   UNK N   1      24.566  19.960   3.496  0.00  0.00     0.185 A 
HETATM    5  N   UNK N   1      23.493  20.541   2.898  0.00  0.00    -0.336 N 
HETATM    6  C   UNK N   1      22.475  19.695   3.145  0.00  0.00     0.145 A 
ATOM      7  HN  UNK N   1      23.464  21.419   2.380  1.00  0.00     0.168 HD
HETATM    8  C   UNK N   1      22.907  18.641   3.873  0.00  0.00     0.149 A 
HETATM    9  N   UNK N   1      21.192  19.822   2.727  0.00  0.00    -0.287 N 
HETATM   10  C   UNK N   1      22.019  17.628   4.229  0.00  0.00     0.282 A 
HETATM   11  N   UNK N   1      20.700  17.741   3.829  0.00  0.00    -0.269 N 
HETATM   12  O   UNK N   1      22.388  16.664   4.872  0.00  0.00    -0.265 OA
HETATM   13  C   UNK N   1      19.739  16.703   4.194  0.00  0.00     0.164 C 
HETATM   14  C   UNK N   1      20.286  18.834   3.074  0.00  0.00     0.332 A 
HETATM   15  O   UNK N   1      19.123  18.920   2.713  0.00  0.00    -0.246 OA
HETATM   16  C   UNK N   1      20.788  20.969   1.924  0.00  0.00     0.163 C 
ENDBRANCH   2   3
ENDBRANCH   1   2
BRANCH   1  17
HETATM   17  N   UNK N   1      27.093  17.112   3.362  0.00  0.00    -0.417 N 
HETATM   18  H   UNK N   1      27.292  17.627   2.505  0.00  0.00     0.153 HD
BRANCH  17  19
HETATM   19  C   UNK N   1      28.129  16.569   4.249  0.00  0.00     0.150 C 
BRANCH  19  20
HETATM   20  C   UNK N   1      29.007  17.672   4.827  0.00  0.00     0.168 C 
BRANCH  20  21
HETATM   21  C   UNK N   1      29.202  17.589   6.322  0.00  0.00    -0.025 A 
HETATM   22  C   UNK N   1      30.461  17.255   6.833  0.00  0.00     0.013 A 
HETATM   23  C   UNK N   1      30.673  17.201   8.213  0.00  0.00     0.040 A 
HETATM   24  C   UNK N   1      29.631  17.499   9.094  0.00  0.00     0.098 A 
HETATM   25  C   UNK N   1      28.371  17.854   8.594  0.00  0.00     0.099 A 
HETATM   26  C   UNK N   1      28.161  17.900   7.213  0.00  0.00     0.049 A 
BRANCH  24  27
HETATM   27  O   UNK N   1      29.846  17.448  10.420  0.00  0.00    -0.358 OA
HETATM   28  H   UNK N   1      29.955  16.625  10.853  0.00  0.00     0.217 HD
ENDBRANCH  24  27
BRANCH  25  29
HETATM   29  O   UNK N   1      27.365  18.154   9.434  0.00  0.00    -0.358 OA
HETATM   30  H   UNK N   1      26.867  17.483   9.857  0.00  0.00     0.217 HD
ENDBRANCH  25  29
ENDBRANCH  20  21
BRANCH  20  31
HETATM   31  O   UNK N   1      30.227  17.713   4.149  0.00  0.00    -0.389 OA
HETATM   32  H   UNK N   1      31.160  17.563   4.366  0.00  0.00     0.210 HD
ENDBRANCH  20  31
ENDBRANCH  19  20
ENDBRANCH  17  19
ENDBRANCH   1  17
TORSDOF 9
ENDMDL
MODEL 8
REMARK VINA RESULT:      -6.9     11.011     14.921
REMARK  9 active torsions:
REMARK  status: ('A' for Active; 'I' for Inactive)
REMARK    1  A    between atoms: C_6  and  C_5 
REMARK    2  A    between atoms: N_18  and  C_5 
REMARK    3  A    between atoms: N_23  and  C_6 
REMARK    4  A    between atoms: C_13  and  C_8 
REMARK    5  A    between atoms: N_18  and  C_8 
REMARK    6  A    between atoms: C_13  and  C_10 
REMARK    7  A    between atoms: O_24  and  C_11 
REMARK    8  A    between atoms: O_25  and  C_12 
REMARK    9  A    between atoms: O_26  and  C_13 
ROOT
HETATM    1  C   UNK N   1      34.911  16.166   9.417  0.00  0.00     0.134 C 
ENDROOT
BRANCH   1   2
HETATM    2  C   UNK N   1      35.879  15.370  10.295  0.00  0.00     0.149 C 
BRANCH   2   3
HETATM    3  N   UNK N   1      35.320  14.117  10.782  0.00  0.00    -0.334 N 
HETATM    4  C   UNK N   1      34.723  13.195   9.988  0.00  0.00     0.185 A 
HETATM    5  N   UNK N   1      34.360  12.092  10.696  0.00  0.00    -0.336 N 
HETATM    6  C   UNK N   1      34.759  12.357  11.954  0.00  0.00     0.145 A 
ATOM      7  HN  UNK N   1      33.891  11.255  10.351  1.00  0.00     0.168 HD
HETATM    8  C   UNK N   1      35.337  13.577  12.016  0.00  0.00     0.149 A 
HETATM    9  N   UNK N   1      34.643  11.543  13.031  0.00  0.00    -0.287 N 
HETATM   10  C   UNK N   1      35.841  14.049  13.226  0.00  0.00     0.282 A 
HETATM   11  N   UNK N   1      35.722  13.245  14.345  0.00  0.00    -0.269 N 
HETATM   12  O   UNK N   1      36.376  15.138  13.303  0.00  0.00    -0.265 OA
HETATM   13  C   UNK N   1      36.230  13.713  15.632  0.00  0.00     0.164 C 
HETATM   14  C   UNK N   1      35.128  11.990  14.249  0.00  0.00     0.332 A 
HETATM   15  O   UNK N   1      35.040  11.280  15.238  0.00  0.00    -0.246 OA
HETATM   16  C   UNK N   1      34.031  10.227  12.900  0.00  0.00     0.163 C 
ENDBRANCH   2   3
ENDBRANCH   1   2
BRANCH   1  17
HETATM   17  N   UNK N   1      35.029  17.620   9.587  0.00  0.00    -0.417 N 
HETATM   18  H   UNK N   1      35.366  18.066  10.440  0.00  0.00     0.153 HD
BRANCH  17  19
HETATM   19  C   UNK N   1      34.605  18.358   8.392  0.00  0.00     0.150 C 
BRANCH  19  20
HETATM   20  C   UNK N   1      33.837  17.467   7.424  0.00  0.00     0.168 C 
BRANCH  20  21
HETATM   21  C   UNK N   1      32.338  17.529   7.580  0.00  0.00    -0.025 A 
HETATM   22  C   UNK N   1      31.520  16.947   6.604  0.00  0.00     0.013 A 
HETATM   23  C   UNK N   1      30.130  16.966   6.743  0.00  0.00     0.040 A 
HETATM   24  C   UNK N   1      29.545  17.550   7.868  0.00  0.00     0.098 A 
HETATM   25  C   UNK N   1      30.354  18.117   8.862  0.00  0.00     0.099 A 
HETATM   26  C   UNK N   1      31.744  18.103   8.717  0.00  0.00     0.049 A 
BRANCH  24  27
HETATM   27  O   UNK N   1      28.207  17.559   7.994  0.00  0.00    -0.358 OA
HETATM   28  H   UNK N   1      27.673  17.038   7.428  0.00  0.00     0.217 HD
ENDBRANCH  24  27
BRANCH  25  29
HETATM   29  O   UNK N   1      29.801  18.672   9.955  0.00  0.00    -0.358 OA
HETATM   30  H   UNK N   1      28.871  18.729  10.055  0.00  0.00     0.217 HD
ENDBRANCH  25  29
ENDBRANCH  20  21
BRANCH  20  31
HETATM   31  O   UNK N   1      34.231  17.741   6.112  0.00  0.00    -0.389 OA
HETATM   32  H   UNK N   1      34.988  17.530   5.544  0.00  0.00     0.210 HD
ENDBRANCH  20  31
ENDBRANCH  19  20
ENDBRANCH  17  19
ENDBRANCH   1  17
TORSDOF 9
ENDMDL
MODEL 9
REMARK VINA RESULT:      -6.9     12.860     14.795
REMARK  9 active torsions:
REMARK  status: ('A' for Active; 'I' for Inactive)
REMARK    1  A    between atoms: C_6  and  C_5 
REMARK    2  A    between atoms: N_18  and  C_5 
REMARK    3  A    between atoms: N_23  and  C_6 
REMARK    4  A    between atoms: C_13  and  C_8 
REMARK    5  A    between atoms: N_18  and  C_8 
REMARK    6  A    between atoms: C_13  and  C_10 
REMARK    7  A    between atoms: O_24  and  C_11 
REMARK    8  A    between atoms: O_25  and  C_12 
REMARK    9  A    between atoms: O_26  and  C_13 
ROOT
HETATM    1  C   UNK N   1      34.825  14.074  12.061  0.00  0.00     0.134 C 
ENDROOT
BRANCH   1   2
HETATM    2  C   UNK N   1      36.124  14.452  11.347  0.00  0.00     0.149 C 
BRANCH   2   3
HETATM    3  N   UNK N   1      36.039  14.350   9.898  0.00  0.00    -0.334 N 
HETATM    4  C   UNK N   1      36.422  13.259   9.191  0.00  0.00     0.185 A 
HETATM    5  N   UNK N   1      36.163  13.411   7.865  0.00  0.00    -0.336 N 
HETATM    6  C   UNK N   1      35.599  14.629   7.773  0.00  0.00     0.145 A 
ATOM      7  HN  UNK N   1      36.355  12.751   7.111  1.00  0.00     0.168 HD
HETATM    8  C   UNK N   1      35.522  15.204   8.993  0.00  0.00     0.149 A 
HETATM    9  N   UNK N   1      35.136  15.228   6.648  0.00  0.00    -0.287 N 
HETATM   10  C   UNK N   1      34.952  16.468   9.134  0.00  0.00     0.282 A 
HETATM   11  N   UNK N   1      34.486  17.108   8.000  0.00  0.00    -0.269 N 
HETATM   12  O   UNK N   1      34.860  17.000  10.224  0.00  0.00    -0.265 OA
HETATM   13  C   UNK N   1      33.892  18.438   8.110  0.00  0.00     0.164 C 
HETATM   14  C   UNK N   1      34.572  16.488   6.758  0.00  0.00     0.332 A 
HETATM   15  O   UNK N   1      34.145  17.053   5.763  0.00  0.00    -0.246 OA
HETATM   16  C   UNK N   1      35.224  14.550   5.361  0.00  0.00     0.163 C 
ENDBRANCH   2   3
ENDBRANCH   1   2
BRANCH   1  17
HETATM   17  N   UNK N   1      34.671  12.629  12.270  0.00  0.00    -0.417 N 
HETATM   18  H   UNK N   1      33.902  12.079  11.888  0.00  0.00     0.153 HD
BRANCH  17  19
HETATM   19  C   UNK N   1      35.749  12.066  13.092  0.00  0.00     0.150 C 
BRANCH  19  20
HETATM   20  C   UNK N   1      35.272  11.746  14.502  0.00  0.00     0.168 C 
BRANCH  20  21
HETATM   21  C   UNK N   1      35.572  12.821  15.517  0.00  0.00    -0.025 A 
HETATM   22  C   UNK N   1      34.912  12.806  16.752  0.00  0.00     0.013 A 
HETATM   23  C   UNK N   1      35.195  13.774  17.718  0.00  0.00     0.040 A 
HETATM   24  C   UNK N   1      36.156  14.756  17.467  0.00  0.00     0.098 A 
HETATM   25  C   UNK N   1      36.838  14.769  16.243  0.00  0.00     0.099 A 
HETATM   26  C   UNK N   1      36.547  13.804  15.275  0.00  0.00     0.049 A 
BRANCH  24  27
HETATM   27  O   UNK N   1      36.424  15.680  18.405  0.00  0.00    -0.358 OA
HETATM   28  H   UNK N   1      36.882  16.466  18.182  0.00  0.00     0.217 HD
ENDBRANCH  24  27
BRANCH  25  29
HETATM   29  O   UNK N   1      37.773  15.704  15.996  0.00  0.00    -0.358 OA
HETATM   30  H   UNK N   1      38.223  15.738  15.175  0.00  0.00     0.217 HD
ENDBRANCH  25  29
ENDBRANCH  20  21
BRANCH  20  31
HETATM   31  O   UNK N   1      33.914  11.420  14.482  0.00  0.00    -0.389 OA
HETATM   32  H   UNK N   1      33.148  11.622  13.923  0.00  0.00     0.210 HD
ENDBRANCH  20  31
ENDBRANCH  19  20
ENDBRANCH  17  19
ENDBRANCH   1  17
TORSDOF 9
ENDMDL
