MODEL 1
REMARK VINA RESULT:      -4.6      0.000      0.000
REMARK  10 active torsions:
REMARK  status: ('A' for Active; 'I' for Inactive)
REMARK    1  A    between atoms: C_3  and  C_1 
REMARK    2  A    between atoms: C_4  and  C_2 
REMARK    3  A    between atoms: O_8  and  C_2 
REMARK    4  A    between atoms: C_5  and  C_3 
REMARK    5  A    between atoms: C_3  and  O_9 
REMARK    6  A    between atoms: C_6  and  C_4 
REMARK    7  A    between atoms: C_4  and  O_10 
REMARK    8  A    between atoms: C_6  and  C_5 
REMARK    9  A    between atoms: C_5  and  O_11 
REMARK   10  A    between atoms: C_6  and  O_12 
ROOT
HETATM    1  C   UNK N   1      34.681  15.153  10.477  0.00  0.00     0.180 C 
ENDROOT
BRANCH   1   2
HETATM    2  C   UNK N   1      35.683  14.749  11.586  0.00  0.00     0.173 C 
BRANCH   2   3
HETATM    3  C   UNK N   1      35.478  13.298  12.028  0.00  0.00     0.198 C 
BRANCH   3   4
HETATM    4  O   UNK N   1      34.397  13.179  12.904  0.00  0.00    -0.398 OA
HETATM    5  H   UNK N   1      34.548  13.166  13.862  0.00  0.00     0.209 HD
ENDBRANCH   3   4
ENDBRANCH   2   3
BRANCH   2   6
HETATM    6  O   UNK N   1      36.992  14.857  11.112  0.00  0.00    -0.391 OA
HETATM    7  H   UNK N   1      37.480  14.064  10.842  0.00  0.00     0.210 HD
ENDBRANCH   2   6
ENDBRANCH   1   2
BRANCH   1   8
HETATM    8  C   UNK N   1      35.032  16.464   9.723  0.00  0.00     0.184 C 
BRANCH   8   9
HETATM    9  C   UNK N   1      33.841  17.146   9.008  0.00  0.00     0.210 C 
BRANCH   9  10
HETATM   10  C   UNK N   1      34.306  18.249   8.102  0.00  0.00     0.265 C 
HETATM   11  O   UNK N   1      35.169  19.037   8.461  0.00  0.00    -0.304 OA
ENDBRANCH   9  10
BRANCH   9  12
HETATM   12  O   UNK N   1      33.153  16.216   8.224  0.00  0.00    -0.386 OA
HETATM   13  H   UNK N   1      33.355  15.270   8.304  0.00  0.00     0.210 HD
ENDBRANCH   9  12
ENDBRANCH   8   9
BRANCH   8  14
HETATM   14  O   UNK N   1      35.628  17.366  10.613  0.00  0.00    -0.390 OA
HETATM   15  H   UNK N   1      36.434  17.115  11.091  0.00  0.00     0.210 HD
ENDBRANCH   8  14
ENDBRANCH   1   8
BRANCH   1  16
HETATM   16  O   UNK N   1      33.394  15.260  11.013  0.00  0.00    -0.390 OA
HETATM   17  H   UNK N   1      33.053  14.569  11.602  0.00  0.00     0.210 HD
ENDBRANCH   1  16
TORSDOF 10
ENDMDL
MODEL 2
REMARK VINA RESULT:      -4.6      0.897      4.920
REMARK  10 active torsions:
REMARK  status: ('A' for Active; 'I' for Inactive)
REMARK    1  A    between atoms: C_3  and  C_1 
REMARK    2  A    between atoms: C_4  and  C_2 
REMARK    3  A    between atoms: O_8  and  C_2 
REMARK    4  A    between atoms: C_5  and  C_3 
REMARK    5  A    between atoms: C_3  and  O_9 
REMARK    6  A    between atoms: C_6  and  C_4 
REMARK    7  A    between atoms: C_4  and  O_10 
REMARK    8  A    between atoms: C_6  and  C_5 
REMARK    9  A    between atoms: C_5  and  O_11 
REMARK   10  A    between atoms: C_6  and  O_12 
ROOT
HETATM    1  C   UNK N   1      34.689  16.573   9.398  0.00  0.00     0.180 C 
ENDROOT
BRANCH   1   2
HETATM    2  C   UNK N   1      33.281  16.935   8.865  0.00  0.00     0.173 C 
BRANCH   2   3
HETATM    3  C   UNK N   1      33.346  18.046   7.815  0.00  0.00     0.198 C 
BRANCH   3   4
HETATM    4  O   UNK N   1      34.615  18.130   7.237  0.00  0.00    -0.398 OA
HETATM    5  H   UNK N   1      34.978  18.993   6.986  0.00  0.00     0.209 HD
ENDBRANCH   3   4
ENDBRANCH   2   3
BRANCH   2   6
HETATM    6  O   UNK N   1      32.698  15.822   8.257  0.00  0.00    -0.391 OA
HETATM    7  H   UNK N   1      32.975  14.928   8.509  0.00  0.00     0.210 HD
ENDBRANCH   2   6
ENDBRANCH   1   2
BRANCH   1   8
HETATM    8  C   UNK N   1      34.717  15.443  10.462  0.00  0.00     0.184 C 
BRANCH   8   9
HETATM    9  C   UNK N   1      35.748  15.640  11.599  0.00  0.00     0.210 C 
BRANCH   9  10
HETATM   10  C   UNK N   1      35.891  14.397  12.430  0.00  0.00     0.265 C 
HETATM   11  O   UNK N   1      34.911  13.849  12.915  0.00  0.00    -0.304 OA
ENDBRANCH   9  10
BRANCH   9  12
HETATM   12  O   UNK N   1      37.004  15.936  11.063  0.00  0.00    -0.386 OA
HETATM   13  H   UNK N   1      37.342  16.846  11.091  0.00  0.00     0.210 HD
ENDBRANCH   9  12
ENDBRANCH   8   9
BRANCH   8  14
HETATM   14  O   UNK N   1      33.437  15.288  11.008  0.00  0.00    -0.390 OA
HETATM   15  H   UNK N   1      32.772  14.755  10.543  0.00  0.00     0.210 HD
ENDBRANCH   8  14
ENDBRANCH   1   8
BRANCH   1  16
HETATM   16  O   UNK N   1      35.310  17.713   9.920  0.00  0.00    -0.390 OA
HETATM   17  H   UNK N   1      34.925  18.590   9.767  0.00  0.00     0.210 HD
ENDBRANCH   1  16
TORSDOF 10
ENDMDL
MODEL 3
REMARK VINA RESULT:      -4.5      2.410      5.970
REMARK  10 active torsions:
REMARK  status: ('A' for Active; 'I' for Inactive)
REMARK    1  A    between atoms: C_3  and  C_1 
REMARK    2  A    between atoms: C_4  and  C_2 
REMARK    3  A    between atoms: O_8  and  C_2 
REMARK    4  A    between atoms: C_5  and  C_3 
REMARK    5  A    between atoms: C_3  and  O_9 
REMARK    6  A    between atoms: C_6  and  C_4 
REMARK    7  A    between atoms: C_4  and  O_10 
REMARK    8  A    between atoms: C_6  and  C_5 
REMARK    9  A    between atoms: C_5  and  O_11 
REMARK   10  A    between atoms: C_6  and  O_12 
ROOT
HETATM    1  C   UNK N   1      36.016  13.371  12.082  0.00  0.00     0.180 C 
ENDROOT
BRANCH   1   2
HETATM    2  C   UNK N   1      35.307  14.714  11.777  0.00  0.00     0.173 C 
BRANCH   2   3
HETATM    3  C   UNK N   1      35.886  15.384  10.529  0.00  0.00     0.198 C 
BRANCH   3   4
HETATM    4  O   UNK N   1      36.994  16.174  10.840  0.00  0.00    -0.398 OA
HETATM    5  H   UNK N   1      37.797  15.766  11.200  0.00  0.00     0.209 HD
ENDBRANCH   3   4
ENDBRANCH   2   3
BRANCH   2   6
HETATM    6  O   UNK N   1      33.949  14.496  11.540  0.00  0.00    -0.391 OA
HETATM    7  H   UNK N   1      33.290  15.130  11.862  0.00  0.00     0.210 HD
ENDBRANCH   2   6
ENDBRANCH   1   2
BRANCH   1   8
HETATM    8  C   UNK N   1      35.636  12.724  13.442  0.00  0.00     0.184 C 
BRANCH   8   9
HETATM    9  C   UNK N   1      35.968  13.579  14.688  0.00  0.00     0.210 C 
BRANCH   9  10
HETATM   10  C   UNK N   1      35.274  13.053  15.912  0.00  0.00     0.265 C 
HETATM   11  O   UNK N   1      34.088  13.276  16.107  0.00  0.00    -0.304 OA
ENDBRANCH   9  10
BRANCH   9  12
HETATM   12  O   UNK N   1      37.343  13.552  14.938  0.00  0.00    -0.386 OA
HETATM   13  H   UNK N   1      37.698  13.959  15.743  0.00  0.00     0.210 HD
ENDBRANCH   9  12
ENDBRANCH   8   9
BRANCH   8  14
HETATM   14  O   UNK N   1      34.273  12.404  13.438  0.00  0.00    -0.390 OA
HETATM   15  H   UNK N   1      33.780  12.372  14.273  0.00  0.00     0.210 HD
ENDBRANCH   8  14
ENDBRANCH   1   8
BRANCH   1  16
HETATM   16  O   UNK N   1      37.403  13.540  12.023  0.00  0.00    -0.390 OA
HETATM   17  H   UNK N   1      37.941  13.437  12.824  0.00  0.00     0.210 HD
ENDBRANCH   1  16
TORSDOF 10
ENDMDL
MODEL 4
REMARK VINA RESULT:      -4.4      1.787      2.902
REMARK  10 active torsions:
REMARK  status: ('A' for Active; 'I' for Inactive)
REMARK    1  A    between atoms: C_3  and  C_1 
REMARK    2  A    between atoms: C_4  and  C_2 
REMARK    3  A    between atoms: O_8  and  C_2 
REMARK    4  A    between atoms: C_5  and  C_3 
REMARK    5  A    between atoms: C_3  and  O_9 
REMARK    6  A    between atoms: C_6  and  C_4 
REMARK    7  A    between atoms: C_4  and  O_10 
REMARK    8  A    between atoms: C_6  and  C_5 
REMARK    9  A    between atoms: C_5  and  O_11 
REMARK   10  A    between atoms: C_6  and  O_12 
ROOT
HETATM    1  C   UNK N   1      35.344  13.836  12.285  0.00  0.00     0.180 C 
ENDROOT
BRANCH   1   2
HETATM    2  C   UNK N   1      35.921  14.026  13.709  0.00  0.00     0.173 C 
BRANCH   2   3
HETATM    3  C   UNK N   1      36.697  12.791  14.170  0.00  0.00     0.198 C 
BRANCH   3   4
HETATM    4  O   UNK N   1      37.784  13.140  14.974  0.00  0.00    -0.398 OA
HETATM    5  H   UNK N   1      38.382  12.454  15.309  0.00  0.00     0.209 HD
ENDBRANCH   3   4
ENDBRANCH   2   3
BRANCH   2   6
HETATM    6  O   UNK N   1      36.809  15.104  13.726  0.00  0.00    -0.391 OA
HETATM    7  H   UNK N   1      36.509  15.977  14.021  0.00  0.00     0.210 HD
ENDBRANCH   2   6
ENDBRANCH   1   2
BRANCH   1   8
HETATM    8  C   UNK N   1      34.817  15.133  11.613  0.00  0.00     0.184 C 
BRANCH   8   9
HETATM    9  C   UNK N   1      35.664  15.644  10.423  0.00  0.00     0.210 C 
BRANCH   9  10
HETATM   10  C   UNK N   1      34.994  16.794   9.728  0.00  0.00     0.265 C 
HETATM   11  O   UNK N   1      35.439  17.930   9.821  0.00  0.00    -0.304 OA
ENDBRANCH   9  10
BRANCH   9  12
HETATM   12  O   UNK N   1      36.909  16.090  10.875  0.00  0.00    -0.386 OA
HETATM   13  H   UNK N   1      36.960  16.785  11.550  0.00  0.00     0.210 HD
ENDBRANCH   9  12
ENDBRANCH   8   9
BRANCH   8  14
HETATM   14  O   UNK N   1      33.493  14.937  11.200  0.00  0.00    -0.390 OA
HETATM   15  H   UNK N   1      33.309  14.531  10.339  0.00  0.00     0.210 HD
ENDBRANCH   8  14
ENDBRANCH   1   8
BRANCH   1  16
HETATM   16  O   UNK N   1      34.322  12.881  12.308  0.00  0.00    -0.390 OA
HETATM   17  H   UNK N   1      33.679  12.873  13.034  0.00  0.00     0.210 HD
ENDBRANCH   1  16
TORSDOF 10
ENDMDL
MODEL 5
REMARK VINA RESULT:      -4.4      1.540      3.022
REMARK  10 active torsions:
REMARK  status: ('A' for Active; 'I' for Inactive)
REMARK    1  A    between atoms: C_3  and  C_1 
REMARK    2  A    between atoms: C_4  and  C_2 
REMARK    3  A    between atoms: O_8  and  C_2 
REMARK    4  A    between atoms: C_5  and  C_3 
REMARK    5  A    between atoms: C_3  and  O_9 
REMARK    6  A    between atoms: C_6  and  C_4 
REMARK    7  A    between atoms: C_4  and  O_10 
REMARK    8  A    between atoms: C_6  and  C_5 
REMARK    9  A    between atoms: C_5  and  O_11 
REMARK   10  A    between atoms: C_6  and  O_12 
ROOT
HETATM    1  C   UNK N   1      35.335  13.225  11.685  0.00  0.00     0.180 C 
ENDROOT
BRANCH   1   2
HETATM    2  C   UNK N   1      36.641  12.868  12.436  0.00  0.00     0.173 C 
BRANCH   2   3
HETATM    3  C   UNK N   1      37.726  12.379  11.475  0.00  0.00     0.198 C 
BRANCH   3   4
HETATM    4  O   UNK N   1      38.559  13.424  11.069  0.00  0.00    -0.398 OA
HETATM    5  H   UNK N   1      38.378  13.896  10.241  0.00  0.00     0.209 HD
ENDBRANCH   3   4
ENDBRANCH   2   3
BRANCH   2   6
HETATM    6  O   UNK N   1      37.142  13.997  13.088  0.00  0.00    -0.391 OA
HETATM    7  H   UNK N   1      36.808  14.241  13.965  0.00  0.00     0.210 HD
ENDBRANCH   2   6
ENDBRANCH   1   2
BRANCH   1   8
HETATM    8  C   UNK N   1      35.055  14.745  11.542  0.00  0.00     0.184 C 
BRANCH   8   9
HETATM    9  C   UNK N   1      35.817  15.445  10.391  0.00  0.00     0.210 C 
BRANCH   9  10
HETATM   10  C   UNK N   1      35.041  16.613   9.853  0.00  0.00     0.265 C 
HETATM   11  O   UNK N   1      35.422  17.761  10.039  0.00  0.00    -0.304 OA
ENDBRANCH   9  10
BRANCH   9  12
HETATM   12  O   UNK N   1      37.044  15.928  10.850  0.00  0.00    -0.386 OA
HETATM   13  H   UNK N   1      37.309  16.842  10.658  0.00  0.00     0.210 HD
ENDBRANCH   9  12
ENDBRANCH   8   9
BRANCH   8  14
HETATM   14  O   UNK N   1      33.678  14.952  11.391  0.00  0.00    -0.390 OA
HETATM   15  H   UNK N   1      33.056  14.232  11.580  0.00  0.00     0.210 HD
ENDBRANCH   8  14
ENDBRANCH   1   8
BRANCH   1  16
HETATM   16  O   UNK N   1      34.244  12.612  12.309  0.00  0.00    -0.390 OA
HETATM   17  H   UNK N   1      34.293  12.367  13.246  0.00  0.00     0.210 HD
ENDBRANCH   1  16
TORSDOF 10
ENDMDL
MODEL 6
REMARK VINA RESULT:      -4.4      1.683      5.302
REMARK  10 active torsions:
REMARK  status: ('A' for Active; 'I' for Inactive)
REMARK    1  A    between atoms: C_3  and  C_1 
REMARK    2  A    between atoms: C_4  and  C_2 
REMARK    3  A    between atoms: O_8  and  C_2 
REMARK    4  A    between atoms: C_5  and  C_3 
REMARK    5  A    between atoms: C_3  and  O_9 
REMARK    6  A    between atoms: C_6  and  C_4 
REMARK    7  A    between atoms: C_4  and  O_10 
REMARK    8  A    between atoms: C_6  and  C_5 
REMARK    9  A    between atoms: C_5  and  O_11 
REMARK   10  A    between atoms: C_6  and  O_12 
ROOT
HETATM    1  C   UNK N   1      34.970  14.963  11.728  0.00  0.00     0.180 C 
ENDROOT
BRANCH   1   2
HETATM    2  C   UNK N   1      35.845  15.315  10.500  0.00  0.00     0.173 C 
BRANCH   2   3
HETATM    3  C   UNK N   1      35.064  16.132   9.469  0.00  0.00     0.198 C 
BRANCH   3   4
HETATM    4  O   UNK N   1      34.503  17.276  10.041  0.00  0.00    -0.398 OA
HETATM    5  H   UNK N   1      34.755  17.544  10.939  0.00  0.00     0.209 HD
ENDBRANCH   3   4
ENDBRANCH   2   3
BRANCH   2   6
HETATM    6  O   UNK N   1      36.940  16.085  10.897  0.00  0.00    -0.391 OA
HETATM    7  H   UNK N   1      36.823  17.023  11.112  0.00  0.00     0.210 HD
ENDBRANCH   2   6
ENDBRANCH   1   2
BRANCH   1   8
HETATM    8  C   UNK N   1      35.414  13.697  12.508  0.00  0.00     0.184 C 
BRANCH   8   9
HETATM    9  C   UNK N   1      36.006  13.968  13.912  0.00  0.00     0.210 C 
BRANCH   9  10
HETATM   10  C   UNK N   1      36.800  12.794  14.407  0.00  0.00     0.265 C 
HETATM   11  O   UNK N   1      36.435  11.648  14.183  0.00  0.00    -0.304 OA
ENDBRANCH   9  10
BRANCH   9  12
HETATM   12  O   UNK N   1      36.865  15.070  13.868  0.00  0.00    -0.386 OA
HETATM   13  H   UNK N   1      36.516  15.949  13.652  0.00  0.00     0.210 HD
ENDBRANCH   9  12
ENDBRANCH   8   9
BRANCH   8  14
HETATM   14  O   UNK N   1      34.333  12.814  12.614  0.00  0.00    -0.390 OA
HETATM   15  H   UNK N   1      33.554  13.061  13.137  0.00  0.00     0.210 HD
ENDBRANCH   8  14
ENDBRANCH   1   8
BRANCH   1  16
HETATM   16  O   UNK N   1      33.635  14.819  11.337  0.00  0.00    -0.390 OA
HETATM   17  H   UNK N   1      33.028  14.278  11.866  0.00  0.00     0.210 HD
ENDBRANCH   1  16
TORSDOF 10
ENDMDL
MODEL 7
REMARK VINA RESULT:      -4.2      1.828      2.788
REMARK  10 active torsions:
REMARK  status: ('A' for Active; 'I' for Inactive)
REMARK    1  A    between atoms: C_3  and  C_1 
REMARK    2  A    between atoms: C_4  and  C_2 
REMARK    3  A    between atoms: O_8  and  C_2 
REMARK    4  A    between atoms: C_5  and  C_3 
REMARK    5  A    between atoms: C_3  and  O_9 
REMARK    6  A    between atoms: C_6  and  C_4 
REMARK    7  A    between atoms: C_4  and  O_10 
REMARK    8  A    between atoms: C_6  and  C_5 
REMARK    9  A    between atoms: C_5  and  O_11 
REMARK   10  A    between atoms: C_6  and  O_12 
ROOT
HETATM    1  C   UNK N   1      34.679  16.962   9.624  0.00  0.00     0.180 C 
ENDROOT
BRANCH   1   2
HETATM    2  C   UNK N   1      35.014  15.469   9.389  0.00  0.00     0.173 C 
BRANCH   2   3
HETATM    3  C   UNK N   1      33.886  14.556   9.873  0.00  0.00     0.198 C 
BRANCH   3   4
HETATM    4  O   UNK N   1      33.149  15.154  10.897  0.00  0.00    -0.398 OA
HETATM    5  H   UNK N   1      33.603  15.632  11.608  0.00  0.00     0.209 HD
ENDBRANCH   3   4
ENDBRANCH   2   3
BRANCH   2   6
HETATM    6  O   UNK N   1      35.188  15.226   8.025  0.00  0.00    -0.391 OA
HETATM    7  H   UNK N   1      34.512  15.508   7.390  0.00  0.00     0.210 HD
ENDBRANCH   2   6
ENDBRANCH   1   2
BRANCH   1   8
HETATM    8  C   UNK N   1      34.383  17.778   8.337  0.00  0.00     0.184 C 
BRANCH   8   9
HETATM    9  C   UNK N   1      32.882  17.988   8.027  0.00  0.00     0.210 C 
BRANCH   9  10
HETATM   10  C   UNK N   1      32.478  17.275   6.768  0.00  0.00     0.265 C 
HETATM   11  O   UNK N   1      32.947  16.180   6.487  0.00  0.00    -0.304 OA
ENDBRANCH   9  10
BRANCH   9  12
HETATM   12  O   UNK N   1      32.100  17.483   9.068  0.00  0.00    -0.386 OA
HETATM   13  H   UNK N   1      32.406  16.715   9.577  0.00  0.00     0.210 HD
ENDBRANCH   9  12
ENDBRANCH   8   9
BRANCH   8  14
HETATM   14  O   UNK N   1      35.027  19.018   8.415  0.00  0.00    -0.390 OA
HETATM   15  H   UNK N   1      35.716  19.166   9.082  0.00  0.00     0.210 HD
ENDBRANCH   8  14
ENDBRANCH   1   8
BRANCH   1  16
HETATM   16  O   UNK N   1      35.715  17.578  10.332  0.00  0.00    -0.390 OA
HETATM   17  H   UNK N   1      35.915  18.516  10.186  0.00  0.00     0.210 HD
ENDBRANCH   1  16
TORSDOF 10
ENDMDL
MODEL 8
REMARK VINA RESULT:      -4.2     11.968     13.296
REMARK  10 active torsions:
REMARK  status: ('A' for Active; 'I' for Inactive)
REMARK    1  A    between atoms: C_3  and  C_1 
REMARK    2  A    between atoms: C_4  and  C_2 
REMARK    3  A    between atoms: O_8  and  C_2 
REMARK    4  A    between atoms: C_5  and  C_3 
REMARK    5  A    between atoms: C_3  and  O_9 
REMARK    6  A    between atoms: C_6  and  C_4 
REMARK    7  A    between atoms: C_4  and  O_10 
REMARK    8  A    between atoms: C_6  and  C_5 
REMARK    9  A    between atoms: C_5  and  O_11 
REMARK   10  A    between atoms: C_6  and  O_12 
ROOT
HETATM    1  C   UNK N   1      43.433  22.761   3.699  0.00  0.00     0.180 C 
ENDROOT
BRANCH   1   2
HETATM    2  C   UNK N   1      44.597  21.874   4.205  0.00  0.00     0.173 C 
BRANCH   2   3
HETATM    3  C   UNK N   1      44.692  20.567   3.415  0.00  0.00     0.198 C 
BRANCH   3   4
HETATM    4  O   UNK N   1      46.020  20.168   3.246  0.00  0.00    -0.398 OA
HETATM    5  H   UNK N   1      46.236  19.447   2.635  0.00  0.00     0.209 HD
ENDBRANCH   3   4
ENDBRANCH   2   3
BRANCH   2   6
HETATM    6  O   UNK N   1      45.812  22.543   4.049  0.00  0.00    -0.391 OA
HETATM    7  H   UNK N   1      46.646  22.094   4.256  0.00  0.00     0.210 HD
ENDBRANCH   2   6
ENDBRANCH   1   2
BRANCH   1   8
HETATM    8  C   UNK N   1      43.412  23.001   2.165  0.00  0.00     0.184 C 
BRANCH   8   9
HETATM    9  C   UNK N   1      42.000  23.067   1.534  0.00  0.00     0.210 C 
BRANCH   9  10
HETATM   10  C   UNK N   1      41.231  21.802   1.783  0.00  0.00     0.265 C 
HETATM   11  O   UNK N   1      40.158  21.823   2.370  0.00  0.00    -0.304 OA
ENDBRANCH   9  10
BRANCH   9  12
HETATM   12  O   UNK N   1      41.272  24.121   2.091  0.00  0.00    -0.386 OA
HETATM   13  H   UNK N   1      41.581  24.548   2.906  0.00  0.00     0.210 HD
ENDBRANCH   9  12
ENDBRANCH   8   9
BRANCH   8  14
HETATM   14  O   UNK N   1      44.116  24.174   1.869  0.00  0.00    -0.390 OA
HETATM   15  H   UNK N   1      45.013  24.123   1.503  0.00  0.00     0.210 HD
ENDBRANCH   8  14
ENDBRANCH   1   8
BRANCH   1  16
HETATM   16  O   UNK N   1      43.452  23.994   4.358  0.00  0.00    -0.390 OA
HETATM   17  H   UNK N   1      43.084  24.782   3.928  0.00  0.00     0.210 HD
ENDBRANCH   1  16
TORSDOF 10
ENDMDL
MODEL 9
REMARK VINA RESULT:      -4.1      1.694      3.201
REMARK  10 active torsions:
REMARK  status: ('A' for Active; 'I' for Inactive)
REMARK    1  A    between atoms: C_3  and  C_1 
REMARK    2  A    between atoms: C_4  and  C_2 
REMARK    3  A    between atoms: O_8  and  C_2 
REMARK    4  A    between atoms: C_5  and  C_3 
REMARK    5  A    between atoms: C_3  and  O_9 
REMARK    6  A    between atoms: C_6  and  C_4 
REMARK    7  A    between atoms: C_4  and  O_10 
REMARK    8  A    between atoms: C_6  and  C_5 
REMARK    9  A    between atoms: C_5  and  O_11 
REMARK   10  A    between atoms: C_6  and  O_12 
ROOT
HETATM    1  C   UNK N   1      34.140  16.755   9.692  0.00  0.00     0.180 C 
ENDROOT
BRANCH   1   2
HETATM    2  C   UNK N   1      34.628  15.521  10.490  0.00  0.00     0.173 C 
BRANCH   2   3
HETATM    3  C   UNK N   1      35.715  15.898  11.499  0.00  0.00     0.198 C 
BRANCH   3   4
HETATM    4  O   UNK N   1      36.962  16.023  10.884  0.00  0.00    -0.398 OA
HETATM    5  H   UNK N   1      37.283  16.896  10.608  0.00  0.00     0.209 HD
ENDBRANCH   3   4
ENDBRANCH   2   3
BRANCH   2   6
HETATM    6  O   UNK N   1      33.568  14.966  11.210  0.00  0.00    -0.391 OA
HETATM    7  H   UNK N   1      33.240  15.405  12.010  0.00  0.00     0.210 HD
ENDBRANCH   2   6
ENDBRANCH   1   2
BRANCH   1   8
HETATM    8  C   UNK N   1      33.521  16.434   8.304  0.00  0.00     0.184 C 
BRANCH   8   9
HETATM    9  C   UNK N   1      34.473  16.639   7.101  0.00  0.00     0.210 C 
BRANCH   9  10
HETATM   10  C   UNK N   1      34.068  15.788   5.932  0.00  0.00     0.265 C 
HETATM   11  O   UNK N   1      32.926  15.823   5.495  0.00  0.00    -0.304 OA
ENDBRANCH   9  10
BRANCH   9  12
HETATM   12  O   UNK N   1      34.443  17.972   6.684  0.00  0.00    -0.386 OA
HETATM   13  H   UNK N   1      34.130  18.663   7.289  0.00  0.00     0.210 HD
ENDBRANCH   9  12
ENDBRANCH   8   9
BRANCH   8  14
HETATM   14  O   UNK N   1      33.036  15.121   8.305  0.00  0.00    -0.390 OA
HETATM   15  H   UNK N   1      33.377  14.478   7.664  0.00  0.00     0.210 HD
ENDBRANCH   8  14
ENDBRANCH   1   8
BRANCH   1  16
HETATM   16  O   UNK N   1      35.190  17.664   9.530  0.00  0.00    -0.390 OA
HETATM   17  H   UNK N   1      35.639  17.742   8.673  0.00  0.00     0.210 HD
ENDBRANCH   1  16
TORSDOF 10
ENDMDL
