MODEL 1
REMARK VINA RESULT:      -8.5      0.000      0.000
REMARK  3 active torsions:
REMARK  status: ('A' for Active; 'I' for Inactive)
REMARK    1  A    between atoms: C_4  and  C_7 
REMARK    2  A    between atoms: C_9  and  C_29 
REMARK    3  A    between atoms: C_10  and  N_15 
REMARK       I    between atoms: N_18  and  C_21 
ROOT
HETATM    1  C   UNK N   1      28.836  18.153   5.925  0.00  0.00     0.059 A 
HETATM    2  C   UNK N   1      29.756  17.552   5.080  0.00  0.00     0.048 A 
HETATM    3  C   UNK N   1      30.833  16.830   5.585  0.00  0.00     0.022 A 
HETATM    4  C   UNK N   1      30.989  16.780   7.006  0.00  0.00     0.129 A 
HETATM    5  N   UNK N   1      30.030  17.361   7.785  0.00  0.00    -0.284 N 
ATOM      6  HN  UNK N   1      30.114  17.294   8.800  1.00  0.00     0.188 HD
HETATM    7  N   UNK N   1      28.986  18.013   7.267  0.00  0.00    -0.298 N 
ATOM      8  HN  UNK N   1      28.287  18.414   7.893  1.00  0.00     0.187 HD
ENDROOT
BRANCH   4   9
HETATM    9  N   UNK N   1      32.150  16.237   7.645  0.00  0.00    -0.362 N 
HETATM   10  C   UNK N   1      32.364  14.819   7.673  0.00  0.00     0.145 C 
HETATM   11  C   UNK N   1      32.862  14.407   9.041  0.00  0.00     0.161 C 
HETATM   12  N   UNK N   1      33.803  15.336   9.644  0.00  0.00    -0.214 N 
HETATM   13  C   UNK N   1      34.012  16.703   9.157  0.00  0.00     0.161 C 
HETATM   14  C   UNK N   1      34.520  14.892  10.789  0.00  0.00     0.679 A 
HETATM   15  C   UNK N   1      33.328  17.040   7.824  0.00  0.00     0.145 C 
HETATM   16  N   UNK N   1      34.228  13.678  11.343  0.00  0.00    -0.202 N 
HETATM   17  N   UNK N   1      35.520  15.649  11.317  0.00  0.00    -0.202 N 
HETATM   18  C   UNK N   1      34.917  13.213  12.416  0.00  0.00     0.107 A 
ATOM     19  HN  UNK N   1      33.480  13.111  10.943  1.00  0.00     0.183 HD
HETATM   20  C   UNK N   1      35.949  13.972  12.958  0.00  0.00     0.035 A 
HETATM   21  C   UNK N   1      36.239  15.209  12.383  0.00  0.00     0.107 A 
ATOM     22  HN  UNK N   1      35.734  16.557  10.907  1.00  0.00     0.183 HD
ENDBRANCH   4   9
BRANCH   3  23
HETATM   23  C   UNK N   1      31.670  16.105   4.582  0.00  0.00    -0.019 A 
HETATM   24  C   UNK N   1      32.715  16.774   3.923  0.00  0.00     0.029 A 
HETATM   25  C   UNK N   1      33.444  16.125   2.925  0.00  0.00     0.088 A 
HETATM   26  N   UNK N   1      33.125  14.853   2.566  0.00  0.00    -0.375 N 
HETATM   27  C   UNK N   1      32.096  14.191   3.157  0.00  0.00     0.088 A 
ATOM     28  HN  UNK N   1      33.668  14.388   1.840  1.00  0.00     0.164 HD
HETATM   29  C   UNK N   1      31.350  14.809   4.161  0.00  0.00     0.029 A 
ENDBRANCH   3  23
BRANCH   1  30
HETATM   30  C   UNK N   1      27.714  18.927   5.358  0.00  0.00    -0.008 A 
HETATM   31  C   UNK N   1      27.109  18.513   4.158  0.00  0.00     0.014 A 
HETATM   32  C   UNK N   1      26.061  19.249   3.602  0.00  0.00     0.001 A 
HETATM   33  C   UNK N   1      25.603  20.402   4.243  0.00  0.00     0.000 A 
HETATM   34  C   UNK N   1      26.196  20.819   5.439  0.00  0.00     0.001 A 
HETATM   35  C   UNK N   1      27.251  20.088   5.993  0.00  0.00     0.014 A 
ENDBRANCH   1  30
TORSDOF 3
ENDMDL
MODEL 2
REMARK VINA RESULT:      -8.4      3.898     10.476
REMARK  3 active torsions:
REMARK  status: ('A' for Active; 'I' for Inactive)
REMARK    1  A    between atoms: C_4  and  C_7 
REMARK    2  A    between atoms: C_9  and  C_29 
REMARK    3  A    between atoms: C_10  and  N_15 
REMARK       I    between atoms: N_18  and  C_21 
ROOT
HETATM    1  C   UNK N   1      35.874  13.210  14.987  0.00  0.00     0.059 A 
HETATM    2  C   UNK N   1      35.513  12.410  13.913  0.00  0.00     0.048 A 
HETATM    3  C   UNK N   1      35.631  12.867  12.604  0.00  0.00     0.022 A 
HETATM    4  C   UNK N   1      36.085  14.209  12.409  0.00  0.00     0.129 A 
HETATM    5  N   UNK N   1      36.460  14.933  13.505  0.00  0.00    -0.284 N 
ATOM      6  HN  UNK N   1      36.822  15.877  13.370  1.00  0.00     0.188 HD
HETATM    7  N   UNK N   1      36.370  14.450  14.746  0.00  0.00    -0.298 N 
ATOM      8  HN  UNK N   1      36.681  15.025  15.530  1.00  0.00     0.187 HD
ENDROOT
BRANCH   4   9
HETATM    9  N   UNK N   1      36.070  14.861  11.134  0.00  0.00    -0.362 N 
HETATM   10  C   UNK N   1      35.725  16.250  11.036  0.00  0.00     0.145 C 
HETATM   11  C   UNK N   1      34.821  16.466   9.842  0.00  0.00     0.161 C 
HETATM   12  N   UNK N   1      35.171  15.678   8.671  0.00  0.00    -0.214 N 
HETATM   13  C   UNK N   1      36.088  14.536   8.712  0.00  0.00     0.161 C 
HETATM   14  C   UNK N   1      34.550  16.024   7.439  0.00  0.00     0.679 A 
HETATM   15  C   UNK N   1      36.839  14.339  10.037  0.00  0.00     0.145 C 
HETATM   16  N   UNK N   1      33.582  16.987   7.415  0.00  0.00    -0.202 N 
HETATM   17  N   UNK N   1      34.936  15.429   6.278  0.00  0.00    -0.202 N 
HETATM   18  C   UNK N   1      32.995  17.361   6.250  0.00  0.00     0.107 A 
ATOM     19  HN  UNK N   1      33.297  17.434   8.286  1.00  0.00     0.183 HD
HETATM   20  C   UNK N   1      33.390  16.770   5.054  0.00  0.00     0.035 A 
HETATM   21  C   UNK N   1      34.379  15.789   5.092  0.00  0.00     0.107 A 
ATOM     22  HN  UNK N   1      35.654  14.706   6.297  1.00  0.00     0.183 HD
ENDBRANCH   4   9
BRANCH   3  23
HETATM   23  C   UNK N   1      35.353  11.868  11.528  0.00  0.00    -0.019 A 
HETATM   24  C   UNK N   1      36.294  10.866  11.240  0.00  0.00     0.029 A 
HETATM   25  C   UNK N   1      36.075   9.984  10.180  0.00  0.00     0.088 A 
HETATM   26  N   UNK N   1      34.965  10.111   9.405  0.00  0.00    -0.375 N 
HETATM   27  C   UNK N   1      34.055  11.093   9.633  0.00  0.00     0.088 A 
ATOM     28  HN  UNK N   1      34.815   9.458   8.637  1.00  0.00     0.164 HD
HETATM   29  C   UNK N   1      34.240  11.988  10.687  0.00  0.00     0.029 A 
ENDBRANCH   3  23
BRANCH   1  30
HETATM   30  C   UNK N   1      35.719  12.701  16.365  0.00  0.00    -0.008 A 
HETATM   31  C   UNK N   1      35.936  11.340  16.642  0.00  0.00     0.014 A 
HETATM   32  C   UNK N   1      35.772  10.846  17.937  0.00  0.00     0.001 A 
HETATM   33  C   UNK N   1      35.397  11.709  18.969  0.00  0.00     0.000 A 
HETATM   34  C   UNK N   1      35.183  13.065  18.704  0.00  0.00     0.001 A 
HETATM   35  C   UNK N   1      35.339  13.560  17.405  0.00  0.00     0.014 A 
ENDBRANCH   1  30
TORSDOF 3
ENDMDL
MODEL 3
REMARK VINA RESULT:      -8.1      6.114     10.838
REMARK  3 active torsions:
REMARK  status: ('A' for Active; 'I' for Inactive)
REMARK    1  A    between atoms: C_4  and  C_7 
REMARK    2  A    between atoms: C_9  and  C_29 
REMARK    3  A    between atoms: C_10  and  N_15 
REMARK       I    between atoms: N_18  and  C_21 
ROOT
HETATM    1  C   UNK N   1      36.248  12.451  14.834  0.00  0.00     0.059 A 
HETATM    2  C   UNK N   1      35.822  13.405  13.923  0.00  0.00     0.048 A 
HETATM    3  C   UNK N   1      36.192  13.336  12.583  0.00  0.00     0.022 A 
HETATM    4  C   UNK N   1      37.073  12.279  12.192  0.00  0.00     0.129 A 
HETATM    5  N   UNK N   1      37.427  11.350  13.129  0.00  0.00    -0.284 N 
ATOM      6  HN  UNK N   1      38.023  10.571  12.847  1.00  0.00     0.188 HD
HETATM    7  N   UNK N   1      37.022  11.425  14.399  0.00  0.00    -0.298 N 
ATOM      8  HN  UNK N   1      37.300  10.695  15.055  1.00  0.00     0.187 HD
ENDROOT
BRANCH   4   9
HETATM    9  N   UNK N   1      37.677  12.205  10.896  0.00  0.00    -0.362 N 
HETATM   10  C   UNK N   1      38.779  13.061  10.562  0.00  0.00     0.145 C 
HETATM   11  C   UNK N   1      38.602  13.592   9.156  0.00  0.00     0.161 C 
HETATM   12  N   UNK N   1      38.068  12.625   8.211  0.00  0.00    -0.214 N 
HETATM   13  C   UNK N   1      37.438  11.364   8.614  0.00  0.00     0.161 C 
HETATM   14  C   UNK N   1      38.132  12.956   6.829  0.00  0.00     0.679 A 
HETATM   15  C   UNK N   1      37.563  11.012  10.103  0.00  0.00     0.145 C 
HETATM   16  N   UNK N   1      38.578  14.189   6.447  0.00  0.00    -0.202 N 
HETATM   17  N   UNK N   1      37.788  12.043   5.881  0.00  0.00    -0.202 N 
HETATM   18  C   UNK N   1      38.682  14.522   5.135  0.00  0.00     0.107 A 
ATOM     19  HN  UNK N   1      38.839  14.871   7.159  1.00  0.00     0.183 HD
HETATM   20  C   UNK N   1      38.344  13.593   4.157  0.00  0.00     0.035 A 
HETATM   21  C   UNK N   1      37.891  12.337   4.559  0.00  0.00     0.107 A 
ATOM     22  HN  UNK N   1      37.448  11.124   6.167  1.00  0.00     0.183 HD
ENDBRANCH   4   9
BRANCH   3  23
HETATM   23  C   UNK N   1      35.553  14.332  11.670  0.00  0.00    -0.019 A 
HETATM   24  C   UNK N   1      35.964  15.674  11.697  0.00  0.00     0.029 A 
HETATM   25  C   UNK N   1      35.312  16.623  10.907  0.00  0.00     0.088 A 
HETATM   26  N   UNK N   1      34.257  16.255  10.131  0.00  0.00    -0.375 N 
HETATM   27  C   UNK N   1      33.811  14.972  10.111  0.00  0.00     0.088 A 
ATOM     28  HN  UNK N   1      33.793  16.955   9.554  1.00  0.00     0.164 HD
HETATM   29  C   UNK N   1      34.443  13.998  10.885  0.00  0.00     0.029 A 
ENDBRANCH   3  23
BRANCH   1  30
HETATM   30  C   UNK N   1      35.853  12.563  16.252  0.00  0.00    -0.008 A 
HETATM   31  C   UNK N   1      35.667  13.830  16.834  0.00  0.00     0.014 A 
HETATM   32  C   UNK N   1      35.313  13.947  18.180  0.00  0.00     0.001 A 
HETATM   33  C   UNK N   1      35.135  12.799  18.954  0.00  0.00     0.000 A 
HETATM   34  C   UNK N   1      35.314  11.535  18.384  0.00  0.00     0.001 A 
HETATM   35  C   UNK N   1      35.676  11.416  17.038  0.00  0.00     0.014 A 
ENDBRANCH   1  30
TORSDOF 3
ENDMDL
MODEL 4
REMARK VINA RESULT:      -8.0      2.251      4.203
REMARK  3 active torsions:
REMARK  status: ('A' for Active; 'I' for Inactive)
REMARK    1  A    between atoms: C_4  and  C_7 
REMARK    2  A    between atoms: C_9  and  C_29 
REMARK    3  A    between atoms: C_10  and  N_15 
REMARK       I    between atoms: N_18  and  C_21 
ROOT
HETATM    1  C   UNK N   1      27.280  18.459   4.318  0.00  0.00     0.059 A 
HETATM    2  C   UNK N   1      27.579  18.318   5.665  0.00  0.00     0.048 A 
HETATM    3  C   UNK N   1      28.795  17.784   6.079  0.00  0.00     0.022 A 
HETATM    4  C   UNK N   1      29.701  17.335   5.067  0.00  0.00     0.129 A 
HETATM    5  N   UNK N   1      29.365  17.536   3.759  0.00  0.00    -0.284 N 
ATOM      6  HN  UNK N   1      30.023  17.254   3.033  1.00  0.00     0.188 HD
HETATM    7  N   UNK N   1      28.204  18.088   3.396  0.00  0.00    -0.298 N 
ATOM      8  HN  UNK N   1      28.008  18.233   2.405  1.00  0.00     0.187 HD
ENDROOT
BRANCH   4   9
HETATM    9  N   UNK N   1      30.894  16.598   5.359  0.00  0.00    -0.362 N 
HETATM   10  C   UNK N   1      30.906  15.168   5.250  0.00  0.00     0.145 C 
HETATM   11  C   UNK N   1      31.659  14.575   6.420  0.00  0.00     0.161 C 
HETATM   12  N   UNK N   1      32.841  15.323   6.817  0.00  0.00    -0.214 N 
HETATM   13  C   UNK N   1      33.116  16.693   6.373  0.00  0.00     0.161 C 
HETATM   14  C   UNK N   1      33.745  14.692   7.715  0.00  0.00     0.679 A 
HETATM   15  C   UNK N   1      32.182  17.231   5.279  0.00  0.00     0.145 C 
HETATM   16  N   UNK N   1      33.428  13.478   8.254  0.00  0.00    -0.202 N 
HETATM   17  N   UNK N   1      34.940  15.269   8.015  0.00  0.00    -0.202 N 
HETATM   18  C   UNK N   1      34.285  12.836   9.088  0.00  0.00     0.107 A 
ATOM     19  HN  UNK N   1      32.533  13.045   8.026  1.00  0.00     0.183 HD
HETATM   20  C   UNK N   1      35.515  13.410   9.393  0.00  0.00     0.035 A 
HETATM   21  C   UNK N   1      35.827  14.649   8.836  0.00  0.00     0.107 A 
ATOM     22  HN  UNK N   1      35.173  16.179   7.617  1.00  0.00     0.183 HD
ENDBRANCH   4   9
BRANCH   3  23
HETATM   23  C   UNK N   1      29.065  17.818   7.549  0.00  0.00    -0.019 A 
HETATM   24  C   UNK N   1      28.190  17.173   8.438  0.00  0.00     0.029 A 
HETATM   25  C   UNK N   1      28.392  17.275   9.816  0.00  0.00     0.088 A 
HETATM   26  N   UNK N   1      29.418  18.023  10.301  0.00  0.00    -0.375 N 
HETATM   27  C   UNK N   1      30.259  18.690   9.469  0.00  0.00     0.088 A 
ATOM     28  HN  UNK N   1      29.558  18.085  11.309  1.00  0.00     0.164 HD
HETATM   29  C   UNK N   1      30.089  18.607   8.087  0.00  0.00     0.029 A 
ENDBRANCH   3  23
BRANCH   1  30
HETATM   30  C   UNK N   1      25.973  19.013   3.911  0.00  0.00    -0.008 A 
HETATM   31  C   UNK N   1      25.915  20.170   3.114  0.00  0.00     0.014 A 
HETATM   32  C   UNK N   1      24.684  20.713   2.741  0.00  0.00     0.001 A 
HETATM   33  C   UNK N   1      23.500  20.101   3.155  0.00  0.00     0.000 A 
HETATM   34  C   UNK N   1      23.547  18.948   3.945  0.00  0.00     0.001 A 
HETATM   35  C   UNK N   1      24.779  18.407   4.326  0.00  0.00     0.014 A 
ENDBRANCH   1  30
TORSDOF 3
ENDMDL
MODEL 5
REMARK VINA RESULT:      -7.5      1.836      2.418
REMARK  3 active torsions:
REMARK  status: ('A' for Active; 'I' for Inactive)
REMARK    1  A    between atoms: C_4  and  C_7 
REMARK    2  A    between atoms: C_9  and  C_29 
REMARK    3  A    between atoms: C_10  and  N_15 
REMARK       I    between atoms: N_18  and  C_21 
ROOT
HETATM    1  C   UNK N   1      28.830  18.218   5.911  0.00  0.00     0.059 A 
HETATM    2  C   UNK N   1      29.736  17.588   5.070  0.00  0.00     0.048 A 
HETATM    3  C   UNK N   1      30.826  16.890   5.580  0.00  0.00     0.022 A 
HETATM    4  C   UNK N   1      31.010  16.893   6.998  0.00  0.00     0.129 A 
HETATM    5  N   UNK N   1      30.064  17.499   7.775  0.00  0.00    -0.284 N 
ATOM      6  HN  UNK N   1      30.168  17.471   8.789  1.00  0.00     0.188 HD
HETATM    7  N   UNK N   1      29.007  18.128   7.254  0.00  0.00    -0.298 N 
ATOM      8  HN  UNK N   1      28.319  18.550   7.878  1.00  0.00     0.187 HD
ENDROOT
BRANCH   4   9
HETATM    9  N   UNK N   1      32.185  16.378   7.634  0.00  0.00    -0.362 N 
HETATM   10  C   UNK N   1      33.450  17.028   7.450  0.00  0.00     0.145 C 
HETATM   11  C   UNK N   1      34.531  15.988   7.247  0.00  0.00     0.161 C 
HETATM   12  N   UNK N   1      34.391  14.805   8.080  0.00  0.00    -0.214 N 
HETATM   13  C   UNK N   1      33.163  14.468   8.805  0.00  0.00     0.161 C 
HETATM   14  C   UNK N   1      35.501  13.918   8.150  0.00  0.00     0.679 A 
HETATM   15  C   UNK N   1      32.081  15.558   8.810  0.00  0.00     0.145 C 
HETATM   16  N   UNK N   1      36.596  14.139   7.364  0.00  0.00    -0.202 N 
HETATM   17  N   UNK N   1      35.498  12.871   9.020  0.00  0.00    -0.202 N 
HETATM   18  C   UNK N   1      37.683  13.329   7.433  0.00  0.00     0.107 A 
ATOM     19  HN  UNK N   1      36.598  14.926   6.716  1.00  0.00     0.183 HD
HETATM   20  C   UNK N   1      37.697  12.263   8.326  0.00  0.00     0.035 A 
HETATM   21  C   UNK N   1      36.574  12.048   9.124  0.00  0.00     0.107 A 
ATOM     22  HN  UNK N   1      34.678  12.703   9.602  1.00  0.00     0.183 HD
ENDBRANCH   4   9
BRANCH   3  23
HETATM   23  C   UNK N   1      31.646  16.130   4.588  0.00  0.00    -0.019 A 
HETATM   24  C   UNK N   1      31.618  14.726   4.582  0.00  0.00     0.029 A 
HETATM   25  C   UNK N   1      32.447  14.013   3.715  0.00  0.00     0.088 A 
HETATM   26  N   UNK N   1      33.306  14.675   2.894  0.00  0.00    -0.375 N 
HETATM   27  C   UNK N   1      33.385  16.031   2.902  0.00  0.00     0.088 A 
ATOM     28  HN  UNK N   1      33.903  14.143   2.261  1.00  0.00     0.164 HD
HETATM   29  C   UNK N   1      32.567  16.775   3.754  0.00  0.00     0.029 A 
ENDBRANCH   3  23
BRANCH   1  30
HETATM   30  C   UNK N   1      27.694  18.966   5.337  0.00  0.00    -0.008 A 
HETATM   31  C   UNK N   1      26.980  18.437   4.247  0.00  0.00     0.014 A 
HETATM   32  C   UNK N   1      25.918  19.146   3.684  0.00  0.00     0.001 A 
HETATM   33  C   UNK N   1      25.554  20.387   4.210  0.00  0.00     0.000 A 
HETATM   34  C   UNK N   1      26.255  20.920   5.296  0.00  0.00     0.001 A 
HETATM   35  C   UNK N   1      27.325  20.215   5.855  0.00  0.00     0.014 A 
ENDBRANCH   1  30
TORSDOF 3
ENDMDL
MODEL 6
REMARK VINA RESULT:      -7.5      7.509     11.192
REMARK  3 active torsions:
REMARK  status: ('A' for Active; 'I' for Inactive)
REMARK    1  A    between atoms: C_4  and  C_7 
REMARK    2  A    between atoms: C_9  and  C_29 
REMARK    3  A    between atoms: C_10  and  N_15 
REMARK       I    between atoms: N_18  and  C_21 
ROOT
HETATM    1  C   UNK N   1      34.887  11.826  15.151  0.00  0.00     0.059 A 
HETATM    2  C   UNK N   1      35.755  12.400  14.235  0.00  0.00     0.048 A 
HETATM    3  C   UNK N   1      35.629  12.153  12.871  0.00  0.00     0.022 A 
HETATM    4  C   UNK N   1      34.608  11.242  12.454  0.00  0.00     0.129 A 
HETATM    5  N   UNK N   1      33.761  10.738  13.401  0.00  0.00    -0.284 N 
ATOM      6  HN  UNK N   1      33.006  10.119  13.105  1.00  0.00     0.188 HD
HETATM    7  N   UNK N   1      33.887  11.027  14.698  0.00  0.00    -0.298 N 
ATOM      8  HN  UNK N   1      33.217  10.639  15.363  1.00  0.00     0.187 HD
ENDROOT
BRANCH   4   9
HETATM    9  N   UNK N   1      34.494  10.758  11.111  0.00  0.00    -0.362 N 
HETATM   10  C   UNK N   1      34.028  11.624  10.067  0.00  0.00     0.145 C 
HETATM   11  C   UNK N   1      33.069  10.871   9.172  0.00  0.00     0.161 C 
HETATM   12  N   UNK N   1      33.446   9.491   8.912  0.00  0.00    -0.214 N 
HETATM   13  C   UNK N   1      34.459   8.771   9.689  0.00  0.00     0.161 C 
HETATM   14  C   UNK N   1      32.756   8.808   7.872  0.00  0.00     0.679 A 
HETATM   15  C   UNK N   1      35.267   9.628  10.674  0.00  0.00     0.145 C 
HETATM   16  N   UNK N   1      31.709   9.415   7.240  0.00  0.00    -0.202 N 
HETATM   17  N   UNK N   1      33.153   7.568   7.476  0.00  0.00    -0.202 N 
HETATM   18  C   UNK N   1      31.053   8.802   6.223  0.00  0.00     0.107 A 
ATOM     19  HN  UNK N   1      31.416  10.346   7.537  1.00  0.00     0.183 HD
HETATM   20  C   UNK N   1      31.456   7.539   5.801  0.00  0.00     0.035 A 
HETATM   21  C   UNK N   1      32.527   6.930   6.453  0.00  0.00     0.107 A 
ATOM     22  HN  UNK N   1      33.931   7.112   7.952  1.00  0.00     0.183 HD
ENDBRANCH   4   9
BRANCH   3  23
HETATM   23  C   UNK N   1      36.525  12.941  11.971  0.00  0.00    -0.019 A 
HETATM   24  C   UNK N   1      36.109  14.192  11.486  0.00  0.00     0.029 A 
HETATM   25  C   UNK N   1      36.906  14.891  10.579  0.00  0.00     0.088 A 
HETATM   26  N   UNK N   1      38.074  14.350  10.139  0.00  0.00    -0.375 N 
HETATM   27  C   UNK N   1      38.486  13.127  10.559  0.00  0.00     0.088 A 
ATOM     28  HN  UNK N   1      38.650  14.874   9.480  1.00  0.00     0.164 HD
HETATM   29  C   UNK N   1      37.716  12.402  11.470  0.00  0.00     0.029 A 
ENDBRANCH   3  23
BRANCH   1  30
HETATM   30  C   UNK N   1      35.059  12.094  16.592  0.00  0.00    -0.008 A 
HETATM   31  C   UNK N   1      35.246  11.027  17.490  0.00  0.00     0.014 A 
HETATM   32  C   UNK N   1      35.390  11.269  18.858  0.00  0.00     0.001 A 
HETATM   33  C   UNK N   1      35.354  12.578  19.340  0.00  0.00     0.000 A 
HETATM   34  C   UNK N   1      35.172  13.646  18.455  0.00  0.00     0.001 A 
HETATM   35  C   UNK N   1      35.020  13.405  17.086  0.00  0.00     0.014 A 
ENDBRANCH   1  30
TORSDOF 3
ENDMDL
MODEL 7
REMARK VINA RESULT:      -7.2      2.811      4.322
REMARK  3 active torsions:
REMARK  status: ('A' for Active; 'I' for Inactive)
REMARK    1  A    between atoms: C_4  and  C_7 
REMARK    2  A    between atoms: C_9  and  C_29 
REMARK    3  A    between atoms: C_10  and  N_15 
REMARK       I    between atoms: N_18  and  C_21 
ROOT
HETATM    1  C   UNK N   1      29.229  18.104   4.938  0.00  0.00     0.059 A 
HETATM    2  C   UNK N   1      29.978  17.804   6.066  0.00  0.00     0.048 A 
HETATM    3  C   UNK N   1      31.035  16.901   6.008  0.00  0.00     0.022 A 
HETATM    4  C   UNK N   1      31.285  16.252   4.758  0.00  0.00     0.129 A 
HETATM    5  N   UNK N   1      30.537  16.618   3.676  0.00  0.00    -0.284 N 
ATOM      6  HN  UNK N   1      30.735  16.188   2.772  1.00  0.00     0.188 HD
HETATM    7  N   UNK N   1      29.553  17.518   3.757  0.00  0.00    -0.298 N 
ATOM      8  HN  UNK N   1      29.035  17.770   2.915  1.00  0.00     0.187 HD
ENDROOT
BRANCH   4   9
HETATM    9  N   UNK N   1      32.212  15.171   4.612  0.00  0.00    -0.362 N 
HETATM   10  C   UNK N   1      31.801  13.824   4.887  0.00  0.00     0.145 C 
HETATM   11  C   UNK N   1      32.893  13.106   5.650  0.00  0.00     0.161 C 
HETATM   12  N   UNK N   1      34.242  13.421   5.211  0.00  0.00    -0.214 N 
HETATM   13  C   UNK N   1      34.565  14.563   4.351  0.00  0.00     0.161 C 
HETATM   14  C   UNK N   1      35.296  12.591   5.684  0.00  0.00     0.679 A 
HETATM   15  C   UNK N   1      33.358  15.301   3.753  0.00  0.00     0.145 C 
HETATM   16  N   UNK N   1      35.030  11.616   6.603  0.00  0.00    -0.202 N 
HETATM   17  N   UNK N   1      36.560  12.734   5.202  0.00  0.00    -0.202 N 
HETATM   18  C   UNK N   1      36.009  10.788   7.048  0.00  0.00     0.107 A 
ATOM     19  HN  UNK N   1      34.081  11.509   6.960  1.00  0.00     0.183 HD
HETATM   20  C   UNK N   1      37.303  10.916   6.554  0.00  0.00     0.035 A 
HETATM   21  C   UNK N   1      37.561  11.914   5.615  0.00  0.00     0.107 A 
ATOM     22  HN  UNK N   1      36.759  13.466   4.520  1.00  0.00     0.183 HD
ENDBRANCH   4   9
BRANCH   3  23
HETATM   23  C   UNK N   1      31.860  16.771   7.247  0.00  0.00    -0.019 A 
HETATM   24  C   UNK N   1      32.922  17.660   7.481  0.00  0.00     0.029 A 
HETATM   25  C   UNK N   1      33.747  17.488   8.594  0.00  0.00     0.088 A 
HETATM   26  N   UNK N   1      33.544  16.442   9.438  0.00  0.00    -0.375 N 
HETATM   27  C   UNK N   1      32.550  15.542   9.220  0.00  0.00     0.088 A 
ATOM     28  HN  UNK N   1      34.150  16.330  10.251  1.00  0.00     0.164 HD
HETATM   29  C   UNK N   1      31.704  15.687   8.119  0.00  0.00     0.029 A 
ENDBRANCH   3  23
BRANCH   1  30
HETATM   30  C   UNK N   1      28.102  19.053   5.037  0.00  0.00    -0.008 A 
HETATM   31  C   UNK N   1      27.317  19.335   3.905  0.00  0.00     0.014 A 
HETATM   32  C   UNK N   1      26.262  20.246   3.983  0.00  0.00     0.001 A 
HETATM   33  C   UNK N   1      25.978  20.879   5.194  0.00  0.00     0.000 A 
HETATM   34  C   UNK N   1      26.750  20.602   6.327  0.00  0.00     0.001 A 
HETATM   35  C   UNK N   1      27.812  19.696   6.248  0.00  0.00     0.014 A 
ENDBRANCH   1  30
TORSDOF 3
ENDMDL
MODEL 8
REMARK VINA RESULT:      -7.2      3.285      6.292
REMARK  3 active torsions:
REMARK  status: ('A' for Active; 'I' for Inactive)
REMARK    1  A    between atoms: C_4  and  C_7 
REMARK    2  A    between atoms: C_9  and  C_29 
REMARK    3  A    between atoms: C_10  and  N_15 
REMARK       I    between atoms: N_18  and  C_21 
ROOT
HETATM    1  C   UNK N   1      33.403  15.343   7.965  0.00  0.00     0.059 A 
HETATM    2  C   UNK N   1      34.690  14.841   7.839  0.00  0.00     0.048 A 
HETATM    3  C   UNK N   1      35.288  14.126   8.872  0.00  0.00     0.022 A 
HETATM    4  C   UNK N   1      34.550  13.976  10.088  0.00  0.00     0.129 A 
HETATM    5  N   UNK N   1      33.274  14.461  10.137  0.00  0.00    -0.284 N 
ATOM      6  HN  UNK N   1      32.728  14.323  10.988  1.00  0.00     0.188 HD
HETATM    7  N   UNK N   1      32.716  15.110   9.112  0.00  0.00    -0.298 N 
ATOM      8  HN  UNK N   1      31.752  15.436   9.193  1.00  0.00     0.187 HD
ENDROOT
BRANCH   4   9
HETATM    9  N   UNK N   1      35.119  13.432  11.284  0.00  0.00    -0.362 N 
HETATM   10  C   UNK N   1      35.453  12.039  11.358  0.00  0.00     0.145 C 
HETATM   11  C   UNK N   1      35.040  11.488  12.705  0.00  0.00     0.161 C 
HETATM   12  N   UNK N   1      35.269  12.392  13.821  0.00  0.00    -0.214 N 
HETATM   13  C   UNK N   1      35.554  13.820  13.658  0.00  0.00     0.161 C 
HETATM   14  C   UNK N   1      35.168  11.851  15.133  0.00  0.00     0.679 A 
HETATM   15  C   UNK N   1      35.812  14.280  12.216  0.00  0.00     0.145 C 
HETATM   16  N   UNK N   1      34.756  10.560  15.305  0.00  0.00    -0.202 N 
HETATM   17  N   UNK N   1      35.511  12.598  16.218  0.00  0.00    -0.202 N 
HETATM   18  C   UNK N   1      34.681  10.007  16.542  0.00  0.00     0.107 A 
ATOM     19  HN  UNK N   1      34.503  10.002  14.490  1.00  0.00     0.183 HD
HETATM   20  C   UNK N   1      35.041  10.756  17.658  0.00  0.00     0.035 A 
HETATM   21  C   UNK N   1      35.460  12.072  17.470  0.00  0.00     0.107 A 
ATOM     22  HN  UNK N   1      35.812  13.563  16.090  1.00  0.00     0.183 HD
ENDBRANCH   4   9
BRANCH   3  23
HETATM   23  C   UNK N   1      36.614  13.509   8.566  0.00  0.00    -0.019 A 
HETATM   24  C   UNK N   1      36.681  12.310   7.840  0.00  0.00     0.029 A 
HETATM   25  C   UNK N   1      37.912  11.687   7.626  0.00  0.00     0.088 A 
HETATM   26  N   UNK N   1      39.047  12.225   8.146  0.00  0.00    -0.375 N 
HETATM   27  C   UNK N   1      39.013  13.364   8.885  0.00  0.00     0.088 A 
ATOM     28  HN  UNK N   1      39.941  11.763   7.979  1.00  0.00     0.164 HD
HETATM   29  C   UNK N   1      37.800  14.014   9.114  0.00  0.00     0.029 A 
ENDBRANCH   3  23
BRANCH   1  30
HETATM   30  C   UNK N   1      32.804  16.113   6.857  0.00  0.00    -0.008 A 
HETATM   31  C   UNK N   1      33.624  16.657   5.853  0.00  0.00     0.014 A 
HETATM   32  C   UNK N   1      33.069  17.404   4.812  0.00  0.00     0.001 A 
HETATM   33  C   UNK N   1      31.689  17.609   4.762  0.00  0.00     0.000 A 
HETATM   34  C   UNK N   1      30.864  17.069   5.754  0.00  0.00     0.001 A 
HETATM   35  C   UNK N   1      31.420  16.327   6.802  0.00  0.00     0.014 A 
ENDBRANCH   1  30
TORSDOF 3
ENDMDL
MODEL 9
REMARK VINA RESULT:      -7.1      4.011      9.574
REMARK  3 active torsions:
REMARK  status: ('A' for Active; 'I' for Inactive)
REMARK    1  A    between atoms: C_4  and  C_7 
REMARK    2  A    between atoms: C_9  and  C_29 
REMARK    3  A    between atoms: C_10  and  N_15 
REMARK       I    between atoms: N_18  and  C_21 
ROOT
HETATM    1  C   UNK N   1      30.814  16.526   6.788  0.00  0.00     0.059 A 
HETATM    2  C   UNK N   1      30.057  17.675   6.618  0.00  0.00     0.048 A 
HETATM    3  C   UNK N   1      28.841  17.642   5.942  0.00  0.00     0.022 A 
HETATM    4  C   UNK N   1      28.429  16.392   5.380  0.00  0.00     0.129 A 
HETATM    5  N   UNK N   1      29.201  15.290   5.614  0.00  0.00    -0.284 N 
ATOM      6  HN  UNK N   1      28.892  14.388   5.250  1.00  0.00     0.188 HD
HETATM    7  N   UNK N   1      30.344  15.350   6.301  0.00  0.00    -0.298 N 
ATOM      8  HN  UNK N   1      30.874  14.494   6.464  1.00  0.00     0.187 HD
ENDROOT
BRANCH   4   9
HETATM    9  N   UNK N   1      27.303  16.263   4.505  0.00  0.00    -0.362 N 
HETATM   10  C   UNK N   1      25.970  16.395   5.017  0.00  0.00     0.145 C 
HETATM   11  C   UNK N   1      25.081  15.337   4.401  0.00  0.00     0.161 C 
HETATM   12  N   UNK N   1      25.340  15.078   2.994  0.00  0.00    -0.214 N 
HETATM   13  C   UNK N   1      26.548  15.531   2.299  0.00  0.00     0.161 C 
HETATM   14  C   UNK N   1      24.378  14.309   2.282  0.00  0.00     0.679 A 
HETATM   15  C   UNK N   1      27.445  16.492   3.093  0.00  0.00     0.145 C 
HETATM   16  N   UNK N   1      23.324  13.754   2.950  0.00  0.00    -0.202 N 
HETATM   17  N   UNK N   1      24.479  14.150   0.934  0.00  0.00    -0.202 N 
HETATM   18  C   UNK N   1      22.374  13.043   2.293  0.00  0.00     0.107 A 
ATOM     19  HN  UNK N   1      23.250  13.877   3.960  1.00  0.00     0.183 HD
HETATM   20  C   UNK N   1      22.458  12.883   0.913  0.00  0.00     0.035 A 
HETATM   21  C   UNK N   1      23.538  13.456   0.242  0.00  0.00     0.107 A 
ATOM     22  HN  UNK N   1      25.269  14.559   0.437  1.00  0.00     0.183 HD
ENDBRANCH   4   9
BRANCH   3  23
HETATM   23  C   UNK N   1      28.046  18.907   5.950  0.00  0.00    -0.019 A 
HETATM   24  C   UNK N   1      27.841  19.616   4.755  0.00  0.00     0.029 A 
HETATM   25  C   UNK N   1      27.172  20.841   4.773  0.00  0.00     0.088 A 
HETATM   26  N   UNK N   1      26.743  21.366   5.952  0.00  0.00    -0.375 N 
HETATM   27  C   UNK N   1      26.958  20.724   7.129  0.00  0.00     0.088 A 
ATOM     28  HN  UNK N   1      26.251  22.259   5.951  1.00  0.00     0.164 HD
HETATM   29  C   UNK N   1      27.619  19.496   7.146  0.00  0.00     0.029 A 
ENDBRANCH   3  23
BRANCH   1  30
HETATM   30  C   UNK N   1      32.109  16.599   7.495  0.00  0.00    -0.008 A 
HETATM   31  C   UNK N   1      32.449  15.620   8.445  0.00  0.00     0.014 A 
HETATM   32  C   UNK N   1      33.661  15.691   9.134  0.00  0.00     0.001 A 
HETATM   33  C   UNK N   1      34.548  16.738   8.874  0.00  0.00     0.000 A 
HETATM   34  C   UNK N   1      34.220  17.715   7.929  0.00  0.00     0.001 A 
HETATM   35  C   UNK N   1      33.003  17.649   7.244  0.00  0.00     0.014 A 
ENDBRANCH   1  30
TORSDOF 3
ENDMDL
