MODEL 1
REMARK VINA RESULT:      -6.0      0.000      0.000
REMARK  4 active torsions:
REMARK  status: ('A' for Active; 'I' for Inactive)
REMARK    1  A    between atoms: C_5  and  O_14 
REMARK    2  A    between atoms: C_6  and  O_15 
REMARK    3  A    between atoms: O_16  and  C_7 
REMARK    4  A    between atoms: C_8  and  N_13 
ROOT
HETATM    1  C   UNK N   1      33.349  15.107   9.311  0.00  0.00     0.145 A 
HETATM    2  C   UNK N   1      32.667  15.508   8.167  0.00  0.00     0.182 A 
HETATM    3  C   UNK N   1      32.954  16.750   7.613  0.00  0.00     0.185 A 
HETATM    4  C   UNK N   1      34.540  17.160   9.337  0.00  0.00     0.330 A 
HETATM    5  F   UNK N   1      31.743  14.692   7.603  0.00  0.00    -0.200 F 
HETATM    6  N   UNK N   1      33.878  17.550   8.200  0.00  0.00    -0.286 N 
ATOM      7  HN  UNK N   1      34.084  18.460   7.788  1.00  0.00     0.172 HD
HETATM    8  N   UNK N   1      34.270  15.920   9.906  0.00  0.00    -0.277 N 
HETATM    9  O   UNK N   1      35.374  17.905   9.816  0.00  0.00    -0.246 OA
ENDROOT
BRANCH   8  10
HETATM   10  C   UNK N   1      34.974  15.396  11.101  0.00  0.00     0.263 C 
HETATM   11  C   UNK N   1      36.366  14.875  10.799  0.00  0.00     0.198 C 
HETATM   12  C   UNK N   1      36.594  14.113  12.049  0.00  0.00     0.179 C 
HETATM   13  C   UNK N   1      35.259  13.426  12.159  0.00  0.00     0.151 C 
HETATM   14  C   UNK N   1      35.022  12.973  13.586  0.00  0.00     0.042 C 
HETATM   15  O   UNK N   1      34.275  14.357  11.763  0.00  0.00    -0.356 OA
BRANCH  11  16
HETATM   16  O   UNK N   1      37.284  15.921  10.691  0.00  0.00    -0.388 OA
HETATM   17  H   UNK N   1      37.252  16.648  10.049  0.00  0.00     0.210 HD
ENDBRANCH  11  16
BRANCH  12  18
HETATM   18  O   UNK N   1      37.641  13.201  11.914  0.00  0.00    -0.390 OA
HETATM   19  H   UNK N   1      37.713  12.234  11.896  0.00  0.00     0.210 HD
ENDBRANCH  12  18
ENDBRANCH   8  10
BRANCH   3  20
HETATM   20  O   UNK N   1      32.324  17.158   6.499  0.00  0.00    -0.344 OA
HETATM   21  H   UNK N   1      31.519  16.762   6.230  0.00  0.00     0.219 HD
ENDBRANCH   3  20
TORSDOF 4
ENDMDL
MODEL 2
REMARK VINA RESULT:      -5.9     13.137     15.038
REMARK  4 active torsions:
REMARK  status: ('A' for Active; 'I' for Inactive)
REMARK    1  A    between atoms: C_5  and  O_14 
REMARK    2  A    between atoms: C_6  and  O_15 
REMARK    3  A    between atoms: O_16  and  C_7 
REMARK    4  A    between atoms: C_8  and  N_13 
ROOT
HETATM    1  C   UNK N   1      20.404  13.714  10.158  0.00  0.00     0.145 A 
HETATM    2  C   UNK N   1      21.140  12.638  10.643  0.00  0.00     0.182 A 
HETATM    3  C   UNK N   1      22.110  12.066   9.830  0.00  0.00     0.185 A 
HETATM    4  C   UNK N   1      21.579  13.607   8.099  0.00  0.00     0.330 A 
HETATM    5  F   UNK N   1      20.911  12.163  11.893  0.00  0.00    -0.200 F 
HETATM    6  N   UNK N   1      22.315  12.554   8.582  0.00  0.00    -0.286 N 
ATOM      7  HN  UNK N   1      23.030  12.131   7.991  1.00  0.00     0.172 HD
HETATM    8  N   UNK N   1      20.604  14.196   8.897  0.00  0.00    -0.277 N 
HETATM    9  O   UNK N   1      21.813  14.022   6.980  0.00  0.00    -0.246 OA
ENDROOT
BRANCH   8  10
HETATM   10  C   UNK N   1      19.799  15.368   8.477  0.00  0.00     0.263 C 
HETATM   11  C   UNK N   1      20.552  16.681   8.578  0.00  0.00     0.198 C 
HETATM   12  C   UNK N   1      19.398  17.606   8.479  0.00  0.00     0.179 C 
HETATM   13  C   UNK N   1      18.450  16.909   9.418  0.00  0.00     0.151 C 
HETATM   14  C   UNK N   1      17.025  17.347   9.140  0.00  0.00     0.042 C 
HETATM   15  O   UNK N   1      18.594  15.522   9.205  0.00  0.00    -0.356 OA
BRANCH  11  16
HETATM   16  O   UNK N   1      21.411  16.855   7.492  0.00  0.00    -0.388 OA
HETATM   17  H   UNK N   1      21.258  16.549   6.584  0.00  0.00     0.210 HD
ENDBRANCH  11  16
BRANCH  12  18
HETATM   18  O   UNK N   1      19.725  18.888   8.923  0.00  0.00    -0.390 OA
HETATM   19  H   UNK N   1      19.703  19.346   9.778  0.00  0.00     0.210 HD
ENDBRANCH  12  18
ENDBRANCH   8  10
BRANCH   3  20
HETATM   20  O   UNK N   1      22.849  11.036  10.277  0.00  0.00    -0.344 OA
HETATM   21  H   UNK N   1      23.576  10.716   9.782  0.00  0.00     0.219 HD
ENDBRANCH   3  20
TORSDOF 4
ENDMDL
MODEL 3
REMARK VINA RESULT:      -5.9      5.391      8.249
REMARK  4 active torsions:
REMARK  status: ('A' for Active; 'I' for Inactive)
REMARK    1  A    between atoms: C_5  and  O_14 
REMARK    2  A    between atoms: C_6  and  O_15 
REMARK    3  A    between atoms: O_16  and  C_7 
REMARK    4  A    between atoms: C_8  and  N_13 
ROOT
HETATM    1  C   UNK N   1      35.277  13.711  16.750  0.00  0.00     0.145 A 
HETATM    2  C   UNK N   1      35.189  13.910  18.124  0.00  0.00     0.182 A 
HETATM    3  C   UNK N   1      35.252  12.809  18.969  0.00  0.00     0.185 A 
HETATM    4  C   UNK N   1      35.459  11.369  17.088  0.00  0.00     0.330 A 
HETATM    5  F   UNK N   1      35.047  15.163  18.623  0.00  0.00    -0.200 F 
HETATM    6  N   UNK N   1      35.386  11.566  18.444  0.00  0.00    -0.286 N 
ATOM      7  HN  UNK N   1      35.433  10.762  19.070  1.00  0.00     0.172 HD
HETATM    8  N   UNK N   1      35.400  12.457  16.224  0.00  0.00    -0.277 N 
HETATM    9  O   UNK N   1      35.598  10.236  16.666  0.00  0.00    -0.246 OA
ENDROOT
BRANCH   8  10
HETATM   10  C   UNK N   1      35.523  12.342  14.752  0.00  0.00     0.263 C 
HETATM   11  C   UNK N   1      36.958  12.395  14.262  0.00  0.00     0.198 C 
HETATM   12  C   UNK N   1      36.694  12.647  12.826  0.00  0.00     0.179 C 
HETATM   13  C   UNK N   1      35.632  13.705  12.959  0.00  0.00     0.151 C 
HETATM   14  C   UNK N   1      34.825  13.797  11.678  0.00  0.00     0.042 C 
HETATM   15  O   UNK N   1      34.804  13.334  14.041  0.00  0.00    -0.356 OA
BRANCH  11  16
HETATM   16  O   UNK N   1      37.595  11.165  14.433  0.00  0.00    -0.388 OA
HETATM   17  H   UNK N   1      37.456  10.368  13.898  0.00  0.00     0.210 HD
ENDBRANCH  11  16
BRANCH  12  18
HETATM   18  O   UNK N   1      37.828  13.126  12.169  0.00  0.00    -0.390 OA
HETATM   19  H   UNK N   1      38.061  13.313  11.247  0.00  0.00     0.210 HD
ENDBRANCH  12  18
ENDBRANCH   8  10
BRANCH   3  20
HETATM   20  O   UNK N   1      35.186  12.972  20.301  0.00  0.00    -0.344 OA
HETATM   21  H   UNK N   1      34.934  13.794  20.673  0.00  0.00     0.219 HD
ENDBRANCH   3  20
TORSDOF 4
ENDMDL
MODEL 4
REMARK VINA RESULT:      -5.7     15.523     17.371
REMARK  4 active torsions:
REMARK  status: ('A' for Active; 'I' for Inactive)
REMARK    1  A    between atoms: C_5  and  O_14 
REMARK    2  A    between atoms: C_6  and  O_15 
REMARK    3  A    between atoms: O_16  and  C_7 
REMARK    4  A    between atoms: C_8  and  N_13 
ROOT
HETATM    1  C   UNK N   1      29.385  25.462  -4.058  0.00  0.00     0.145 A 
HETATM    2  C   UNK N   1      28.858  26.742  -4.200  0.00  0.00     0.182 A 
HETATM    3  C   UNK N   1      27.522  26.958  -3.884  0.00  0.00     0.185 A 
HETATM    4  C   UNK N   1      27.273  24.659  -3.331  0.00  0.00     0.330 A 
HETATM    5  F   UNK N   1      29.643  27.757  -4.636  0.00  0.00    -0.200 F 
HETATM    6  N   UNK N   1      26.756  25.924  -3.457  0.00  0.00    -0.286 N 
ATOM      7  HN  UNK N   1      25.777  26.090  -3.226  1.00  0.00     0.172 HD
HETATM    8  N   UNK N   1      28.608  24.420  -3.639  0.00  0.00    -0.277 N 
HETATM    9  O   UNK N   1      26.551  23.768  -2.926  0.00  0.00    -0.246 OA
ENDROOT
BRANCH   8  10
HETATM   10  C   UNK N   1      29.262  23.100  -3.483  0.00  0.00     0.263 C 
HETATM   11  C   UNK N   1      30.430  23.118  -2.515  0.00  0.00     0.198 C 
HETATM   12  C   UNK N   1      31.050  21.826  -2.892  0.00  0.00     0.179 C 
HETATM   13  C   UNK N   1      30.976  21.951  -4.390  0.00  0.00     0.151 C 
HETATM   14  C   UNK N   1      31.080  20.581  -5.033  0.00  0.00     0.042 C 
HETATM   15  O   UNK N   1      29.737  22.552  -4.699  0.00  0.00    -0.356 OA
BRANCH  11  16
HETATM   16  O   UNK N   1      29.990  23.081  -1.192  0.00  0.00    -0.388 OA
HETATM   17  H   UNK N   1      30.226  23.709  -0.491  0.00  0.00     0.210 HD
ENDBRANCH  11  16
BRANCH  12  18
HETATM   18  O   UNK N   1      32.367  21.735  -2.441  0.00  0.00    -0.390 OA
HETATM   19  H   UNK N   1      32.802  21.361  -1.658  0.00  0.00     0.210 HD
ENDBRANCH  12  18
ENDBRANCH   8  10
BRANCH   3  20
HETATM   20  O   UNK N   1      26.990  28.187  -3.995  0.00  0.00    -0.344 OA
HETATM   21  H   UNK N   1      26.191  28.405  -3.558  0.00  0.00     0.219 HD
ENDBRANCH   3  20
TORSDOF 4
ENDMDL
MODEL 5
REMARK VINA RESULT:      -5.7     13.564     15.736
REMARK  4 active torsions:
REMARK  status: ('A' for Active; 'I' for Inactive)
REMARK    1  A    between atoms: C_5  and  O_14 
REMARK    2  A    between atoms: C_6  and  O_15 
REMARK    3  A    between atoms: O_16  and  C_7 
REMARK    4  A    between atoms: C_8  and  N_13 
ROOT
HETATM    1  C   UNK N   1      21.464  19.102   3.194  0.00  0.00     0.145 A 
HETATM    2  C   UNK N   1      21.415  20.147   2.276  0.00  0.00     0.182 A 
HETATM    3  C   UNK N   1      20.809  19.932   1.044  0.00  0.00     0.185 A 
HETATM    4  C   UNK N   1      20.352  17.680   1.654  0.00  0.00     0.330 A 
HETATM    5  F   UNK N   1      21.947  21.354   2.588  0.00  0.00    -0.200 F 
HETATM    6  N   UNK N   1      20.290  18.713   0.754  0.00  0.00    -0.286 N 
ATOM      7  HN  UNK N   1      19.846  18.563  -0.152  1.00  0.00     0.172 HD
HETATM    8  N   UNK N   1      20.952  17.873   2.894  0.00  0.00    -0.277 N 
HETATM    9  O   UNK N   1      19.855  16.610   1.354  0.00  0.00    -0.246 OA
ENDROOT
BRANCH   8  10
HETATM   10  C   UNK N   1      21.017  16.830   3.945  0.00  0.00     0.263 C 
HETATM   11  C   UNK N   1      19.864  16.895   4.928  0.00  0.00     0.198 C 
HETATM   12  C   UNK N   1      20.431  16.034   5.993  0.00  0.00     0.179 C 
HETATM   13  C   UNK N   1      21.829  16.593   6.034  0.00  0.00     0.151 C 
HETATM   14  C   UNK N   1      22.772  15.591   6.672  0.00  0.00     0.042 C 
HETATM   15  O   UNK N   1      22.213  16.859   4.702  0.00  0.00    -0.356 OA
BRANCH  11  16
HETATM   16  O   UNK N   1      18.712  16.315   4.394  0.00  0.00    -0.388 OA
HETATM   17  H   UNK N   1      18.030  15.834   4.889  0.00  0.00     0.210 HD
ENDBRANCH  11  16
BRANCH  12  18
HETATM   18  O   UNK N   1      19.764  16.206   7.206  0.00  0.00    -0.390 OA
HETATM   19  H   UNK N   1      19.956  16.667   8.037  0.00  0.00     0.210 HD
ENDBRANCH  12  18
ENDBRANCH   8  10
BRANCH   3  20
HETATM   20  O   UNK N   1      20.731  20.926   0.144  0.00  0.00    -0.344 OA
HETATM   21  H   UNK N   1      20.664  21.819   0.419  0.00  0.00     0.219 HD
ENDBRANCH   3  20
TORSDOF 4
ENDMDL
MODEL 6
REMARK VINA RESULT:      -5.6     11.832     14.311
REMARK  4 active torsions:
REMARK  status: ('A' for Active; 'I' for Inactive)
REMARK    1  A    between atoms: C_5  and  O_14 
REMARK    2  A    between atoms: C_6  and  O_15 
REMARK    3  A    between atoms: O_16  and  C_7 
REMARK    4  A    between atoms: C_8  and  N_13 
ROOT
HETATM    1  C   UNK N   1      20.997  12.956  10.101  0.00  0.00     0.145 A 
HETATM    2  C   UNK N   1      21.198  12.291  11.306  0.00  0.00     0.182 A 
HETATM    3  C   UNK N   1      22.499  12.079  11.748  0.00  0.00     0.185 A 
HETATM    4  C   UNK N   1      23.343  13.153   9.802  0.00  0.00     0.330 A 
HETATM    5  F   UNK N   1      20.138  11.863  12.034  0.00  0.00    -0.200 F 
HETATM    6  N   UNK N   1      23.542  12.510  10.998  0.00  0.00    -0.286 N 
ATOM      7  HN  UNK N   1      24.494  12.352  11.329  1.00  0.00     0.172 HD
HETATM    8  N   UNK N   1      22.050  13.378   9.342  0.00  0.00    -0.277 N 
HETATM    9  O   UNK N   1      24.312  13.539   9.175  0.00  0.00    -0.246 OA
ENDROOT
BRANCH   8  10
HETATM   10  C   UNK N   1      21.742  14.109   8.090  0.00  0.00     0.263 C 
HETATM   11  C   UNK N   1      20.556  15.046   8.218  0.00  0.00     0.198 C 
HETATM   12  C   UNK N   1      20.301  15.280   6.777  0.00  0.00     0.179 C 
HETATM   13  C   UNK N   1      20.423  13.865   6.278  0.00  0.00     0.151 C 
HETATM   14  C   UNK N   1      20.701  13.860   4.788  0.00  0.00     0.042 C 
HETATM   15  O   UNK N   1      21.486  13.262   6.984  0.00  0.00    -0.356 OA
BRANCH  11  16
HETATM   16  O   UNK N   1      20.918  16.237   8.849  0.00  0.00    -0.388 OA
HETATM   17  H   UNK N   1      20.401  17.057   8.867  0.00  0.00     0.210 HD
ENDBRANCH  11  16
BRANCH  12  18
HETATM   18  O   UNK N   1      19.026  15.803   6.557  0.00  0.00    -0.390 OA
HETATM   19  H   UNK N   1      18.440  15.885   5.788  0.00  0.00     0.210 HD
ENDBRANCH  12  18
ENDBRANCH   8  10
BRANCH   3  20
HETATM   20  O   UNK N   1      22.724  11.454  12.916  0.00  0.00    -0.344 OA
HETATM   21  H   UNK N   1      22.117  11.529  13.626  0.00  0.00     0.219 HD
ENDBRANCH   3  20
TORSDOF 4
ENDMDL
MODEL 7
REMARK VINA RESULT:      -5.6      3.156      6.678
REMARK  4 active torsions:
REMARK  status: ('A' for Active; 'I' for Inactive)
REMARK    1  A    between atoms: C_5  and  O_14 
REMARK    2  A    between atoms: C_6  and  O_15 
REMARK    3  A    between atoms: O_16  and  C_7 
REMARK    4  A    between atoms: C_8  and  N_13 
ROOT
HETATM    1  C   UNK N   1      33.109  17.769   7.779  0.00  0.00     0.145 A 
HETATM    2  C   UNK N   1      34.252  18.006   8.535  0.00  0.00     0.182 A 
HETATM    3  C   UNK N   1      34.604  17.098   9.526  0.00  0.00     0.185 A 
HETATM    4  C   UNK N   1      32.691  15.784   9.010  0.00  0.00     0.330 A 
HETATM    5  F   UNK N   1      35.009  19.106   8.300  0.00  0.00    -0.200 F 
HETATM    6  N   UNK N   1      33.826  16.009   9.747  0.00  0.00    -0.286 N 
ATOM      7  HN  UNK N   1      34.091  15.346  10.475  1.00  0.00     0.172 HD
HETATM    8  N   UNK N   1      32.321  16.678   8.011  0.00  0.00    -0.277 N 
HETATM    9  O   UNK N   1      32.036  14.782   9.232  0.00  0.00    -0.246 OA
ENDROOT
BRANCH   8  10
HETATM   10  C   UNK N   1      31.142  16.487   7.134  0.00  0.00     0.263 C 
HETATM   11  C   UNK N   1      31.337  17.042   5.736  0.00  0.00     0.198 C 
HETATM   12  C   UNK N   1      29.921  17.042   5.298  0.00  0.00     0.179 C 
HETATM   13  C   UNK N   1      29.287  17.618   6.536  0.00  0.00     0.151 C 
HETATM   14  C   UNK N   1      27.810  17.278   6.571  0.00  0.00     0.042 C 
HETATM   15  O   UNK N   1      29.952  17.058   7.647  0.00  0.00    -0.356 OA
BRANCH  11  16
HETATM   16  O   UNK N   1      32.092  16.172   4.948  0.00  0.00    -0.388 OA
HETATM   17  H   UNK N   1      31.873  15.249   4.742  0.00  0.00     0.210 HD
ENDBRANCH  11  16
BRANCH  12  18
HETATM   18  O   UNK N   1      29.726  17.858   4.184  0.00  0.00    -0.390 OA
HETATM   19  H   UNK N   1      29.915  17.784   3.235  0.00  0.00     0.210 HD
ENDBRANCH  12  18
ENDBRANCH   8  10
BRANCH   3  20
HETATM   20  O   UNK N   1      35.712  17.291  10.262  0.00  0.00    -0.344 OA
HETATM   21  H   UNK N   1      36.548  17.000   9.956  0.00  0.00     0.219 HD
ENDBRANCH   3  20
TORSDOF 4
ENDMDL
MODEL 8
REMARK VINA RESULT:      -5.6      2.130      5.510
REMARK  4 active torsions:
REMARK  status: ('A' for Active; 'I' for Inactive)
REMARK    1  A    between atoms: C_5  and  O_14 
REMARK    2  A    between atoms: C_6  and  O_15 
REMARK    3  A    between atoms: O_16  and  C_7 
REMARK    4  A    between atoms: C_8  and  N_13 
ROOT
HETATM    1  C   UNK N   1      34.764  14.279   9.761  0.00  0.00     0.145 A 
HETATM    2  C   UNK N   1      35.576  13.559  10.631  0.00  0.00     0.182 A 
HETATM    3  C   UNK N   1      36.456  14.249  11.456  0.00  0.00     0.185 A 
HETATM    4  C   UNK N   1      35.725  16.310  10.523  0.00  0.00     0.330 A 
HETATM    5  F   UNK N   1      35.501  12.206  10.670  0.00  0.00    -0.200 F 
HETATM    6  N   UNK N   1      36.516  15.602  11.392  0.00  0.00    -0.286 N 
ATOM      7  HN  UNK N   1      37.164  16.102  12.001  1.00  0.00     0.172 HD
HETATM    8  N   UNK N   1      34.836  15.640   9.690  0.00  0.00    -0.277 N 
HETATM    9  O   UNK N   1      35.802  17.524  10.516  0.00  0.00    -0.246 OA
ENDROOT
BRANCH   8  10
HETATM   10  C   UNK N   1      33.908  16.326   8.760  0.00  0.00     0.263 C 
HETATM   11  C   UNK N   1      32.596  15.590   8.568  0.00  0.00     0.198 C 
HETATM   12  C   UNK N   1      32.121  16.296   7.354  0.00  0.00     0.179 C 
HETATM   13  C   UNK N   1      33.402  16.302   6.563  0.00  0.00     0.151 C 
HETATM   14  C   UNK N   1      33.352  17.382   5.500  0.00  0.00     0.042 C 
HETATM   15  O   UNK N   1      34.454  16.548   7.472  0.00  0.00    -0.356 OA
BRANCH  11  16
HETATM   16  O   UNK N   1      31.728  15.819   9.636  0.00  0.00    -0.388 OA
HETATM   17  H   UNK N   1      31.590  16.664  10.092  0.00  0.00     0.210 HD
ENDBRANCH  11  16
BRANCH  12  18
HETATM   18  O   UNK N   1      31.111  15.584   6.706  0.00  0.00    -0.390 OA
HETATM   19  H   UNK N   1      30.208  15.311   6.931  0.00  0.00     0.210 HD
ENDBRANCH  12  18
ENDBRANCH   8  10
BRANCH   3  20
HETATM   20  O   UNK N   1      37.241  13.582  12.319  0.00  0.00    -0.344 OA
HETATM   21  H   UNK N   1      36.996  12.735  12.635  0.00  0.00     0.219 HD
ENDBRANCH   3  20
TORSDOF 4
ENDMDL
MODEL 9
REMARK VINA RESULT:      -5.5      2.270      5.303
REMARK  4 active torsions:
REMARK  status: ('A' for Active; 'I' for Inactive)
REMARK    1  A    between atoms: C_5  and  O_14 
REMARK    2  A    between atoms: C_6  and  O_15 
REMARK    3  A    between atoms: O_16  and  C_7 
REMARK    4  A    between atoms: C_8  and  N_13 
ROOT
HETATM    1  C   UNK N   1      34.674  14.016  10.425  0.00  0.00     0.145 A 
HETATM    2  C   UNK N   1      35.364  13.631  11.569  0.00  0.00     0.182 A 
HETATM    3  C   UNK N   1      36.130  14.575  12.243  0.00  0.00     0.185 A 
HETATM    4  C   UNK N   1      35.530  16.220  10.635  0.00  0.00     0.330 A 
HETATM    5  F   UNK N   1      35.284  12.354  12.016  0.00  0.00    -0.200 F 
HETATM    6  N   UNK N   1      36.200  15.844  11.772  0.00  0.00    -0.286 N 
ATOM      7  HN  UNK N   1      36.762  16.533  12.272  1.00  0.00     0.172 HD
HETATM    8  N   UNK N   1      34.756  15.292   9.946  0.00  0.00    -0.277 N 
HETATM    9  O   UNK N   1      35.608  17.376  10.262  0.00  0.00    -0.246 OA
ENDROOT
BRANCH   8  10
HETATM   10  C   UNK N   1      33.959  15.623   8.741  0.00  0.00     0.263 C 
HETATM   11  C   UNK N   1      34.754  16.354   7.676  0.00  0.00     0.198 C 
HETATM   12  C   UNK N   1      33.624  16.849   6.856  0.00  0.00     0.179 C 
HETATM   13  C   UNK N   1      32.722  17.337   7.958  0.00  0.00     0.151 C 
HETATM   14  C   UNK N   1      31.295  17.440   7.456  0.00  0.00     0.042 C 
HETATM   15  O   UNK N   1      32.811  16.406   9.015  0.00  0.00    -0.356 OA
BRANCH  11  16
HETATM   16  O   UNK N   1      35.542  15.470   6.938  0.00  0.00    -0.388 OA
HETATM   17  H   UNK N   1      35.705  14.537   7.146  0.00  0.00     0.210 HD
ENDBRANCH  11  16
BRANCH  12  18
HETATM   18  O   UNK N   1      34.017  17.884   6.007  0.00  0.00    -0.390 OA
HETATM   19  H   UNK N   1      34.741  18.019   5.375  0.00  0.00     0.210 HD
ENDBRANCH  12  18
ENDBRANCH   8  10
BRANCH   3  20
HETATM   20  O   UNK N   1      36.794  14.237  13.361  0.00  0.00    -0.344 OA
HETATM   21  H   UNK N   1      36.998  14.879  14.012  0.00  0.00     0.219 HD
ENDBRANCH   3  20
TORSDOF 4
ENDMDL
