REMARK  8 active torsions:
REMARK  status: ('A' for Active; 'I' for Inactive)
REMARK    1  A    between atoms: C_2  and  C_17 
REMARK    2  A    between atoms: C_7  and  C_5 
REMARK    3  A    between atoms: C_10  and  C_13 
REMARK    4  A    between atoms: C_13  and  C_14 
REMARK    5  A    between atoms: C_14  and  O_16 
REMARK    6  A    between atoms: C_21  and  N_24 
REMARK    7  A    between atoms: N_24  and  C_25 
REMARK    8  A    between atoms: C_29  and  C_32 
ROOT
HETATM    1  C   UNK N   1       5.151  -5.558  -0.406  0.00  0.00     0.042 A 
HETATM    2  N   UNK N   1       5.976  -6.081   0.553  0.00  0.00    -0.363 N 
ATOM      3  HN  UNK N   1       6.447  -5.451   1.202  1.00  0.00     0.165 HD
HETATM    4  C   UNK N   1       6.181  -7.423   0.662  0.00  0.00     0.117 A 
HETATM    5  C   UNK N   1       5.571  -8.292  -0.245  0.00  0.00     0.048 A 
HETATM    6  C   UNK N   1       4.778  -7.758  -1.268  0.00  0.00     0.033 A 
HETATM    7  C   UNK N   1       4.577  -6.397  -1.358  0.00  0.00     0.033 A 
ENDROOT
BRANCH   1   8
HETATM    8  C   UNK N   1       4.826  -4.126  -0.415  0.00  0.00    -0.009 A 
HETATM    9  C   UNK N   1       5.426  -3.267   0.505  0.00  0.00     0.014 A 
HETATM   10  C   UNK N   1       5.163  -1.902   0.456  0.00  0.00     0.008 A 
HETATM   11  C   UNK N   1       4.269  -1.381  -0.494  0.00  0.00    -0.054 A 
HETATM   12  C   UNK N   1       3.630  -2.245  -1.385  0.00  0.00     0.008 A 
HETATM   13  C   UNK N   1       3.901  -3.612  -1.342  0.00  0.00     0.014 A 
BRANCH  11  14
HETATM   14  C   UNK N   1       4.178   0.098  -0.722  0.00  0.00     0.018 C 
HETATM   15  C   UNK N   1       2.832   0.772  -0.425  0.00  0.00     0.010 C 
HETATM   16  C   UNK N   1       2.717   1.219   1.033  0.00  0.00     0.006 C 
HETATM   17  C   UNK N   1       3.938   2.027   1.489  0.00  0.00    -0.005 C 
HETATM   18  C   UNK N   1       5.219   1.217   1.289  0.00  0.00     0.006 C 
HETATM   19  C   UNK N   1       5.385   0.868  -0.189  0.00  0.00     0.010 C 
BRANCH  17  20
HETATM   20  C   UNK N   1       3.967   3.475   0.946  0.00  0.00     0.114 C 
BRANCH  20  21
HETATM   21  C   UNK N   1       4.883   3.737  -0.221  0.00  0.00     0.139 C 
HETATM   22  O   UNK N   1       4.416   4.020  -1.311  0.00  0.00    -0.650 OA
BRANCH  21  23
HETATM   23  O   UNK N   1       6.220   3.680  -0.061  0.00  0.00    -0.776 OA
HETATM   24  H   UNK N   1       6.651   2.856   0.050  0.00  0.00     0.167 HD
ENDBRANCH  21  23
ENDBRANCH  20  21
ENDBRANCH  17  20
ENDBRANCH  11  14
ENDBRANCH   1   8
BRANCH   5  25
HETATM   25  N   UNK N   1       5.372  -9.650   0.095  0.00  0.00    -0.354 N 
HETATM   26  H   UNK N   1       6.113 -10.294   0.159  0.00  0.00     0.166 HD
BRANCH  25  27
HETATM   27  C   UNK N   1       4.019 -10.013   0.337  0.00  0.00     0.048 A 
HETATM   28  C   UNK N   1       3.456 -11.143  -0.255  0.00  0.00     0.117 A 
HETATM   29  N   UNK N   1       2.100 -11.306  -0.241  0.00  0.00    -0.360 N 
HETATM   30  C   UNK N   1       1.270 -10.382   0.331  0.00  0.00     0.116 A 
ATOM     31  HN  UNK N   1       1.696 -12.138  -0.670  1.00  0.00     0.165 HD
HETATM   32  C   UNK N   1       1.807  -9.270   0.973  0.00  0.00     0.036 A 
HETATM   33  C   UNK N   1       3.174  -9.085   0.967  0.00  0.00     0.033 A 
BRANCH  30  34
HETATM   34  C   UNK N   1      -0.215 -10.525   0.219  0.00  0.00     0.432 C 
HETATM   35  F   UNK N   1      -0.563 -10.538  -1.119  0.00  0.00    -0.165 F 
HETATM   36  F   UNK N   1      -0.865  -9.463   0.832  0.00  0.00    -0.165 F 
HETATM   37  F   UNK N   1      -0.618 -11.703   0.813  0.00  0.00    -0.165 F 
ENDBRANCH  30  34
ENDBRANCH  25  27
ENDBRANCH   5  25
TORSDOF 8
