MODEL 1
REMARK VINA RESULT:      -7.6      0.000      0.000
REMARK  2 active torsions:
REMARK  status: ('A' for Active; 'I' for Inactive)
REMARK    1  A    between atoms: C_2  and  O_23 
REMARK    2  A    between atoms: C_17  and  C_18 
ROOT
HETATM    1  C   UNK N   1      25.889  26.856  -4.007  0.00  0.00     0.032 C 
HETATM    2  C   UNK N   1      25.672  27.198  -5.482  0.00  0.00     0.118 C 
HETATM    3  C   UNK N   1      25.799  25.978  -6.403  0.00  0.00     0.037 C 
HETATM    4  C   UNK N   1      26.627  24.821  -5.824  0.00  0.00    -0.004 C 
HETATM    5  C   UNK N   1      27.787  25.319  -4.915  0.00  0.00    -0.036 C 
HETATM    6  C   UNK N   1      27.201  26.104  -3.721  0.00  0.00     0.012 C 
HETATM    7  C   UNK N   1      27.148  23.967  -6.983  0.00  0.00     0.006 C 
HETATM    8  C   UNK N   1      27.947  22.773  -6.465  0.00  0.00     0.006 C 
HETATM    9  C   UNK N   1      29.114  23.233  -5.586  0.00  0.00    -0.005 C 
HETATM   10  C   UNK N   1      28.575  24.082  -4.394  0.00  0.00    -0.002 C 
HETATM   11  C   UNK N   1      29.866  22.021  -5.015  0.00  0.00    -0.001 C 
HETATM   12  C   UNK N   1      31.025  22.437  -4.115  0.00  0.00    -0.030 C 
HETATM   13  C   UNK N   1      30.480  23.231  -2.926  0.00  0.00     0.011 C 
HETATM   14  C   UNK N   1      29.722  24.473  -3.434  0.00  0.00     0.006 C 
HETATM   15  C   UNK N   1      30.513  21.058  -6.000  0.00  0.00     0.006 C 
HETATM   16  C   UNK N   1      31.575  20.331  -5.156  0.00  0.00     0.013 C 
HETATM   17  C   UNK N   1      31.586  21.054  -3.798  0.00  0.00     0.063 C 
HETATM   18  C   UNK N   1      32.077  23.286  -4.856  0.00  0.00     0.016 C 
HETATM   19  C   UNK N   1      28.727  26.248  -5.689  0.00  0.00     0.016 C 
ENDROOT
BRANCH  17  20
HETATM   20  C   UNK N   1      32.905  21.016  -3.065  0.00  0.00     0.128 C 
HETATM   21  O   UNK N   1      32.973  21.339  -1.892  0.00  0.00    -0.298 OA
HETATM   22  C   UNK N   1      34.145  20.613  -3.789  0.00  0.00     0.091 C 
ENDBRANCH  17  20
BRANCH   2  23
HETATM   23  O   UNK N   1      26.562  28.194  -5.887  0.00  0.00    -0.396 OA
HETATM   24  H   UNK N   1      26.767  28.946  -6.464  0.00  0.00     0.210 HD
ENDBRANCH   2  23
TORSDOF 2
ENDMDL
MODEL 2
REMARK VINA RESULT:      -7.3      4.157      5.661
REMARK  2 active torsions:
REMARK  status: ('A' for Active; 'I' for Inactive)
REMARK    1  A    between atoms: C_2  and  O_23 
REMARK    2  A    between atoms: C_17  and  C_18 
ROOT
HETATM    1  C   UNK N   1      26.436  29.749  -3.319  0.00  0.00     0.032 C 
HETATM    2  C   UNK N   1      27.826  30.295  -3.651  0.00  0.00     0.118 C 
HETATM    3  C   UNK N   1      28.200  30.117  -5.128  0.00  0.00     0.037 C 
HETATM    4  C   UNK N   1      27.438  28.997  -5.853  0.00  0.00    -0.004 C 
HETATM    5  C   UNK N   1      27.107  27.801  -4.914  0.00  0.00    -0.036 C 
HETATM    6  C   UNK N   1      26.210  28.291  -3.757  0.00  0.00     0.012 C 
HETATM    7  C   UNK N   1      28.262  28.550  -7.063  0.00  0.00     0.006 C 
HETATM    8  C   UNK N   1      27.533  27.463  -7.849  0.00  0.00     0.006 C 
HETATM    9  C   UNK N   1      27.217  26.259  -6.957  0.00  0.00    -0.005 C 
HETATM   10  C   UNK N   1      26.357  26.716  -5.738  0.00  0.00    -0.002 C 
HETATM   11  C   UNK N   1      26.421  25.204  -7.741  0.00  0.00    -0.001 C 
HETATM   12  C   UNK N   1      26.068  23.996  -6.880  0.00  0.00    -0.030 C 
HETATM   13  C   UNK N   1      25.187  24.449  -5.713  0.00  0.00     0.011 C 
HETATM   14  C   UNK N   1      25.937  25.503  -4.876  0.00  0.00     0.006 C 
HETATM   15  C   UNK N   1      27.079  24.583  -8.965  0.00  0.00     0.006 C 
HETATM   16  C   UNK N   1      26.307  23.268  -9.168  0.00  0.00     0.013 C 
HETATM   17  C   UNK N   1      25.384  23.140  -7.943  0.00  0.00     0.063 C 
HETATM   18  C   UNK N   1      27.313  23.273  -6.329  0.00  0.00     0.016 C 
HETATM   19  C   UNK N   1      28.387  27.208  -4.314  0.00  0.00     0.016 C 
ENDROOT
BRANCH  17  20
HETATM   20  C   UNK N   1      25.041  21.725  -7.547  0.00  0.00     0.128 C 
HETATM   21  O   UNK N   1      24.206  21.505  -6.687  0.00  0.00    -0.298 OA
HETATM   22  C   UNK N   1      25.754  20.581  -8.187  0.00  0.00     0.091 C 
ENDBRANCH  17  20
BRANCH   2  23
HETATM   23  O   UNK N   1      28.791  29.694  -2.842  0.00  0.00    -0.396 OA
HETATM   24  H   UNK N   1      29.369  29.731  -2.063  0.00  0.00     0.210 HD
ENDBRANCH   2  23
TORSDOF 2
ENDMDL
MODEL 3
REMARK VINA RESULT:      -7.2      1.703      2.301
REMARK  2 active torsions:
REMARK  status: ('A' for Active; 'I' for Inactive)
REMARK    1  A    between atoms: C_2  and  O_23 
REMARK    2  A    between atoms: C_17  and  C_18 
ROOT
HETATM    1  C   UNK N   1      26.014  27.117  -3.332  0.00  0.00     0.032 C 
HETATM    2  C   UNK N   1      25.504  27.911  -4.537  0.00  0.00     0.118 C 
HETATM    3  C   UNK N   1      25.071  27.014  -5.703  0.00  0.00     0.037 C 
HETATM    4  C   UNK N   1      25.707  25.615  -5.707  0.00  0.00    -0.004 C 
HETATM    5  C   UNK N   1      27.154  25.620  -5.134  0.00  0.00    -0.036 C 
HETATM    6  C   UNK N   1      27.123  26.105  -3.669  0.00  0.00     0.012 C 
HETATM    7  C   UNK N   1      25.671  25.067  -7.136  0.00  0.00     0.006 C 
HETATM    8  C   UNK N   1      26.254  23.656  -7.195  0.00  0.00     0.006 C 
HETATM    9  C   UNK N   1      27.690  23.634  -6.661  0.00  0.00    -0.005 C 
HETATM   10  C   UNK N   1      27.717  24.171  -5.197  0.00  0.00    -0.002 C 
HETATM   11  C   UNK N   1      28.239  22.199  -6.659  0.00  0.00    -0.001 C 
HETATM   12  C   UNK N   1      29.662  22.131  -6.114  0.00  0.00    -0.030 C 
HETATM   13  C   UNK N   1      29.669  22.618  -4.664  0.00  0.00     0.011 C 
HETATM   14  C   UNK N   1      29.139  24.063  -4.598  0.00  0.00     0.006 C 
HETATM   15  C   UNK N   1      28.339  21.475  -7.995  0.00  0.00     0.006 C 
HETATM   16  C   UNK N   1      29.370  20.364  -7.732  0.00  0.00     0.013 C 
HETATM   17  C   UNK N   1      29.923  20.641  -6.323  0.00  0.00     0.063 C 
HETATM   18  C   UNK N   1      30.656  22.971  -6.940  0.00  0.00     0.016 C 
HETATM   19  C   UNK N   1      28.055  26.566  -5.936  0.00  0.00     0.016 C 
ENDROOT
BRANCH  17  20
HETATM   20  C   UNK N   1      31.336  20.168  -6.087  0.00  0.00     0.128 C 
HETATM   21  O   UNK N   1      32.063  19.890  -7.025  0.00  0.00    -0.298 OA
HETATM   22  C   UNK N   1      31.842  20.002  -4.693  0.00  0.00     0.091 C 
ENDBRANCH  17  20
BRANCH   2  23
HETATM   23  O   UNK N   1      26.473  28.817  -4.968  0.00  0.00    -0.396 OA
HETATM   24  H   UNK N   1      27.288  28.996  -5.463  0.00  0.00     0.210 HD
ENDBRANCH   2  23
TORSDOF 2
ENDMDL
MODEL 4
REMARK VINA RESULT:      -7.1      1.376      6.688
REMARK  2 active torsions:
REMARK  status: ('A' for Active; 'I' for Inactive)
REMARK    1  A    between atoms: C_2  and  O_23 
REMARK    2  A    between atoms: C_17  and  C_18 
ROOT
HETATM    1  C   UNK N   1      32.923  22.140  -4.841  0.00  0.00     0.032 C 
HETATM    2  C   UNK N   1      32.371  20.717  -4.949  0.00  0.00     0.118 C 
HETATM    3  C   UNK N   1      31.145  20.621  -5.866  0.00  0.00     0.037 C 
HETATM    4  C   UNK N   1      30.377  21.938  -6.051  0.00  0.00    -0.004 C 
HETATM    5  C   UNK N   1      30.410  22.827  -4.775  0.00  0.00    -0.036 C 
HETATM    6  C   UNK N   1      31.873  23.195  -4.445  0.00  0.00     0.012 C 
HETATM    7  C   UNK N   1      28.941  21.609  -6.469  0.00  0.00     0.006 C 
HETATM    8  C   UNK N   1      28.136  22.885  -6.708  0.00  0.00     0.006 C 
HETATM    9  C   UNK N   1      28.129  23.772  -5.459  0.00  0.00    -0.005 C 
HETATM   10  C   UNK N   1      29.593  24.122  -5.051  0.00  0.00    -0.002 C 
HETATM   11  C   UNK N   1      27.377  25.083  -5.735  0.00  0.00    -0.001 C 
HETATM   12  C   UNK N   1      27.365  26.004  -4.520  0.00  0.00    -0.030 C 
HETATM   13  C   UNK N   1      28.805  26.377  -4.157  0.00  0.00     0.011 C 
HETATM   14  C   UNK N   1      29.612  25.101  -3.854  0.00  0.00     0.006 C 
HETATM   15  C   UNK N   1      25.908  24.991  -6.121  0.00  0.00     0.006 C 
HETATM   16  C   UNK N   1      25.357  26.392  -5.801  0.00  0.00     0.013 C 
HETATM   17  C   UNK N   1      26.503  27.129  -5.085  0.00  0.00     0.063 C 
HETATM   18  C   UNK N   1      26.680  25.365  -3.296  0.00  0.00     0.016 C 
HETATM   19  C   UNK N   1      29.817  22.083  -3.574  0.00  0.00     0.016 C 
ENDROOT
BRANCH  17  20
HETATM   20  C   UNK N   1      26.065  28.195  -4.110  0.00  0.00     0.128 C 
HETATM   21  O   UNK N   1      25.190  27.968  -3.293  0.00  0.00    -0.298 OA
HETATM   22  C   UNK N   1      26.682  29.552  -4.166  0.00  0.00     0.091 C 
ENDBRANCH  17  20
BRANCH   2  23
HETATM   23  O   UNK N   1      32.058  20.219  -3.684  0.00  0.00    -0.396 OA
HETATM   24  H   UNK N   1      31.569  20.303  -2.851  0.00  0.00     0.210 HD
ENDBRANCH   2  23
TORSDOF 2
ENDMDL
MODEL 5
REMARK VINA RESULT:      -7.1     22.376     26.217
REMARK  2 active torsions:
REMARK  status: ('A' for Active; 'I' for Inactive)
REMARK    1  A    between atoms: C_2  and  O_23 
REMARK    2  A    between atoms: C_17  and  C_18 
ROOT
HETATM    1  C   UNK N   1      33.607   8.413  19.829  0.00  0.00     0.032 C 
HETATM    2  C   UNK N   1      34.436   8.923  21.009  0.00  0.00     0.118 C 
HETATM    3  C   UNK N   1      34.697  10.433  20.947  0.00  0.00     0.037 C 
HETATM    4  C   UNK N   1      34.598  11.044  19.541  0.00  0.00    -0.004 C 
HETATM    5  C   UNK N   1      35.066  10.058  18.432  0.00  0.00    -0.036 C 
HETATM    6  C   UNK N   1      34.167   8.803  18.450  0.00  0.00     0.012 C 
HETATM    7  C   UNK N   1      35.408  12.343  19.516  0.00  0.00     0.006 C 
HETATM    8  C   UNK N   1      35.312  13.020  18.150  0.00  0.00     0.006 C 
HETATM    9  C   UNK N   1      35.792  12.082  17.038  0.00  0.00    -0.005 C 
HETATM   10  C   UNK N   1      34.947  10.770  17.054  0.00  0.00    -0.002 C 
HETATM   11  C   UNK N   1      35.624  12.748  15.664  0.00  0.00    -0.001 C 
HETATM   12  C   UNK N   1      36.071  11.836  14.526  0.00  0.00    -0.030 C 
HETATM   13  C   UNK N   1      35.207  10.573  14.523  0.00  0.00     0.011 C 
HETATM   14  C   UNK N   1      35.342   9.848  15.876  0.00  0.00     0.006 C 
HETATM   15  C   UNK N   1      36.388  14.038  15.402  0.00  0.00     0.006 C 
HETATM   16  C   UNK N   1      36.438  14.129  13.867  0.00  0.00     0.013 C 
HETATM   17  C   UNK N   1      35.860  12.796  13.358  0.00  0.00     0.063 C 
HETATM   18  C   UNK N   1      37.556  11.438  14.632  0.00  0.00     0.016 C 
HETATM   19  C   UNK N   1      36.514   9.617  18.668  0.00  0.00     0.016 C 
ENDROOT
BRANCH  17  20
HETATM   20  C   UNK N   1      36.382  12.345  12.016  0.00  0.00     0.128 C 
HETATM   21  O   UNK N   1      35.895  11.381  11.452  0.00  0.00    -0.298 OA
HETATM   22  C   UNK N   1      37.528  13.062  11.386  0.00  0.00     0.091 C 
ENDBRANCH  17  20
BRANCH   2  23
HETATM   23  O   UNK N   1      35.647   8.234  21.086  0.00  0.00    -0.396 OA
HETATM   24  H   UNK N   1      36.380   7.781  20.641  0.00  0.00     0.210 HD
ENDBRANCH   2  23
TORSDOF 2
ENDMDL
MODEL 6
REMARK VINA RESULT:      -6.7      1.640      7.065
REMARK  2 active torsions:
REMARK  status: ('A' for Active; 'I' for Inactive)
REMARK    1  A    between atoms: C_2  and  O_23 
REMARK    2  A    between atoms: C_17  and  C_18 
ROOT
HETATM    1  C   UNK N   1      32.980  19.632  -6.278  0.00  0.00     0.032 C 
HETATM    2  C   UNK N   1      34.005  20.101  -5.244  0.00  0.00     0.118 C 
HETATM    3  C   UNK N   1      33.361  20.547  -3.925  0.00  0.00     0.037 C 
HETATM    4  C   UNK N   1      31.889  20.969  -4.041  0.00  0.00    -0.004 C 
HETATM    5  C   UNK N   1      31.570  21.641  -5.407  0.00  0.00    -0.036 C 
HETATM    6  C   UNK N   1      31.849  20.640  -6.548  0.00  0.00     0.012 C 
HETATM    7  C   UNK N   1      31.554  21.894  -2.867  0.00  0.00     0.006 C 
HETATM    8  C   UNK N   1      30.086  22.315  -2.906  0.00  0.00     0.006 C 
HETATM    9  C   UNK N   1      29.747  23.005  -4.231  0.00  0.00    -0.005 C 
HETATM   10  C   UNK N   1      30.069  22.049  -5.421  0.00  0.00    -0.002 C 
HETATM   11  C   UNK N   1      28.253  23.359  -4.285  0.00  0.00    -0.001 C 
HETATM   12  C   UNK N   1      27.871  24.030  -5.600  0.00  0.00    -0.030 C 
HETATM   13  C   UNK N   1      28.148  23.067  -6.757  0.00  0.00     0.011 C 
HETATM   14  C   UNK N   1      29.640  22.682  -6.765  0.00  0.00     0.006 C 
HETATM   15  C   UNK N   1      27.711  24.314  -3.232  0.00  0.00     0.006 C 
HETATM   16  C   UNK N   1      26.416  24.855  -3.861  0.00  0.00     0.013 C 
HETATM   17  C   UNK N   1      26.401  24.313  -5.301  0.00  0.00     0.063 C 
HETATM   18  C   UNK N   1      28.634  25.348  -5.839  0.00  0.00     0.016 C 
HETATM   19  C   UNK N   1      32.448  22.878  -5.625  0.00  0.00     0.016 C 
ENDROOT
BRANCH  17  20
HETATM   20  C   UNK N   1      25.667  25.174  -6.300  0.00  0.00     0.128 C 
HETATM   21  O   UNK N   1      25.418  24.755  -7.417  0.00  0.00    -0.298 OA
HETATM   22  C   UNK N   1      25.271  26.565  -5.933  0.00  0.00     0.091 C 
ENDBRANCH  17  20
BRANCH   2  23
HETATM   23  O   UNK N   1      34.784  21.136  -5.765  0.00  0.00    -0.396 OA
HETATM   24  H   UNK N   1      35.482  21.798  -5.645  0.00  0.00     0.210 HD
ENDBRANCH   2  23
TORSDOF 2
ENDMDL
MODEL 7
REMARK VINA RESULT:      -6.7     20.007     23.807
REMARK  2 active torsions:
REMARK  status: ('A' for Active; 'I' for Inactive)
REMARK    1  A    between atoms: C_2  and  O_23 
REMARK    2  A    between atoms: C_17  and  C_18 
ROOT
HETATM    1  C   UNK N   1      38.067  12.043   9.803  0.00  0.00     0.032 C 
HETATM    2  C   UNK N   1      37.091  13.094   9.271  0.00  0.00     0.118 C 
HETATM    3  C   UNK N   1      36.702  14.136  10.327  0.00  0.00     0.037 C 
HETATM    4  C   UNK N   1      36.874  13.671  11.781  0.00  0.00    -0.004 C 
HETATM    5  C   UNK N   1      36.601  12.150  11.953  0.00  0.00    -0.036 C 
HETATM    6  C   UNK N   1      37.603  11.348  11.095  0.00  0.00     0.012 C 
HETATM    7  C   UNK N   1      35.957  14.512  12.673  0.00  0.00     0.006 C 
HETATM    8  C   UNK N   1      36.116  14.122  14.141  0.00  0.00     0.006 C 
HETATM    9  C   UNK N   1      35.827  12.632  14.348  0.00  0.00    -0.005 C 
HETATM   10  C   UNK N   1      36.781  11.780  13.454  0.00  0.00    -0.002 C 
HETATM   11  C   UNK N   1      36.060  12.238  15.815  0.00  0.00    -0.001 C 
HETATM   12  C   UNK N   1      35.803  10.755  16.058  0.00  0.00    -0.030 C 
HETATM   13  C   UNK N   1      36.773   9.929  15.210  0.00  0.00     0.011 C 
HETATM   14  C   UNK N   1      36.580  10.270  13.720  0.00  0.00     0.006 C 
HETATM   15  C   UNK N   1      35.210  12.922  16.877  0.00  0.00     0.006 C 
HETATM   16  C   UNK N   1      35.294  11.968  18.081  0.00  0.00     0.013 C 
HETATM   17  C   UNK N   1      36.033  10.720  17.566  0.00  0.00     0.063 C 
HETATM   18  C   UNK N   1      34.355  10.341  15.726  0.00  0.00     0.016 C 
HETATM   19  C   UNK N   1      35.182  11.794  11.495  0.00  0.00     0.016 C 
ENDROOT
BRANCH  17  20
HETATM   20  C   UNK N   1      35.678   9.433  18.270  0.00  0.00     0.128 C 
HETATM   21  O   UNK N   1      36.395   8.452  18.169  0.00  0.00    -0.298 OA
HETATM   22  C   UNK N   1      34.422   9.344  19.069  0.00  0.00     0.091 C 
ENDBRANCH  17  20
BRANCH   2  23
HETATM   23  O   UNK N   1      35.944  12.480   8.764  0.00  0.00    -0.396 OA
HETATM   24  H   UNK N   1      35.312  11.745   8.785  0.00  0.00     0.210 HD
ENDBRANCH   2  23
TORSDOF 2
ENDMDL
MODEL 8
REMARK VINA RESULT:      -6.6     13.482     17.833
REMARK  2 active torsions:
REMARK  status: ('A' for Active; 'I' for Inactive)
REMARK    1  A    between atoms: C_2  and  O_23 
REMARK    2  A    between atoms: C_17  and  C_18 
ROOT
HETATM    1  C   UNK N   1      35.172  12.409  12.279  0.00  0.00     0.032 C 
HETATM    2  C   UNK N   1      36.257  13.314  12.866  0.00  0.00     0.118 C 
HETATM    3  C   UNK N   1      36.020  14.800  12.570  0.00  0.00     0.037 C 
HETATM    4  C   UNK N   1      35.133  15.077  11.347  0.00  0.00    -0.004 C 
HETATM    5  C   UNK N   1      35.314  14.011  10.229  0.00  0.00    -0.036 C 
HETATM    6  C   UNK N   1      34.918  12.622  10.776  0.00  0.00     0.012 C 
HETATM    7  C   UNK N   1      35.437  16.487  10.833  0.00  0.00     0.006 C 
HETATM    8  C   UNK N   1      34.552  16.836   9.638  0.00  0.00     0.006 C 
HETATM    9  C   UNK N   1      34.729  15.817   8.508  0.00  0.00    -0.005 C 
HETATM   10  C   UNK N   1      34.395  14.386   9.031  0.00  0.00    -0.002 C 
HETATM   11  C   UNK N   1      33.782  16.139   7.342  0.00  0.00    -0.001 C 
HETATM   12  C   UNK N   1      33.912  15.133   6.204  0.00  0.00    -0.030 C 
HETATM   13  C   UNK N   1      33.539  13.740   6.716  0.00  0.00     0.011 C 
HETATM   14  C   UNK N   1      34.465  13.351   7.884  0.00  0.00     0.006 C 
HETATM   15  C   UNK N   1      33.944  17.482   6.645  0.00  0.00     0.006 C 
HETATM   16  C   UNK N   1      33.274  17.268   5.277  0.00  0.00     0.013 C 
HETATM   17  C   UNK N   1      32.937  15.767   5.216  0.00  0.00     0.063 C 
HETATM   18  C   UNK N   1      35.332  15.093   5.606  0.00  0.00     0.016 C 
HETATM   19  C   UNK N   1      36.774  13.948   9.766  0.00  0.00     0.016 C 
ENDROOT
BRANCH  17  20
HETATM   20  C   UNK N   1      32.908  15.176   3.827  0.00  0.00     0.128 C 
HETATM   21  O   UNK N   1      33.509  15.711   2.912  0.00  0.00    -0.298 OA
HETATM   22  C   UNK N   1      32.108  13.945   3.560  0.00  0.00     0.091 C 
ENDBRANCH  17  20
BRANCH   2  23
HETATM   23  O   UNK N   1      37.515  12.931  12.398  0.00  0.00    -0.396 OA
HETATM   24  H   UNK N   1      38.061  12.336  11.860  0.00  0.00     0.210 HD
ENDBRANCH   2  23
TORSDOF 2
ENDMDL
MODEL 9
REMARK VINA RESULT:      -6.5     12.604     16.172
REMARK  2 active torsions:
REMARK  status: ('A' for Active; 'I' for Inactive)
REMARK    1  A    between atoms: C_2  and  O_23 
REMARK    2  A    between atoms: C_17  and  C_18 
ROOT
HETATM    1  C   UNK N   1      33.437  16.007   3.071  0.00  0.00     0.032 C 
HETATM    2  C   UNK N   1      32.061  16.627   3.316  0.00  0.00     0.118 C 
HETATM    3  C   UNK N   1      32.036  17.562   4.532  0.00  0.00     0.037 C 
HETATM    4  C   UNK N   1      33.141  17.299   5.566  0.00  0.00    -0.004 C 
HETATM    5  C   UNK N   1      33.513  15.792   5.666  0.00  0.00    -0.036 C 
HETATM    6  C   UNK N   1      34.040  15.303   4.300  0.00  0.00     0.012 C 
HETATM    7  C   UNK N   1      32.686  17.856   6.918  0.00  0.00     0.006 C 
HETATM    8  C   UNK N   1      33.765  17.660   7.981  0.00  0.00     0.006 C 
HETATM    9  C   UNK N   1      34.134  16.180   8.121  0.00  0.00    -0.005 C 
HETATM   10  C   UNK N   1      34.620  15.624   6.746  0.00  0.00    -0.002 C 
HETATM   11  C   UNK N   1      35.270  16.004   9.141  0.00  0.00    -0.001 C 
HETATM   12  C   UNK N   1      35.682  14.544   9.294  0.00  0.00    -0.030 C 
HETATM   13  C   UNK N   1      36.198  14.023   7.951  0.00  0.00     0.011 C 
HETATM   14  C   UNK N   1      35.097  14.160   6.883  0.00  0.00     0.006 C 
HETATM   15  C   UNK N   1      35.012  16.449  10.574  0.00  0.00     0.006 C 
HETATM   16  C   UNK N   1      36.063  15.677  11.391  0.00  0.00     0.013 C 
HETATM   17  C   UNK N   1      36.726  14.708  10.396  0.00  0.00     0.063 C 
HETATM   18  C   UNK N   1      34.526  13.648   9.779  0.00  0.00     0.016 C 
HETATM   19  C   UNK N   1      32.288  14.950   6.039  0.00  0.00     0.016 C 
ENDROOT
BRANCH  17  20
HETATM   20  C   UNK N   1      37.264  13.437  11.005  0.00  0.00     0.128 C 
HETATM   21  O   UNK N   1      38.045  12.734  10.388  0.00  0.00    -0.298 OA
HETATM   22  C   UNK N   1      36.812  13.014  12.363  0.00  0.00     0.091 C 
ENDBRANCH  17  20
BRANCH   2  23
HETATM   23  O   UNK N   1      31.097  15.630   3.465  0.00  0.00    -0.396 OA
HETATM   24  H   UNK N   1      30.244  15.339   3.825  0.00  0.00     0.210 HD
ENDBRANCH   2  23
TORSDOF 2
ENDMDL
