REMARK  16 active torsions:
REMARK  status: ('A' for Active; 'I' for Inactive)
REMARK    1  A    between atoms: C_6  and  N_7 
REMARK       I    between atoms: N_7  and  C_8 
REMARK       I    between atoms: C_8  and  N_10 
REMARK    2  A    between atoms: N_10  and  C_11 
REMARK    3  A    between atoms: C_11  and  C_12 
REMARK    4  A    between atoms: C_12  and  C_13 
REMARK    5  A    between atoms: C_13  and  C_14 
REMARK    6  A    between atoms: C_14  and  C_15 
REMARK    7  A    between atoms: C_15  and  C_16 
REMARK    8  A    between atoms: C_15  and  N_19 
REMARK    9  A    between atoms: C_16  and  O_18 
REMARK       I    between atoms: N_19  and  C_20 
REMARK       I    between atoms: C_20  and  N_22 
REMARK   10  A    between atoms: C_23  and  N_22 
REMARK   11  A    between atoms: C_23  and  C_24 
REMARK   12  A    between atoms: C_23  and  C_29 
REMARK   13  A    between atoms: C_24  and  C_25 
REMARK   14  A    between atoms: C_25  and  C_26 
REMARK   15  A    between atoms: C_26  and  O_28 
REMARK   16  A    between atoms: C_29  and  O_31 
ROOT
HETATM    1  C   UNK N   1       6.805  -0.248   0.003  0.00  0.00     0.184 C 
ENDROOT
BRANCH   1   2
HETATM    2  C   UNK N   1       6.412  -1.206   1.144  0.00  0.00     0.036 C 
BRANCH   2   3
HETATM    3  C   UNK N   1       4.910  -1.285   1.407  0.00  0.00     0.004 C 
BRANCH   3   4
HETATM    4  C   UNK N   1       4.175  -2.274   0.503  0.00  0.00     0.020 C 
BRANCH   4   5
HETATM    5  C   UNK N   1       4.113  -1.851  -0.966  0.00  0.00     0.124 C 
BRANCH   5   6
HETATM    6  N   UNK N   1       3.966  -0.421  -1.109  0.00  0.00    -0.343 N 
HETATM    7  C   UNK N   1       2.836   0.260  -0.807  0.00  0.00     0.320 C 
HETATM    8  N   UNK N   1       1.711  -0.404  -0.414  0.00  0.00    -0.309 N 
HETATM    9  O   UNK N   1       2.834   1.475  -0.929  0.00  0.00    -0.247 OA
HETATM   10  H   UNK N   1       1.764  -1.385  -0.343  0.00  0.00     0.170 HD
HETATM   11  H   UNK N   1       4.736   0.091  -1.447  0.00  0.00     0.164 HD
BRANCH   8  12
HETATM   12  C   UNK N   1       0.465   0.213  -0.097  0.00  0.00     0.036 A 
HETATM   13  C   UNK N   1       0.355   1.597   0.123  0.00  0.00     0.031 A 
HETATM   14  C   UNK N   1      -0.891   2.181   0.359  0.00  0.00     0.020 A 
HETATM   15  C   UNK N   1      -2.039   1.388   0.372  0.00  0.00     0.006 A 
HETATM   16  C   UNK N   1      -1.939   0.008   0.174  0.00  0.00     0.020 A 
HETATM   17  I   UNK N   1      -3.923   2.283   0.644  0.00  0.00    -0.045 I 
HETATM   18  C   UNK N   1      -0.689  -0.577  -0.054  0.00  0.00     0.031 A 
ENDBRANCH   8  12
ENDBRANCH   5   6
ENDBRANCH   4   5
ENDBRANCH   3   4
ENDBRANCH   2   3
ENDBRANCH   1   2
BRANCH   1  19
HETATM   19  C   UNK N   1       6.252   1.154   0.112  0.00  0.00     0.163 C 
HETATM   20  O   UNK N   1       6.432   1.941  -0.803  0.00  0.00    -0.648 OA
BRANCH  19  21
HETATM   21  O   UNK N   1       5.562   1.549   1.199  0.00  0.00    -0.775 OA
HETATM   22  H   UNK N   1       5.559   2.102   1.955  0.00  0.00     0.167 HD
ENDBRANCH  19  21
ENDBRANCH   1  19
BRANCH   1  23
HETATM   23  N   UNK N   1       8.247  -0.178  -0.134  0.00  0.00    -0.329 N 
HETATM   24  C   UNK N   1       9.080   0.177   0.885  0.00  0.00     0.317 C 
HETATM   25  O   UNK N   1       8.638   0.368   2.008  0.00  0.00    -0.247 OA
HETATM   26  N   UNK N   1      10.403   0.340   0.665  0.00  0.00    -0.329 N 
HETATM   27  H   UNK N   1      10.989   0.538   1.430  0.00  0.00     0.165 HD
HETATM   28  H   UNK N   1       8.645  -0.398  -1.008  0.00  0.00     0.165 HD
BRANCH  26  29
HETATM   29  C   UNK N   1      10.989   0.236  -0.650  0.00  0.00     0.184 C 
BRANCH  29  30
HETATM   30  C   UNK N   1      12.002  -0.910  -0.722  0.00  0.00     0.046 C 
BRANCH  30  31
HETATM   31  C   UNK N   1      12.923  -0.991   0.493  0.00  0.00     0.112 C 
BRANCH  31  32
HETATM   32  C   UNK N   1      14.344  -0.727   0.121  0.00  0.00     0.139 C 
HETATM   33  O   UNK N   1      14.688   0.383  -0.248  0.00  0.00    -0.650 OA
BRANCH  32  34
HETATM   34  O   UNK N   1      15.256  -1.710   0.226  0.00  0.00    -0.776 OA
HETATM   35  H   UNK N   1      14.981  -2.603   0.300  0.00  0.00     0.167 HD
ENDBRANCH  32  34
ENDBRANCH  31  32
ENDBRANCH  30  31
ENDBRANCH  29  30
BRANCH  29  36
HETATM   36  C   UNK N   1      11.576   1.559  -1.041  0.00  0.00     0.163 C 
HETATM   37  O   UNK N   1      12.455   2.073  -0.368  0.00  0.00    -0.648 OA
BRANCH  36  38
HETATM   38  O   UNK N   1      11.098   2.206  -2.120  0.00  0.00    -0.775 OA
HETATM   39  H   UNK N   1      11.321   2.719  -2.871  0.00  0.00     0.167 HD
ENDBRANCH  36  38
ENDBRANCH  29  36
ENDBRANCH  26  29
ENDBRANCH   1  23
TORSDOF 16
