MODEL 1
REMARK VINA RESULT:      -5.1      0.000      0.000
REMARK  6 active torsions:
REMARK  status: ('A' for Active; 'I' for Inactive)
REMARK    1  A    between atoms: C_1  and  O_7 
REMARK    2  A    between atoms: C_2  and  O_12 
REMARK    3  A    between atoms: C_3  and  O_11 
REMARK    4  A    between atoms: C_4  and  O_10 
REMARK    5  A    between atoms: C_5  and  O_9 
REMARK    6  A    between atoms: C_6  and  O_8 
ROOT
HETATM    1  C   UNK N   1      20.685  19.616   1.164  0.00  0.00     0.180 A 
HETATM    2  C   UNK N   1      20.398  18.133   0.976  0.00  0.00     0.181 A 
HETATM    3  C   UNK N   1      20.330  17.171   2.164  0.00  0.00     0.183 A 
HETATM    4  C   UNK N   1      20.567  17.763   3.581  0.00  0.00     0.181 A 
HETATM    5  C   UNK N   1      20.853  19.251   3.759  0.00  0.00     0.180 A 
HETATM    6  C   UNK N   1      20.913  20.177   2.555  0.00  0.00     0.180 A 
ENDROOT
BRANCH   1   7
HETATM    7  O   UNK N   1      20.737  20.460   0.054  0.00  0.00    -0.390 OA
HETATM    8  H   UNK N   1      20.817  20.085  -0.838  0.00  0.00     0.210 HD
ENDBRANCH   1   7
BRANCH   2   9
HETATM    9  O   UNK N   1      20.191  17.638  -0.310  0.00  0.00    -0.390 OA
HETATM   10  H   UNK N   1      20.062  18.251  -1.051  0.00  0.00     0.210 HD
ENDBRANCH   2   9
BRANCH   6  11
HETATM   11  O   UNK N   1      21.176  21.538   2.727  0.00  0.00    -0.390 OA
HETATM   12  H   UNK N   1      20.442  22.168   2.796  0.00  0.00     0.210 HD
ENDBRANCH   6  11
BRANCH   3  13
HETATM   13  O   UNK N   1      20.055  15.820   1.835  0.00  0.00    -0.385 OA
HETATM   14  C   UNK N   1      21.219  15.046   1.818  0.00  0.00     0.202 C 
ENDBRANCH   3  13
BRANCH   5  15
HETATM   15  O   UNK N   1      21.063  19.766   5.038  0.00  0.00    -0.390 OA
HETATM   16  H   UNK N   1      20.310  20.068   5.569  0.00  0.00     0.210 HD
ENDBRANCH   5  15
BRANCH   4  17
HETATM   17  O   UNK N   1      20.526  16.967   4.728  0.00  0.00    -0.390 OA
HETATM   18  H   UNK N   1      21.067  17.199   5.500  0.00  0.00     0.210 HD
ENDBRANCH   4  17
TORSDOF 6
ENDMDL
MODEL 2
REMARK VINA RESULT:      -5.1      0.703      2.449
REMARK  6 active torsions:
REMARK  status: ('A' for Active; 'I' for Inactive)
REMARK    1  A    between atoms: C_1  and  O_7 
REMARK    2  A    between atoms: C_2  and  O_12 
REMARK    3  A    between atoms: C_3  and  O_11 
REMARK    4  A    between atoms: C_4  and  O_10 
REMARK    5  A    between atoms: C_5  and  O_9 
REMARK    6  A    between atoms: C_6  and  O_8 
ROOT
HETATM    1  C   UNK N   1      20.311  18.117   0.962  0.00  0.00     0.180 A 
HETATM    2  C   UNK N   1      20.143  17.217   2.179  0.00  0.00     0.181 A 
HETATM    3  C   UNK N   1      20.362  17.739   3.600  0.00  0.00     0.183 A 
HETATM    4  C   UNK N   1      20.764  19.231   3.763  0.00  0.00     0.181 A 
HETATM    5  C   UNK N   1      20.929  20.125   2.537  0.00  0.00     0.180 A 
HETATM    6  C   UNK N   1      20.704  19.572   1.139  0.00  0.00     0.180 A 
ENDROOT
BRANCH   1   7
HETATM    7  O   UNK N   1      20.102  17.601  -0.318  0.00  0.00    -0.390 OA
HETATM    8  H   UNK N   1      19.557  18.088  -0.955  0.00  0.00     0.210 HD
ENDBRANCH   1   7
BRANCH   2   9
HETATM    9  O   UNK N   1      19.782  15.884   1.993  0.00  0.00    -0.390 OA
HETATM   10  H   UNK N   1      18.846  15.641   1.914  0.00  0.00     0.210 HD
ENDBRANCH   2   9
BRANCH   6  11
HETATM   11  O   UNK N   1      20.858  20.397   0.023  0.00  0.00    -0.390 OA
HETATM   12  H   UNK N   1      20.982  21.352   0.140  0.00  0.00     0.210 HD
ENDBRANCH   6  11
BRANCH   3  13
HETATM   13  O   UNK N   1      20.170  16.787   4.632  0.00  0.00    -0.385 OA
HETATM   14  C   UNK N   1      21.388  16.295   5.112  0.00  0.00     0.202 C 
ENDBRANCH   3  13
BRANCH   5  15
HETATM   15  O   UNK N   1      21.291  21.462   2.701  0.00  0.00    -0.390 OA
HETATM   16  H   UNK N   1      20.605  22.140   2.811  0.00  0.00     0.210 HD
ENDBRANCH   5  15
BRANCH   4  17
HETATM   17  O   UNK N   1      20.986  19.802   5.018  0.00  0.00    -0.390 OA
HETATM   18  H   UNK N   1      20.797  20.743   5.164  0.00  0.00     0.210 HD
ENDBRANCH   4  17
TORSDOF 6
ENDMDL
MODEL 3
REMARK VINA RESULT:      -5.1     13.742     14.588
REMARK  6 active torsions:
REMARK  status: ('A' for Active; 'I' for Inactive)
REMARK    1  A    between atoms: C_1  and  O_7 
REMARK    2  A    between atoms: C_2  and  O_12 
REMARK    3  A    between atoms: C_3  and  O_11 
REMARK    4  A    between atoms: C_4  and  O_10 
REMARK    5  A    between atoms: C_5  and  O_9 
REMARK    6  A    between atoms: C_6  and  O_8 
ROOT
HETATM    1  C   UNK N   1      34.572  17.686   8.456  0.00  0.00     0.180 A 
HETATM    2  C   UNK N   1      33.931  17.191   7.166  0.00  0.00     0.181 A 
HETATM    3  C   UNK N   1      33.138  15.884   7.113  0.00  0.00     0.183 A 
HETATM    4  C   UNK N   1      33.007  15.070   8.431  0.00  0.00     0.181 A 
HETATM    5  C   UNK N   1      33.654  15.575   9.718  0.00  0.00     0.180 A 
HETATM    6  C   UNK N   1      34.435  16.879   9.733  0.00  0.00     0.180 A 
ENDROOT
BRANCH   1   7
HETATM    7  O   UNK N   1      35.287  18.884   8.461  0.00  0.00    -0.390 OA
HETATM    8  H   UNK N   1      35.307  19.435   9.259  0.00  0.00     0.210 HD
ENDBRANCH   1   7
BRANCH   2   9
HETATM    9  O   UNK N   1      34.070  17.948   6.005  0.00  0.00    -0.390 OA
HETATM   10  H   UNK N   1      33.367  17.947   5.337  0.00  0.00     0.210 HD
ENDBRANCH   2   9
BRANCH   6  11
HETATM   11  O   UNK N   1      35.022  17.333  10.915  0.00  0.00    -0.390 OA
HETATM   12  H   UNK N   1      34.912  16.827  11.736  0.00  0.00     0.210 HD
ENDBRANCH   6  11
BRANCH   3  13
HETATM   13  O   UNK N   1      32.600  15.552   5.845  0.00  0.00    -0.385 OA
HETATM   14  C   UNK N   1      31.235  15.845   5.772  0.00  0.00     0.202 C 
ENDBRANCH   3  13
BRANCH   5  15
HETATM   15  O   UNK N   1      33.526  14.832  10.891  0.00  0.00    -0.390 OA
HETATM   16  H   UNK N   1      34.079  14.047  11.031  0.00  0.00     0.210 HD
ENDBRANCH   5  15
BRANCH   4  17
HETATM   17  O   UNK N   1      32.304  13.865   8.485  0.00  0.00    -0.390 OA
HETATM   18  H   UNK N   1      32.632  13.135   9.035  0.00  0.00     0.210 HD
ENDBRANCH   4  17
TORSDOF 6
ENDMDL
MODEL 4
REMARK VINA RESULT:      -5.0     13.735     14.776
REMARK  6 active torsions:
REMARK  status: ('A' for Active; 'I' for Inactive)
REMARK    1  A    between atoms: C_1  and  O_7 
REMARK    2  A    between atoms: C_2  and  O_12 
REMARK    3  A    between atoms: C_3  and  O_11 
REMARK    4  A    between atoms: C_4  and  O_10 
REMARK    5  A    between atoms: C_5  and  O_9 
REMARK    6  A    between atoms: C_6  and  O_8 
ROOT
HETATM    1  C   UNK N   1      33.654  15.572   9.732  0.00  0.00     0.180 A 
HETATM    2  C   UNK N   1      33.008  15.070   8.448  0.00  0.00     0.181 A 
HETATM    3  C   UNK N   1      33.120  15.849   7.136  0.00  0.00     0.183 A 
HETATM    4  C   UNK N   1      33.920  17.181   7.157  0.00  0.00     0.181 A 
HETATM    5  C   UNK N   1      34.563  17.674   8.450  0.00  0.00     0.180 A 
HETATM    6  C   UNK N   1      34.432  16.874   9.736  0.00  0.00     0.180 A 
ENDROOT
BRANCH   1   7
HETATM    7  O   UNK N   1      33.528  14.830  10.908  0.00  0.00    -0.390 OA
HETATM    8  H   UNK N   1      32.723  14.316  11.075  0.00  0.00     0.210 HD
ENDBRANCH   1   7
BRANCH   2   9
HETATM    9  O   UNK N   1      32.298  13.871   8.467  0.00  0.00    -0.390 OA
HETATM   10  H   UNK N   1      31.352  13.871   8.682  0.00  0.00     0.210 HD
ENDBRANCH   2   9
BRANCH   6  11
HETATM   11  O   UNK N   1      35.024  17.333  10.914  0.00  0.00    -0.390 OA
HETATM   12  H   UNK N   1      34.470  17.564  11.677  0.00  0.00     0.210 HD
ENDBRANCH   6  11
BRANCH   3  13
HETATM   13  O   UNK N   1      32.468  15.260   6.024  0.00  0.00    -0.385 OA
HETATM   14  C   UNK N   1      31.234  15.865   5.770  0.00  0.00     0.202 C 
ENDBRANCH   3  13
BRANCH   5  15
HETATM   15  O   UNK N   1      35.279  18.872   8.452  0.00  0.00    -0.390 OA
HETATM   16  H   UNK N   1      36.087  18.953   8.983  0.00  0.00     0.210 HD
ENDBRANCH   5  15
BRANCH   4  17
HETATM   17  O   UNK N   1      34.079  17.964   6.012  0.00  0.00    -0.390 OA
HETATM   18  H   UNK N   1      33.307  18.198   5.473  0.00  0.00     0.210 HD
ENDBRANCH   4  17
TORSDOF 6
ENDMDL
MODEL 5
REMARK VINA RESULT:      -5.0      0.742      3.393
REMARK  6 active torsions:
REMARK  status: ('A' for Active; 'I' for Inactive)
REMARK    1  A    between atoms: C_1  and  O_7 
REMARK    2  A    between atoms: C_2  and  O_12 
REMARK    3  A    between atoms: C_3  and  O_11 
REMARK    4  A    between atoms: C_4  and  O_10 
REMARK    5  A    between atoms: C_5  and  O_9 
REMARK    6  A    between atoms: C_6  and  O_8 
ROOT
HETATM    1  C   UNK N   1      20.874  19.967   2.716  0.00  0.00     0.180 A 
HETATM    2  C   UNK N   1      20.840  19.001   3.891  0.00  0.00     0.181 A 
HETATM    3  C   UNK N   1      20.600  17.503   3.693  0.00  0.00     0.183 A 
HETATM    4  C   UNK N   1      20.390  16.996   2.240  0.00  0.00     0.181 A 
HETATM    5  C   UNK N   1      20.425  17.973   1.068  0.00  0.00     0.180 A 
HETATM    6  C   UNK N   1      20.667  19.456   1.303  0.00  0.00     0.180 A 
ENDROOT
BRANCH   1   7
HETATM    7  O   UNK N   1      21.096  21.327   2.940  0.00  0.00    -0.390 OA
HETATM    8  H   UNK N   1      21.121  21.945   2.193  0.00  0.00     0.210 HD
ENDBRANCH   1   7
BRANCH   2   9
HETATM    9  O   UNK N   1      21.033  19.493   5.181  0.00  0.00    -0.390 OA
HETATM   10  H   UNK N   1      21.272  18.888   5.901  0.00  0.00     0.210 HD
ENDBRANCH   2   9
BRANCH   6  11
HETATM   11  O   UNK N   1      20.697  20.342   0.225  0.00  0.00    -0.390 OA
HETATM   12  H   UNK N   1      21.170  21.186   0.304  0.00  0.00     0.210 HD
ENDBRANCH   6  11
BRANCH   3  13
HETATM   13  O   UNK N   1      20.596  16.728   4.880  0.00  0.00    -0.385 OA
HETATM   14  C   UNK N   1      19.311  16.275   5.194  0.00  0.00     0.202 C 
ENDBRANCH   3  13
BRANCH   5  15
HETATM   15  O   UNK N   1      20.235  17.502  -0.230  0.00  0.00    -0.390 OA
HETATM   16  H   UNK N   1      20.378  18.092  -0.987  0.00  0.00     0.210 HD
ENDBRANCH   5  15
BRANCH   4  17
HETATM   17  O   UNK N   1      20.164  15.647   1.955  0.00  0.00    -0.390 OA
HETATM   18  H   UNK N   1      19.425  15.179   2.376  0.00  0.00     0.210 HD
ENDBRANCH   4  17
TORSDOF 6
ENDMDL
MODEL 6
REMARK VINA RESULT:      -5.0      8.363     10.801
REMARK  6 active torsions:
REMARK  status: ('A' for Active; 'I' for Inactive)
REMARK    1  A    between atoms: C_1  and  O_7 
REMARK    2  A    between atoms: C_2  and  O_12 
REMARK    3  A    between atoms: C_3  and  O_11 
REMARK    4  A    between atoms: C_4  and  O_10 
REMARK    5  A    between atoms: C_5  and  O_9 
REMARK    6  A    between atoms: C_6  and  O_8 
ROOT
HETATM    1  C   UNK N   1      22.688  11.958  11.785  0.00  0.00     0.180 A 
HETATM    2  C   UNK N   1      21.378  12.392  11.141  0.00  0.00     0.181 A 
HETATM    3  C   UNK N   1      21.349  13.143   9.808  0.00  0.00     0.183 A 
HETATM    4  C   UNK N   1      22.711  13.450   9.127  0.00  0.00     0.181 A 
HETATM    5  C   UNK N   1      24.018  13.010   9.781  0.00  0.00     0.180 A 
HETATM    6  C   UNK N   1      24.009  12.266  11.107  0.00  0.00     0.180 A 
ENDROOT
BRANCH   1   7
HETATM    7  O   UNK N   1      22.670  11.275  13.002  0.00  0.00    -0.390 OA
HETATM    8  H   UNK N   1      23.233  10.496  13.130  0.00  0.00     0.210 HD
ENDBRANCH   1   7
BRANCH   2   9
HETATM    9  O   UNK N   1      20.176  12.099  11.782  0.00  0.00    -0.390 OA
HETATM   10  H   UNK N   1      19.335  12.390  11.394  0.00  0.00     0.210 HD
ENDBRANCH   2   9
BRANCH   6  11
HETATM   11  O   UNK N   1      25.210  11.867  11.697  0.00  0.00    -0.390 OA
HETATM   12  H   UNK N   1      25.346  11.992  12.650  0.00  0.00     0.210 HD
ENDBRANCH   6  11
BRANCH   3  13
HETATM   13  O   UNK N   1      20.058  13.482   9.332  0.00  0.00    -0.385 OA
HETATM   14  C   UNK N   1      19.825  14.858   9.412  0.00  0.00     0.202 C 
ENDBRANCH   3  13
BRANCH   5  15
HETATM   15  O   UNK N   1      25.232  13.294   9.157  0.00  0.00    -0.390 OA
HETATM   16  H   UNK N   1      26.045  13.361   9.683  0.00  0.00     0.210 HD
ENDBRANCH   5  15
BRANCH   4  17
HETATM   17  O   UNK N   1      22.790  14.130   7.910  0.00  0.00    -0.390 OA
HETATM   18  H   UNK N   1      22.626  13.657   7.078  0.00  0.00     0.210 HD
ENDBRANCH   4  17
TORSDOF 6
ENDMDL
MODEL 7
REMARK VINA RESULT:      -5.0      8.329     10.618
REMARK  6 active torsions:
REMARK  status: ('A' for Active; 'I' for Inactive)
REMARK    1  A    between atoms: C_1  and  O_7 
REMARK    2  A    between atoms: C_2  and  O_12 
REMARK    3  A    between atoms: C_3  and  O_11 
REMARK    4  A    between atoms: C_4  and  O_10 
REMARK    5  A    between atoms: C_5  and  O_9 
REMARK    6  A    between atoms: C_6  and  O_8 
ROOT
HETATM    1  C   UNK N   1      21.325  12.306  11.254  0.00  0.00     0.180 A 
HETATM    2  C   UNK N   1      21.265  13.097   9.955  0.00  0.00     0.181 A 
HETATM    3  C   UNK N   1      22.534  13.501   9.202  0.00  0.00     0.183 A 
HETATM    4  C   UNK N   1      23.898  13.074   9.812  0.00  0.00     0.181 A 
HETATM    5  C   UNK N   1      23.946  12.281  11.115  0.00  0.00     0.180 A 
HETATM    6  C   UNK N   1      22.665  11.897  11.836  0.00  0.00     0.180 A 
ENDROOT
BRANCH   1   7
HETATM    7  O   UNK N   1      20.143  11.957  11.910  0.00  0.00    -0.390 OA
HETATM    8  H   UNK N   1      19.316  12.418  11.699  0.00  0.00     0.210 HD
ENDBRANCH   1   7
BRANCH   2   9
HETATM    9  O   UNK N   1      20.024  13.462   9.438  0.00  0.00    -0.390 OA
HETATM   10  H   UNK N   1      19.453  12.794   9.026  0.00  0.00     0.210 HD
ENDBRANCH   2   9
BRANCH   6  11
HETATM   11  O   UNK N   1      22.719  11.171  13.028  0.00  0.00    -0.390 OA
HETATM   12  H   UNK N   1      22.245  10.327  13.104  0.00  0.00     0.210 HD
ENDBRANCH   6  11
BRANCH   3  13
HETATM   13  O   UNK N   1      22.323  14.235   8.008  0.00  0.00    -0.385 OA
HETATM   14  C   UNK N   1      22.454  13.425   6.876  0.00  0.00     0.202 C 
ENDBRANCH   3  13
BRANCH   5  15
HETATM   15  O   UNK N   1      25.179  11.906  11.649  0.00  0.00    -0.390 OA
HETATM   16  H   UNK N   1      25.921  12.531  11.644  0.00  0.00     0.210 HD
ENDBRANCH   5  15
BRANCH   4  17
HETATM   17  O   UNK N   1      25.112  13.395   9.200  0.00  0.00    -0.390 OA
HETATM   18  H   UNK N   1      25.558  12.744   8.635  0.00  0.00     0.210 HD
ENDBRANCH   4  17
TORSDOF 6
ENDMDL
MODEL 8
REMARK VINA RESULT:      -5.0      8.335     10.628
REMARK  6 active torsions:
REMARK  status: ('A' for Active; 'I' for Inactive)
REMARK    1  A    between atoms: C_1  and  O_7 
REMARK    2  A    between atoms: C_2  and  O_12 
REMARK    3  A    between atoms: C_3  and  O_11 
REMARK    4  A    between atoms: C_4  and  O_10 
REMARK    5  A    between atoms: C_5  and  O_9 
REMARK    6  A    between atoms: C_6  and  O_8 
ROOT
HETATM    1  C   UNK N   1      23.975  12.266  11.108  0.00  0.00     0.180 A 
HETATM    2  C   UNK N   1      23.922  13.049   9.804  0.00  0.00     0.181 A 
HETATM    3  C   UNK N   1      22.594  13.484   9.182  0.00  0.00     0.183 A 
HETATM    4  C   UNK N   1      21.289  13.098   9.933  0.00  0.00     0.181 A 
HETATM    5  C   UNK N   1      21.354  12.313  11.240  0.00  0.00     0.180 A 
HETATM    6  C   UNK N   1      22.692  11.897  11.829  0.00  0.00     0.180 A 
ENDROOT
BRANCH   1   7
HETATM    7  O   UNK N   1      25.209  11.888  11.642  0.00  0.00    -0.390 OA
HETATM    8  H   UNK N   1      25.807  12.559  12.006  0.00  0.00     0.210 HD
ENDBRANCH   1   7
BRANCH   2   9
HETATM    9  O   UNK N   1      25.113  13.377   9.159  0.00  0.00    -0.390 OA
HETATM   10  H   UNK N   1      25.921  12.871   9.344  0.00  0.00     0.210 HD
ENDBRANCH   2   9
BRANCH   6  11
HETATM   11  O   UNK N   1      22.741  11.179  13.025  0.00  0.00    -0.390 OA
HETATM   12  H   UNK N   1      23.569  11.135  13.530  0.00  0.00     0.210 HD
ENDBRANCH   6  11
BRANCH   3  13
HETATM   13  O   UNK N   1      22.701  14.206   7.967  0.00  0.00    -0.385 OA
HETATM   14  C   UNK N   1      22.433  13.393   6.861  0.00  0.00     0.202 C 
ENDBRANCH   3  13
BRANCH   5  15
HETATM   15  O   UNK N   1      20.173  11.975  11.901  0.00  0.00    -0.390 OA
HETATM   16  H   UNK N   1      20.191  11.761  12.847  0.00  0.00     0.210 HD
ENDBRANCH   5  15
BRANCH   4  17
HETATM   17  O   UNK N   1      20.028  13.449   9.447  0.00  0.00    -0.390 OA
HETATM   18  H   UNK N   1      19.771  14.384   9.392  0.00  0.00     0.210 HD
ENDBRANCH   4  17
TORSDOF 6
ENDMDL
MODEL 9
REMARK VINA RESULT:      -4.9     14.021     15.048
REMARK  6 active torsions:
REMARK  status: ('A' for Active; 'I' for Inactive)
REMARK    1  A    between atoms: C_1  and  O_7 
REMARK    2  A    between atoms: C_2  and  O_12 
REMARK    3  A    between atoms: C_3  and  O_11 
REMARK    4  A    between atoms: C_4  and  O_10 
REMARK    5  A    between atoms: C_5  and  O_9 
REMARK    6  A    between atoms: C_6  and  O_8 
ROOT
HETATM    1  C   UNK N   1      34.470  16.865   9.758  0.00  0.00     0.180 A 
HETATM    2  C   UNK N   1      33.730  15.535   9.740  0.00  0.00     0.181 A 
HETATM    3  C   UNK N   1      33.103  14.982   8.459  0.00  0.00     0.183 A 
HETATM    4  C   UNK N   1      33.247  15.831   7.165  0.00  0.00     0.181 A 
HETATM    5  C   UNK N   1      33.991  17.163   7.194  0.00  0.00     0.180 A 
HETATM    6  C   UNK N   1      34.602  17.681   8.486  0.00  0.00     0.180 A 
ENDROOT
BRANCH   1   7
HETATM    7  O   UNK N   1      35.028  17.334  10.949  0.00  0.00    -0.390 OA
HETATM    8  H   UNK N   1      34.835  16.884  11.786  0.00  0.00     0.210 HD
ENDBRANCH   1   7
BRANCH   2   9
HETATM    9  O   UNK N   1      33.621  14.802  10.921  0.00  0.00    -0.390 OA
HETATM   10  H   UNK N   1      33.064  15.128  11.645  0.00  0.00     0.210 HD
ENDBRANCH   2   9
BRANCH   6  11
HETATM   11  O   UNK N   1      35.281  18.901   8.503  0.00  0.00    -0.390 OA
HETATM   12  H   UNK N   1      36.188  18.956   8.161  0.00  0.00     0.210 HD
ENDBRANCH   6  11
BRANCH   3  13
HETATM   13  O   UNK N   1      32.447  13.734   8.595  0.00  0.00    -0.385 OA
HETATM   14  C   UNK N   1      33.266  12.675   8.191  0.00  0.00     0.202 C 
ENDBRANCH   3  13
BRANCH   5  15
HETATM   15  O   UNK N   1      34.112  17.912   6.024  0.00  0.00    -0.390 OA
HETATM   16  H   UNK N   1      34.958  18.332   5.801  0.00  0.00     0.210 HD
ENDBRANCH   5  15
BRANCH   4  17
HETATM   17  O   UNK N   1      32.710  15.412   5.946  0.00  0.00    -0.390 OA
HETATM   18  H   UNK N   1      33.147  14.711   5.438  0.00  0.00     0.210 HD
ENDBRANCH   4  17
TORSDOF 6
ENDMDL
