MODEL 1
REMARK VINA RESULT:      -6.3      0.000      0.000
REMARK  5 active torsions:
REMARK  status: ('A' for Active; 'I' for Inactive)
REMARK    1  A    between atoms: C_2  and  C_3 
REMARK    2  A    between atoms: C_3  and  N_4 
REMARK    3  A    between atoms: N_9  and  C_12 
REMARK    4  A    between atoms: C_12  and  C_13 
REMARK    5  A    between atoms: C_17  and  C_19 
ROOT
HETATM    1  N   UNK N   1      29.610  22.342  -5.709  0.00  0.00    -0.283 N 
HETATM    2  C   UNK N   1      28.820  23.170  -4.963  0.00  0.00     0.145 A 
HETATM    3  C   UNK N   1      29.028  23.377  -3.647  0.00  0.00     0.147 A 
HETATM    4  C   UNK N   1      30.076  22.771  -2.986  0.00  0.00     0.282 A 
HETATM    5  O   UNK N   1      30.256  22.984  -1.797  0.00  0.00    -0.265 OA
HETATM    6  N   UNK N   1      30.922  21.939  -3.700  0.00  0.00    -0.264 N 
HETATM    7  C   UNK N   1      30.680  21.719  -5.069  0.00  0.00     0.333 A 
HETATM    8  O   UNK N   1      31.405  20.980  -5.715  0.00  0.00    -0.246 OA
HETATM    9  N   UNK N   1      28.114  24.236  -3.167  0.00  0.00    -0.338 N 
ATOM     10  HN  UNK N   1      28.010  24.576  -2.211  1.00  0.00     0.167 HD
HETATM   11  C   UNK N   1      27.360  24.545  -4.254  0.00  0.00     0.087 A 
HETATM   12  N   UNK N   1      27.772  23.904  -5.377  0.00  0.00    -0.329 N 
HETATM   13  H   UNK N   1      27.393  23.963  -6.283  0.00  0.00     0.168 HD
ENDROOT
BRANCH  11  14
HETATM   14  C   UNK N   1      26.257  25.561  -4.250  0.00  0.00     0.053 C 
HETATM   15  C   UNK N   1      26.723  26.968  -3.984  0.00  0.00     0.012 C 
HETATM   16  C   UNK N   1      25.535  27.807  -4.408  0.00  0.00     0.001 C 
HETATM   17  C   UNK N   1      24.849  27.026  -5.522  0.00  0.00     0.001 C 
HETATM   18  C   UNK N   1      25.510  25.658  -5.562  0.00  0.00     0.012 C 
ENDBRANCH  11  14
BRANCH   1  19
HETATM   19  C   UNK N   1      29.410  22.071  -7.149  0.00  0.00     0.135 C 
BRANCH  19  20
HETATM   20  C   UNK N   1      28.306  21.088  -7.506  0.00  0.00     0.016 C 
HETATM   21  C   UNK N   1      28.922  19.767  -7.912  0.00  0.00     0.006 C 
ENDBRANCH  19  20
ENDBRANCH   1  19
BRANCH   6  22
HETATM   22  C   UNK N   1      32.049  21.336  -2.949  0.00  0.00     0.137 C 
BRANCH  22  23
HETATM   23  C   UNK N   1      33.455  21.596  -3.473  0.00  0.00     0.016 C 
HETATM   24  C   UNK N   1      34.168  20.279  -3.688  0.00  0.00     0.006 C 
ENDBRANCH  22  23
ENDBRANCH   6  22
TORSDOF 5
ENDMDL
MODEL 2
REMARK VINA RESULT:      -6.2     12.024     13.327
REMARK  5 active torsions:
REMARK  status: ('A' for Active; 'I' for Inactive)
REMARK    1  A    between atoms: C_2  and  C_3 
REMARK    2  A    between atoms: C_3  and  N_4 
REMARK    3  A    between atoms: N_9  and  C_12 
REMARK    4  A    between atoms: C_12  and  C_13 
REMARK    5  A    between atoms: C_17  and  C_19 
ROOT
HETATM    1  N   UNK N   1      22.330  19.448   3.749  0.00  0.00    -0.283 N 
HETATM    2  C   UNK N   1      22.243  18.420   4.645  0.00  0.00     0.145 A 
HETATM    3  C   UNK N   1      23.329  17.768   5.107  0.00  0.00     0.147 A 
HETATM    4  C   UNK N   1      24.600  18.127   4.708  0.00  0.00     0.282 A 
HETATM    5  O   UNK N   1      25.572  17.532   5.150  0.00  0.00    -0.265 OA
HETATM    6  N   UNK N   1      24.747  19.178   3.818  0.00  0.00    -0.264 N 
HETATM    7  C   UNK N   1      23.602  19.836   3.333  0.00  0.00     0.333 A 
HETATM    8  O   UNK N   1      23.708  20.757   2.539  0.00  0.00    -0.246 OA
HETATM    9  N   UNK N   1      22.957  16.812   5.974  0.00  0.00    -0.338 N 
ATOM     10  HN  UNK N   1      23.550  16.153   6.477  1.00  0.00     0.167 HD
HETATM   11  C   UNK N   1      21.604  16.930   6.022  0.00  0.00     0.087 A 
HETATM   12  N   UNK N   1      21.135  17.914   5.215  0.00  0.00    -0.329 N 
HETATM   13  H   UNK N   1      20.201  18.193   5.078  0.00  0.00     0.168 HD
ENDROOT
BRANCH  11  14
HETATM   14  C   UNK N   1      20.724  16.137   6.942  0.00  0.00     0.053 C 
HETATM   15  C   UNK N   1      21.472  15.167   7.818  0.00  0.00     0.012 C 
HETATM   16  C   UNK N   1      20.450  14.802   8.874  0.00  0.00     0.001 C 
HETATM   17  C   UNK N   1      19.560  16.028   9.034  0.00  0.00     0.001 C 
HETATM   18  C   UNK N   1      19.936  16.985   7.915  0.00  0.00     0.012 C 
ENDBRANCH  11  14
BRANCH   1  19
HETATM   19  C   UNK N   1      21.168  20.180   3.203  0.00  0.00     0.135 C 
BRANCH  19  20
HETATM   20  C   UNK N   1      20.552  19.619   1.930  0.00  0.00     0.016 C 
HETATM   21  C   UNK N   1      20.750  20.606   0.800  0.00  0.00     0.006 C 
ENDBRANCH  19  20
ENDBRANCH   1  19
BRANCH   6  22
HETATM   22  C   UNK N   1      26.135  19.542   3.445  0.00  0.00     0.137 C 
BRANCH  22  23
HETATM   23  C   UNK N   1      26.834  20.592   4.299  0.00  0.00     0.016 C 
HETATM   24  C   UNK N   1      28.105  20.009   4.880  0.00  0.00     0.006 C 
ENDBRANCH  22  23
ENDBRANCH   6  22
TORSDOF 5
ENDMDL
MODEL 3
REMARK VINA RESULT:      -6.2     11.748     14.962
REMARK  5 active torsions:
REMARK  status: ('A' for Active; 'I' for Inactive)
REMARK    1  A    between atoms: C_2  and  C_3 
REMARK    2  A    between atoms: C_3  and  N_4 
REMARK    3  A    between atoms: N_9  and  C_12 
REMARK    4  A    between atoms: C_12  and  C_13 
REMARK    5  A    between atoms: C_17  and  C_19 
ROOT
HETATM    1  N   UNK N   1      30.698  16.988   5.775  0.00  0.00    -0.283 N 
HETATM    2  C   UNK N   1      31.412  16.907   6.937  0.00  0.00     0.145 A 
HETATM    3  C   UNK N   1      30.985  17.462   8.090  0.00  0.00     0.147 A 
HETATM    4  C   UNK N   1      29.778  18.127   8.157  0.00  0.00     0.282 A 
HETATM    5  O   UNK N   1      29.403  18.610   9.215  0.00  0.00    -0.265 OA
HETATM    6  N   UNK N   1      29.003  18.220   7.013  0.00  0.00    -0.264 N 
HETATM    7  C   UNK N   1      29.473  17.651   5.814  0.00  0.00     0.333 A 
HETATM    8  O   UNK N   1      28.812  17.731   4.792  0.00  0.00    -0.246 OA
HETATM    9  N   UNK N   1      31.872  17.226   9.070  0.00  0.00    -0.338 N 
ATOM     10  HN  UNK N   1      31.829  17.526  10.044  1.00  0.00     0.167 HD
HETATM   11  C   UNK N   1      32.841  16.496   8.458  0.00  0.00     0.087 A 
HETATM   12  N   UNK N   1      32.584  16.282   7.144  0.00  0.00    -0.329 N 
HETATM   13  H   UNK N   1      33.129  15.783   6.492  0.00  0.00     0.168 HD
ENDROOT
BRANCH  11  14
HETATM   14  C   UNK N   1      34.017  15.896   9.171  0.00  0.00     0.053 C 
HETATM   15  C   UNK N   1      34.905  16.909   9.845  0.00  0.00     0.012 C 
HETATM   16  C   UNK N   1      35.746  16.060  10.775  0.00  0.00     0.001 C 
HETATM   17  C   UNK N   1      34.871  14.874  11.163  0.00  0.00     0.001 C 
HETATM   18  C   UNK N   1      33.637  14.939  10.278  0.00  0.00     0.012 C 
ENDBRANCH  11  14
BRANCH   1  19
HETATM   19  C   UNK N   1      31.134  16.412   4.486  0.00  0.00     0.135 C 
BRANCH  19  20
HETATM   20  C   UNK N   1      32.090  17.256   3.656  0.00  0.00     0.016 C 
HETATM   21  C   UNK N   1      33.163  16.366   3.067  0.00  0.00     0.006 C 
ENDBRANCH  19  20
ENDBRANCH   1  19
BRANCH   6  22
HETATM   22  C   UNK N   1      27.704  18.921   7.147  0.00  0.00     0.137 C 
BRANCH  22  23
HETATM   23  C   UNK N   1      27.647  20.375   6.695  0.00  0.00     0.016 C 
HETATM   24  C   UNK N   1      26.567  20.538   5.648  0.00  0.00     0.006 C 
ENDBRANCH  22  23
ENDBRANCH   6  22
TORSDOF 5
ENDMDL
MODEL 4
REMARK VINA RESULT:      -6.2     16.237     19.543
REMARK  5 active torsions:
REMARK  status: ('A' for Active; 'I' for Inactive)
REMARK    1  A    between atoms: C_2  and  C_3 
REMARK    2  A    between atoms: C_3  and  N_4 
REMARK    3  A    between atoms: N_9  and  C_12 
REMARK    4  A    between atoms: C_12  and  C_13 
REMARK    5  A    between atoms: C_17  and  C_19 
ROOT
HETATM    1  N   UNK N   1      34.460  13.756   9.653  0.00  0.00    -0.283 N 
HETATM    2  C   UNK N   1      35.090  14.134  10.804  0.00  0.00     0.145 A 
HETATM    3  C   UNK N   1      35.494  15.401  11.027  0.00  0.00     0.147 A 
HETATM    4  C   UNK N   1      35.266  16.396  10.098  0.00  0.00     0.282 A 
HETATM    5  O   UNK N   1      35.627  17.541  10.326  0.00  0.00    -0.265 OA
HETATM    6  N   UNK N   1      34.610  16.072   8.922  0.00  0.00    -0.264 N 
HETATM    7  C   UNK N   1      34.212  14.741   8.698  0.00  0.00     0.333 A 
HETATM    8  O   UNK N   1      33.644  14.431   7.664  0.00  0.00    -0.246 OA
HETATM    9  N   UNK N   1      36.076  15.493  12.234  0.00  0.00    -0.338 N 
ATOM     10  HN  UNK N   1      36.486  16.316  12.674  1.00  0.00     0.167 HD
HETATM   11  C   UNK N   1      35.991  14.231  12.729  0.00  0.00     0.087 A 
HETATM   12  N   UNK N   1      35.386  13.371  11.871  0.00  0.00    -0.329 N 
HETATM   13  H   UNK N   1      35.206  12.412  12.000  0.00  0.00     0.168 HD
ENDROOT
BRANCH  11  14
HETATM   14  C   UNK N   1      36.418  13.841  14.113  0.00  0.00     0.053 C 
HETATM   15  C   UNK N   1      36.861  15.000  14.965  0.00  0.00     0.012 C 
HETATM   16  C   UNK N   1      36.859  14.417  16.363  0.00  0.00     0.001 C 
HETATM   17  C   UNK N   1      35.771  13.350  16.368  0.00  0.00     0.001 C 
HETATM   18  C   UNK N   1      35.328  13.178  14.925  0.00  0.00     0.012 C 
ENDBRANCH  11  14
BRANCH   1  19
HETATM   19  C   UNK N   1      34.015  12.377   9.358  0.00  0.00     0.135 C 
BRANCH  19  20
HETATM   20  C   UNK N   1      35.080  11.418   8.847  0.00  0.00     0.016 C 
HETATM   21  C   UNK N   1      34.775  11.048   7.411  0.00  0.00     0.006 C 
ENDBRANCH  19  20
ENDBRANCH   1  19
BRANCH   6  22
HETATM   22  C   UNK N   1      34.366  17.183   7.971  0.00  0.00     0.137 C 
BRANCH  22  23
HETATM   23  C   UNK N   1      33.051  17.939   8.106  0.00  0.00     0.016 C 
HETATM   24  C   UNK N   1      32.055  17.406   7.100  0.00  0.00     0.006 C 
ENDBRANCH  22  23
ENDBRANCH   6  22
TORSDOF 5
ENDMDL
MODEL 5
REMARK VINA RESULT:      -6.1     12.846     16.237
REMARK  5 active torsions:
REMARK  status: ('A' for Active; 'I' for Inactive)
REMARK    1  A    between atoms: C_2  and  C_3 
REMARK    2  A    between atoms: C_3  and  N_4 
REMARK    3  A    between atoms: N_9  and  C_12 
REMARK    4  A    between atoms: C_12  and  C_13 
REMARK    5  A    between atoms: C_17  and  C_19 
ROOT
HETATM    1  N   UNK N   1      31.339  16.726   7.557  0.00  0.00    -0.283 N 
HETATM    2  C   UNK N   1      32.401  16.207   8.240  0.00  0.00     0.145 A 
HETATM    3  C   UNK N   1      33.621  16.064   7.684  0.00  0.00     0.147 A 
HETATM    4  C   UNK N   1      33.864  16.461   6.385  0.00  0.00     0.282 A 
HETATM    5  O   UNK N   1      34.980  16.337   5.905  0.00  0.00    -0.265 OA
HETATM    6  N   UNK N   1      32.826  17.015   5.653  0.00  0.00    -0.264 N 
HETATM    7  C   UNK N   1      31.555  17.140   6.244  0.00  0.00     0.333 A 
HETATM    8  O   UNK N   1      30.625  17.614   5.613  0.00  0.00    -0.246 OA
HETATM    9  N   UNK N   1      34.475  15.538   8.577  0.00  0.00    -0.338 N 
ATOM     10  HN  UNK N   1      35.460  15.306   8.446  1.00  0.00     0.167 HD
HETATM   11  C   UNK N   1      33.719  15.385   9.695  0.00  0.00     0.087 A 
HETATM   12  N   UNK N   1      32.436  15.791   9.519  0.00  0.00    -0.329 N 
HETATM   13  H   UNK N   1      31.702  15.783  10.175  0.00  0.00     0.168 HD
ENDROOT
BRANCH  11  14
HETATM   14  C   UNK N   1      34.256  14.920  11.016  0.00  0.00     0.053 C 
HETATM   15  C   UNK N   1      34.803  13.518  10.994  0.00  0.00     0.012 C 
HETATM   16  C   UNK N   1      35.602  13.443  12.279  0.00  0.00     0.001 C 
HETATM   17  C   UNK N   1      36.104  14.858  12.541  0.00  0.00     0.001 C 
HETATM   18  C   UNK N   1      35.401  15.759  11.539  0.00  0.00     0.012 C 
ENDBRANCH  11  14
BRANCH   1  19
HETATM   19  C   UNK N   1      29.981  16.886   8.119  0.00  0.00     0.135 C 
BRANCH  19  20
HETATM   20  C   UNK N   1      29.744  18.124   8.972  0.00  0.00     0.016 C 
HETATM   21  C   UNK N   1      28.255  18.351   9.122  0.00  0.00     0.006 C 
ENDBRANCH  19  20
ENDBRANCH   1  19
BRANCH   6  22
HETATM   22  C   UNK N   1      33.148  17.451   4.273  0.00  0.00     0.137 C 
BRANCH  22  23
HETATM   23  C   UNK N   1      32.592  16.611   3.130  0.00  0.00     0.016 C 
HETATM   24  C   UNK N   1      33.537  15.465   2.838  0.00  0.00     0.006 C 
ENDBRANCH  22  23
ENDBRANCH   6  22
TORSDOF 5
ENDMDL
MODEL 6
REMARK VINA RESULT:      -6.0     17.765     21.261
REMARK  5 active torsions:
REMARK  status: ('A' for Active; 'I' for Inactive)
REMARK    1  A    between atoms: C_2  and  C_3 
REMARK    2  A    between atoms: C_3  and  N_4 
REMARK    3  A    between atoms: N_9  and  C_12 
REMARK    4  A    between atoms: C_12  and  C_13 
REMARK    5  A    between atoms: C_17  and  C_19 
ROOT
HETATM    1  N   UNK N   1      37.446  13.527  10.658  0.00  0.00    -0.283 N 
HETATM    2  C   UNK N   1      36.869  13.462  11.894  0.00  0.00     0.145 A 
HETATM    3  C   UNK N   1      35.636  13.947  12.145  0.00  0.00     0.147 A 
HETATM    4  C   UNK N   1      34.879  14.521  11.145  0.00  0.00     0.282 A 
HETATM    5  O   UNK N   1      33.758  14.941  11.390  0.00  0.00    -0.265 OA
HETATM    6  N   UNK N   1      35.406  14.592   9.866  0.00  0.00    -0.264 N 
HETATM    7  C   UNK N   1      36.702  14.097   9.626  0.00  0.00     0.333 A 
HETATM    8  O   UNK N   1      37.191  14.160   8.510  0.00  0.00    -0.246 OA
HETATM    9  N   UNK N   1      35.317  13.747  13.434  0.00  0.00    -0.338 N 
ATOM     10  HN  UNK N   1      34.460  14.012  13.918  1.00  0.00     0.167 HD
HETATM   11  C   UNK N   1      36.404  13.109  13.940  0.00  0.00     0.087 A 
HETATM   12  N   UNK N   1      37.377  12.917  13.014  0.00  0.00    -0.329 N 
HETATM   13  H   UNK N   1      38.251  12.481  13.134  0.00  0.00     0.168 HD
ENDROOT
BRANCH  11  14
HETATM   14  C   UNK N   1      36.489  12.575  15.339  0.00  0.00     0.053 C 
HETATM   15  C   UNK N   1      35.279  12.875  16.182  0.00  0.00     0.012 C 
HETATM   16  C   UNK N   1      35.440  11.933  17.358  0.00  0.00     0.001 C 
HETATM   17  C   UNK N   1      36.179  10.715  16.818  0.00  0.00     0.001 C 
HETATM   18  C   UNK N   1      36.631  11.071  15.411  0.00  0.00     0.012 C 
ENDBRANCH  11  14
BRANCH   1  19
HETATM   19  C   UNK N   1      38.799  13.024  10.340  0.00  0.00     0.135 C 
BRANCH  19  20
HETATM   20  C   UNK N   1      38.880  11.622   9.753  0.00  0.00     0.016 C 
HETATM   21  C   UNK N   1      40.042  11.549   8.786  0.00  0.00     0.006 C 
ENDBRANCH  19  20
ENDBRANCH   1  19
BRANCH   6  22
HETATM   22  C   UNK N   1      34.540  15.192   8.824  0.00  0.00     0.137 C 
BRANCH  22  23
HETATM   23  C   UNK N   1      34.663  16.693   8.595  0.00  0.00     0.016 C 
HETATM   24  C   UNK N   1      33.284  17.318   8.583  0.00  0.00     0.006 C 
ENDBRANCH  22  23
ENDBRANCH   6  22
TORSDOF 5
ENDMDL
MODEL 7
REMARK VINA RESULT:      -6.0     14.984     16.729
REMARK  5 active torsions:
REMARK  status: ('A' for Active; 'I' for Inactive)
REMARK    1  A    between atoms: C_2  and  C_3 
REMARK    2  A    between atoms: C_3  and  N_4 
REMARK    3  A    between atoms: N_9  and  C_12 
REMARK    4  A    between atoms: C_12  and  C_13 
REMARK    5  A    between atoms: C_17  and  C_19 
ROOT
HETATM    1  N   UNK N   1      21.105  14.854   8.037  0.00  0.00    -0.283 N 
HETATM    2  C   UNK N   1      21.925  15.493   7.151  0.00  0.00     0.145 A 
HETATM    3  C   UNK N   1      21.776  16.796   6.836  0.00  0.00     0.147 A 
HETATM    4  C   UNK N   1      20.787  17.562   7.418  0.00  0.00     0.282 A 
HETATM    5  O   UNK N   1      20.678  18.744   7.129  0.00  0.00    -0.265 OA
HETATM    6  N   UNK N   1      19.941  16.969   8.340  0.00  0.00    -0.264 N 
HETATM    7  C   UNK N   1      20.100  15.604   8.644  0.00  0.00     0.333 A 
HETATM    8  O   UNK N   1      19.358  15.059   9.444  0.00  0.00    -0.246 OA
HETATM    9  N   UNK N   1      22.717  17.166   5.951  0.00  0.00    -0.338 N 
ATOM     10  HN  UNK N   1      22.853  18.081   5.522  1.00  0.00     0.167 HD
HETATM   11  C   UNK N   1      23.443  16.033   5.762  0.00  0.00     0.087 A 
HETATM   12  N   UNK N   1      22.981  14.986   6.490  0.00  0.00    -0.329 N 
HETATM   13  H   UNK N   1      23.335  14.069   6.525  0.00  0.00     0.168 HD
ENDROOT
BRANCH  11  14
HETATM   14  C   UNK N   1      24.686  15.963   4.925  0.00  0.00     0.053 C 
HETATM   15  C   UNK N   1      24.488  15.293   3.591  0.00  0.00     0.012 C 
HETATM   16  C   UNK N   1      25.731  15.689   2.822  0.00  0.00     0.001 C 
HETATM   17  C   UNK N   1      26.139  17.054   3.362  0.00  0.00     0.001 C 
HETATM   18  C   UNK N   1      25.268  17.316   4.580  0.00  0.00     0.012 C 
ENDBRANCH  11  14
BRANCH   1  19
HETATM   19  C   UNK N   1      21.220  13.426   8.400  0.00  0.00     0.135 C 
BRANCH  19  20
HETATM   20  C   UNK N   1      22.199  13.088   9.515  0.00  0.00     0.016 C 
HETATM   21  C   UNK N   1      21.448  12.459  10.669  0.00  0.00     0.006 C 
ENDBRANCH  19  20
ENDBRANCH   1  19
BRANCH   6  22
HETATM   22  C   UNK N   1      18.914  17.843   8.956  0.00  0.00     0.137 C 
BRANCH  22  23
HETATM   23  C   UNK N   1      19.395  18.880   9.963  0.00  0.00     0.016 C 
HETATM   24  C   UNK N   1      18.317  19.117  10.999  0.00  0.00     0.006 C 
ENDBRANCH  22  23
ENDBRANCH   6  22
TORSDOF 5
ENDMDL
MODEL 8
REMARK VINA RESULT:      -5.9      2.385      7.017
REMARK  5 active torsions:
REMARK  status: ('A' for Active; 'I' for Inactive)
REMARK    1  A    between atoms: C_2  and  C_3 
REMARK    2  A    between atoms: C_3  and  N_4 
REMARK    3  A    between atoms: N_9  and  C_12 
REMARK    4  A    between atoms: C_12  and  C_13 
REMARK    5  A    between atoms: C_17  and  C_19 
ROOT
HETATM    1  N   UNK N   1      28.576  23.557  -5.182  0.00  0.00    -0.283 N 
HETATM    2  C   UNK N   1      28.321  22.684  -6.201  0.00  0.00     0.145 A 
HETATM    3  C   UNK N   1      27.162  22.694  -6.891  0.00  0.00     0.147 A 
HETATM    4  C   UNK N   1      26.173  23.613  -6.610  0.00  0.00     0.282 A 
HETATM    5  O   UNK N   1      25.136  23.614  -7.257  0.00  0.00    -0.265 OA
HETATM    6  N   UNK N   1      26.388  24.536  -5.600  0.00  0.00    -0.264 N 
HETATM    7  C   UNK N   1      27.596  24.501  -4.879  0.00  0.00     0.333 A 
HETATM    8  O   UNK N   1      27.801  25.297  -3.978  0.00  0.00    -0.246 OA
HETATM    9  N   UNK N   1      27.182  21.739  -7.836  0.00  0.00    -0.338 N 
ATOM     10  HN  UNK N   1      26.449  21.499  -8.503  1.00  0.00     0.167 HD
HETATM   11  C   UNK N   1      28.406  21.168  -7.692  0.00  0.00     0.087 A 
HETATM   12  N   UNK N   1      29.132  21.731  -6.694  0.00  0.00    -0.329 N 
HETATM   13  H   UNK N   1      30.041  21.496  -6.398  0.00  0.00     0.168 HD
ENDROOT
BRANCH  11  14
HETATM   14  C   UNK N   1      28.948  20.104  -8.599  0.00  0.00     0.053 C 
HETATM   15  C   UNK N   1      30.204  20.504  -9.328  0.00  0.00     0.012 C 
HETATM   16  C   UNK N   1      30.736  19.182  -9.841  0.00  0.00     0.001 C 
HETATM   17  C   UNK N   1      30.291  18.132  -8.830  0.00  0.00     0.001 C 
HETATM   18  C   UNK N   1      29.324  18.825  -7.884  0.00  0.00     0.012 C 
ENDBRANCH  11  14
BRANCH   1  19
HETATM   19  C   UNK N   1      29.823  23.573  -4.389  0.00  0.00     0.135 C 
BRANCH  19  20
HETATM   20  C   UNK N   1      29.987  22.460  -3.364  0.00  0.00     0.016 C 
HETATM   21  C   UNK N   1      29.601  22.977  -1.995  0.00  0.00     0.006 C 
ENDBRANCH  19  20
ENDBRANCH   1  19
BRANCH   6  22
HETATM   22  C   UNK N   1      25.305  25.519  -5.359  0.00  0.00     0.137 C 
BRANCH  22  23
HETATM   23  C   UNK N   1      25.498  26.922  -5.921  0.00  0.00     0.016 C 
HETATM   24  C   UNK N   1      25.527  27.922  -4.786  0.00  0.00     0.006 C 
ENDBRANCH  22  23
ENDBRANCH   6  22
TORSDOF 5
ENDMDL
MODEL 9
REMARK VINA RESULT:      -5.9     18.349     21.528
REMARK  5 active torsions:
REMARK  status: ('A' for Active; 'I' for Inactive)
REMARK    1  A    between atoms: C_2  and  C_3 
REMARK    2  A    between atoms: C_3  and  N_4 
REMARK    3  A    between atoms: N_9  and  C_12 
REMARK    4  A    between atoms: C_12  and  C_13 
REMARK    5  A    between atoms: C_17  and  C_19 
ROOT
HETATM    1  N   UNK N   1      34.921  11.946  11.179  0.00  0.00    -0.283 N 
HETATM    2  C   UNK N   1      35.264  12.480  12.388  0.00  0.00     0.145 A 
HETATM    3  C   UNK N   1      35.414  13.807  12.577  0.00  0.00     0.147 A 
HETATM    4  C   UNK N   1      35.203  14.703  11.549  0.00  0.00     0.282 A 
HETATM    5  O   UNK N   1      35.329  15.902  11.746  0.00  0.00    -0.265 OA
HETATM    6  N   UNK N   1      34.831  14.216  10.307  0.00  0.00    -0.264 N 
HETATM    7  C   UNK N   1      34.697  12.827  10.123  0.00  0.00     0.333 A 
HETATM    8  O   UNK N   1      34.381  12.376   9.034  0.00  0.00    -0.246 OA
HETATM    9  N   UNK N   1      35.746  14.054  13.855  0.00  0.00    -0.338 N 
ATOM     10  HN  UNK N   1      35.933  14.955  14.294  1.00  0.00     0.167 HD
HETATM   11  C   UNK N   1      35.775  12.821  14.425  0.00  0.00     0.087 A 
HETATM   12  N   UNK N   1      35.480  11.831  13.546  0.00  0.00    -0.329 N 
HETATM   13  H   UNK N   1      35.434  10.862  13.716  0.00  0.00     0.168 HD
ENDROOT
BRANCH  11  14
HETATM   14  C   UNK N   1      36.001  12.577  15.887  0.00  0.00     0.053 C 
HETATM   15  C   UNK N   1      34.992  13.246  16.782  0.00  0.00     0.012 C 
HETATM   16  C   UNK N   1      35.200  12.550  18.111  0.00  0.00     0.001 C 
HETATM   17  C   UNK N   1      35.665  11.138  17.775  0.00  0.00     0.001 C 
HETATM   18  C   UNK N   1      35.938  11.117  16.280  0.00  0.00     0.012 C 
ENDBRANCH  11  14
BRANCH   1  19
HETATM   19  C   UNK N   1      34.762  10.499  10.920  0.00  0.00     0.135 C 
BRANCH  19  20
HETATM   20  C   UNK N   1      33.448   9.873  11.363  0.00  0.00     0.016 C 
HETATM   21  C   UNK N   1      32.689   9.386  10.147  0.00  0.00     0.006 C 
ENDBRANCH  19  20
ENDBRANCH   1  19
BRANCH   6  22
HETATM   22  C   UNK N   1      34.589  15.222   9.246  0.00  0.00     0.137 C 
BRANCH  22  23
HETATM   23  C   UNK N   1      33.161  15.722   9.072  0.00  0.00     0.016 C 
HETATM   24  C   UNK N   1      32.565  15.124   7.816  0.00  0.00     0.006 C 
ENDBRANCH  22  23
ENDBRANCH   6  22
TORSDOF 5
ENDMDL
