MODEL 1
REMARK VINA RESULT:      -7.4      0.000      0.000
REMARK  4 active torsions:
REMARK  status: ('A' for Active; 'I' for Inactive)
REMARK    1  A    between atoms: C_8  and  C_23 
REMARK    2  A    between atoms: C_8  and  O_27 
REMARK    3  A    between atoms: C_23  and  C_25 
REMARK    4  A    between atoms: C_25  and  O_26 
ROOT
HETATM    1  C   UNK N   1      27.924  17.926   9.180  0.00  0.00     0.015 C 
HETATM    2  C   UNK N   1      28.851  17.956   7.981  0.00  0.00     0.012 C 
HETATM    3  C   UNK N   1      29.250  16.528   7.623  0.00  0.00     0.014 C 
HETATM    4  C   UNK N   1      30.080  16.450   6.336  0.00  0.00     0.004 C 
HETATM    5  C   UNK N   1      31.532  16.928   6.512  0.00  0.00     0.002 C 
HETATM    6  C   UNK N   1      32.242  16.010   7.506  0.00  0.00     0.009 C 
HETATM    7  C   UNK N   1      33.071  15.023   6.681  0.00  0.00     0.047 C 
HETATM    8  C   UNK N   1      32.734  15.285   5.211  0.00  0.00     0.128 C 
HETATM    9  C   UNK N   1      32.364  16.788   5.211  0.00  0.00     0.005 C 
HETATM   10  C   UNK N   1      31.660  17.325   3.929  0.00  0.00     0.091 C 
HETATM   11  C   UNK N   1      30.187  17.051   3.927  0.00  0.00     0.133 C 
HETATM   12  O   UNK N   1      29.631  16.559   2.957  0.00  0.00    -0.297 OA
HETATM   13  C   UNK N   1      29.474  17.278   5.213  0.00  0.00     0.076 C 
HETATM   14  C   UNK N   1      28.139  18.009   5.429  0.00  0.00     0.008 C 
HETATM   15  C   UNK N   1      28.239  18.695   6.804  0.00  0.00    -0.059 C 
HETATM   16  C   UNK N   1      27.876  19.975   6.978  0.00  0.00     0.059 C 
HETATM   17  C   UNK N   1      27.364  20.773   5.859  0.00  0.00     0.172 C 
HETATM   18  O   UNK N   1      26.882  21.874   6.060  0.00  0.00    -0.289 OA
HETATM   19  C   UNK N   1      27.454  20.238   4.495  0.00  0.00     0.052 C 
HETATM   20  C   UNK N   1      27.826  18.967   4.291  0.00  0.00    -0.008 C 
HETATM   21  C   UNK N   1      27.024  16.979   5.458  0.00  0.00     0.025 C 
HETATM   22  C   UNK N   1      33.621  17.643   5.387  0.00  0.00     0.019 C 
ENDROOT
BRANCH   8  23
HETATM   23  C   UNK N   1      33.871  14.933   4.266  0.00  0.00     0.184 C 
HETATM   24  O   UNK N   1      34.937  14.554   4.724  0.00  0.00    -0.292 OA
BRANCH  23  25
HETATM   25  C   UNK N   1      33.716  15.016   2.775  0.00  0.00     0.245 C 
BRANCH  25  26
HETATM   26  O   UNK N   1      32.708  14.153   2.340  0.00  0.00    -0.393 OA
HETATM   27  H   UNK N   1      32.312  13.301   2.577  0.00  0.00     0.209 HD
ENDBRANCH  25  26
ENDBRANCH  23  25
ENDBRANCH   8  23
BRANCH   8  28
HETATM   28  O   UNK N   1      31.623  14.502   4.879  0.00  0.00    -0.381 OA
HETATM   29  H   UNK N   1      30.711  14.182   4.790  0.00  0.00     0.211 HD
ENDBRANCH   8  28
TORSDOF 4
ENDMDL
MODEL 2
REMARK VINA RESULT:      -6.9      7.403     11.222
REMARK  4 active torsions:
REMARK  status: ('A' for Active; 'I' for Inactive)
REMARK    1  A    between atoms: C_8  and  C_23 
REMARK    2  A    between atoms: C_8  and  O_27 
REMARK    3  A    between atoms: C_23  and  C_25 
REMARK    4  A    between atoms: C_25  and  O_26 
ROOT
HETATM    1  C   UNK N   1      34.681   8.161  10.980  0.00  0.00     0.015 C 
HETATM    2  C   UNK N   1      35.250   9.544  11.230  0.00  0.00     0.012 C 
HETATM    3  C   UNK N   1      34.134  10.575  11.086  0.00  0.00     0.014 C 
HETATM    4  C   UNK N   1      34.588  11.992  11.456  0.00  0.00     0.004 C 
HETATM    5  C   UNK N   1      35.481  12.649  10.389  0.00  0.00     0.002 C 
HETATM    6  C   UNK N   1      34.681  12.805   9.096  0.00  0.00     0.009 C 
HETATM    7  C   UNK N   1      34.206  14.259   9.044  0.00  0.00     0.047 C 
HETATM    8  C   UNK N   1      34.617  14.905  10.369  0.00  0.00     0.128 C 
HETATM    9  C   UNK N   1      35.880  14.100  10.761  0.00  0.00     0.005 C 
HETATM   10  C   UNK N   1      36.387  14.280  12.223  0.00  0.00     0.091 C 
HETATM   11  C   UNK N   1      35.642  13.419  13.197  0.00  0.00     0.133 C 
HETATM   12  O   UNK N   1      35.188  13.875  14.236  0.00  0.00    -0.297 OA
HETATM   13  C   UNK N   1      35.365  12.023  12.763  0.00  0.00     0.076 C 
HETATM   14  C   UNK N   1      35.551  10.733  13.579  0.00  0.00     0.008 C 
HETATM   15  C   UNK N   1      35.952   9.639  12.572  0.00  0.00    -0.059 C 
HETATM   16  C   UNK N   1      36.979   8.808  12.811  0.00  0.00     0.059 C 
HETATM   17  C   UNK N   1      37.759   8.908  14.049  0.00  0.00     0.172 C 
HETATM   18  O   UNK N   1      38.575   8.049  14.332  0.00  0.00    -0.289 OA
HETATM   19  C   UNK N   1      37.558  10.063  14.933  0.00  0.00     0.052 C 
HETATM   20  C   UNK N   1      36.548  10.916  14.711  0.00  0.00    -0.008 C 
HETATM   21  C   UNK N   1      34.222  10.369  14.217  0.00  0.00     0.025 C 
HETATM   22  C   UNK N   1      37.056  14.488   9.861  0.00  0.00     0.019 C 
ENDROOT
BRANCH   8  23
HETATM   23  C   UNK N   1      34.855  16.402  10.255  0.00  0.00     0.184 C 
HETATM   24  O   UNK N   1      35.248  17.023  11.230  0.00  0.00    -0.292 OA
BRANCH  23  25
HETATM   25  C   UNK N   1      34.642  17.142   8.966  0.00  0.00     0.245 C 
BRANCH  25  26
HETATM   26  O   UNK N   1      35.230  18.407   9.026  0.00  0.00    -0.393 OA
HETATM   27  H   UNK N   1      35.312  19.209   8.488  0.00  0.00     0.209 HD
ENDBRANCH  25  26
ENDBRANCH  23  25
ENDBRANCH   8  23
BRANCH   8  28
HETATM   28  O   UNK N   1      33.587  14.689  11.291  0.00  0.00    -0.381 OA
HETATM   29  H   UNK N   1      32.735  14.738  11.753  0.00  0.00     0.211 HD
ENDBRANCH   8  28
TORSDOF 4
ENDMDL
MODEL 3
REMARK VINA RESULT:      -6.8      2.964      4.944
REMARK  4 active torsions:
REMARK  status: ('A' for Active; 'I' for Inactive)
REMARK    1  A    between atoms: C_8  and  C_23 
REMARK    2  A    between atoms: C_8  and  O_27 
REMARK    3  A    between atoms: C_23  and  C_25 
REMARK    4  A    between atoms: C_25  and  O_26 
ROOT
HETATM    1  C   UNK N   1      30.141  14.838   2.916  0.00  0.00     0.015 C 
HETATM    2  C   UNK N   1      30.432  14.989   4.396  0.00  0.00     0.012 C 
HETATM    3  C   UNK N   1      31.645  15.898   4.576  0.00  0.00     0.014 C 
HETATM    4  C   UNK N   1      31.931  16.218   6.048  0.00  0.00     0.004 C 
HETATM    5  C   UNK N   1      32.558  15.045   6.821  0.00  0.00     0.002 C 
HETATM    6  C   UNK N   1      33.919  14.715   6.208  0.00  0.00     0.009 C 
HETATM    7  C   UNK N   1      34.975  15.368   7.100  0.00  0.00     0.047 C 
HETATM    8  C   UNK N   1      34.221  16.187   8.151  0.00  0.00     0.128 C 
HETATM    9  C   UNK N   1      32.888  15.411   8.291  0.00  0.00     0.005 C 
HETATM   10  C   UNK N   1      31.741  16.143   9.051  0.00  0.00     0.091 C 
HETATM   11  C   UNK N   1      30.992  17.100   8.174  0.00  0.00     0.133 C 
HETATM   12  O   UNK N   1      30.763  18.246   8.530  0.00  0.00    -0.297 OA
HETATM   13  C   UNK N   1      30.673  16.622   6.802  0.00  0.00     0.076 C 
HETATM   14  C   UNK N   1      29.332  16.736   6.057  0.00  0.00     0.008 C 
HETATM   15  C   UNK N   1      29.222  15.484   5.169  0.00  0.00    -0.059 C 
HETATM   16  C   UNK N   1      28.098  14.753   5.122  0.00  0.00     0.059 C 
HETATM   17  C   UNK N   1      26.923  15.124   5.917  0.00  0.00     0.172 C 
HETATM   18  O   UNK N   1      25.859  14.557   5.742  0.00  0.00    -0.289 OA
HETATM   19  C   UNK N   1      27.048  16.173   6.937  0.00  0.00     0.052 C 
HETATM   20  C   UNK N   1      28.164  16.910   7.014  0.00  0.00    -0.008 C 
HETATM   21  C   UNK N   1      29.372  17.976   5.181  0.00  0.00     0.025 C 
HETATM   22  C   UNK N   1      33.116  14.098   9.042  0.00  0.00     0.019 C 
ENDROOT
BRANCH   8  23
HETATM   23  C   UNK N   1      34.985  16.333   9.456  0.00  0.00     0.184 C 
HETATM   24  O   UNK N   1      34.746  17.280  10.189  0.00  0.00    -0.292 OA
BRANCH  23  25
HETATM   25  C   UNK N   1      36.016  15.330   9.887  0.00  0.00     0.245 C 
BRANCH  25  26
HETATM   26  O   UNK N   1      36.947  15.923  10.742  0.00  0.00    -0.393 OA
HETATM   27  H   UNK N   1      37.515  15.690  11.492  0.00  0.00     0.209 HD
ENDBRANCH  25  26
ENDBRANCH  23  25
ENDBRANCH   8  23
BRANCH   8  28
HETATM   28  O   UNK N   1      33.998  17.463   7.622  0.00  0.00    -0.381 OA
HETATM   29  H   UNK N   1      33.723  18.389   7.527  0.00  0.00     0.211 HD
ENDBRANCH   8  28
TORSDOF 4
ENDMDL
MODEL 4
REMARK VINA RESULT:      -6.7     13.888     16.415
REMARK  4 active torsions:
REMARK  status: ('A' for Active; 'I' for Inactive)
REMARK    1  A    between atoms: C_8  and  C_23 
REMARK    2  A    between atoms: C_8  and  O_27 
REMARK    3  A    between atoms: C_23  and  C_25 
REMARK    4  A    between atoms: C_25  and  O_26 
ROOT
HETATM    1  C   UNK N   1      28.012  25.626 -11.023  0.00  0.00     0.015 C 
HETATM    2  C   UNK N   1      27.965  25.511  -9.512  0.00  0.00     0.012 C 
HETATM    3  C   UNK N   1      26.940  26.502  -8.968  0.00  0.00     0.014 C 
HETATM    4  C   UNK N   1      26.726  26.361  -7.456  0.00  0.00     0.004 C 
HETATM    5  C   UNK N   1      27.883  26.929  -6.616  0.00  0.00     0.002 C 
HETATM    6  C   UNK N   1      27.992  28.433  -6.870  0.00  0.00     0.009 C 
HETATM    7  C   UNK N   1      27.304  29.130  -5.695  0.00  0.00     0.047 C 
HETATM    8  C   UNK N   1      26.681  28.029  -4.832  0.00  0.00     0.128 C 
HETATM    9  C   UNK N   1      27.617  26.824  -5.092  0.00  0.00     0.005 C 
HETATM   10  C   UNK N   1      27.100  25.433  -4.617  0.00  0.00     0.091 C 
HETATM   11  C   UNK N   1      26.161  24.805  -5.602  0.00  0.00     0.133 C 
HETATM   12  O   UNK N   1      25.088  24.338  -5.252  0.00  0.00    -0.297 OA
HETATM   13  C   UNK N   1      26.545  24.911  -7.036  0.00  0.00     0.076 C 
HETATM   14  C   UNK N   1      26.521  23.798  -8.097  0.00  0.00     0.008 C 
HETATM   15  C   UNK N   1      27.690  24.090  -9.056  0.00  0.00    -0.059 C 
HETATM   16  C   UNK N   1      28.541  23.125  -9.437  0.00  0.00     0.059 C 
HETATM   17  C   UNK N   1      28.386  21.748  -8.958  0.00  0.00     0.172 C 
HETATM   18  O   UNK N   1      29.056  20.851  -9.438  0.00  0.00    -0.289 OA
HETATM   19  C   UNK N   1      27.428  21.466  -7.881  0.00  0.00     0.052 C 
HETATM   20  C   UNK N   1      26.575  22.414  -7.471  0.00  0.00    -0.008 C 
HETATM   21  C   UNK N   1      25.210  23.886  -8.858  0.00  0.00     0.025 C 
HETATM   22  C   UNK N   1      28.959  27.034  -4.386  0.00  0.00     0.019 C 
ENDROOT
BRANCH   8  23
HETATM   23  C   UNK N   1      26.566  28.412  -3.366  0.00  0.00     0.184 C 
HETATM   24  O   UNK N   1      25.885  27.729  -2.619  0.00  0.00    -0.292 OA
BRANCH  23  25
HETATM   25  C   UNK N   1      27.289  29.600  -2.799  0.00  0.00     0.245 C 
BRANCH  25  26
HETATM   26  O   UNK N   1      27.674  29.353  -1.480  0.00  0.00    -0.393 OA
HETATM   27  H   UNK N   1      28.075  29.816  -0.729  0.00  0.00     0.209 HD
ENDBRANCH  25  26
ENDBRANCH  23  25
ENDBRANCH   8  23
BRANCH   8  28
HETATM   28  O   UNK N   1      25.396  27.773  -5.325  0.00  0.00    -0.381 OA
HETATM   29  H   UNK N   1      24.436  27.803  -5.462  0.00  0.00     0.211 HD
ENDBRANCH   8  28
TORSDOF 4
ENDMDL
MODEL 5
REMARK VINA RESULT:      -6.7      4.984      8.792
REMARK  4 active torsions:
REMARK  status: ('A' for Active; 'I' for Inactive)
REMARK    1  A    between atoms: C_8  and  C_23 
REMARK    2  A    between atoms: C_8  and  O_27 
REMARK    3  A    between atoms: C_23  and  C_25 
REMARK    4  A    between atoms: C_25  and  O_26 
ROOT
HETATM    1  C   UNK N   1      26.833  20.499   3.624  0.00  0.00     0.015 C 
HETATM    2  C   UNK N   1      25.917  19.567   4.394  0.00  0.00     0.012 C 
HETATM    3  C   UNK N   1      25.046  18.797   3.407  0.00  0.00     0.014 C 
HETATM    4  C   UNK N   1      24.181  17.730   4.089  0.00  0.00     0.004 C 
HETATM    5  C   UNK N   1      22.983  18.312   4.860  0.00  0.00     0.002 C 
HETATM    6  C   UNK N   1      22.051  19.018   3.875  0.00  0.00     0.009 C 
HETATM    7  C   UNK N   1      20.903  18.050   3.583  0.00  0.00     0.047 C 
HETATM    8  C   UNK N   1      21.242  16.736   4.292  0.00  0.00     0.128 C 
HETATM    9  C   UNK N   1      22.094  17.210   5.494  0.00  0.00     0.005 C 
HETATM   10  C   UNK N   1      22.879  16.105   6.262  0.00  0.00     0.091 C 
HETATM   11  C   UNK N   1      24.173  15.752   5.594  0.00  0.00     0.133 C 
HETATM   12  O   UNK N   1      24.488  14.590   5.385  0.00  0.00    -0.297 OA
HETATM   13  C   UNK N   1      24.978  16.891   5.076  0.00  0.00     0.076 C 
HETATM   14  C   UNK N   1      26.489  17.122   5.239  0.00  0.00     0.008 C 
HETATM   15  C   UNK N   1      26.688  18.647   5.323  0.00  0.00    -0.059 C 
HETATM   16  C   UNK N   1      27.466  19.202   6.264  0.00  0.00     0.059 C 
HETATM   17  C   UNK N   1      28.166  18.373   7.251  0.00  0.00     0.172 C 
HETATM   18  O   UNK N   1      28.998  18.868   7.990  0.00  0.00    -0.289 OA
HETATM   19  C   UNK N   1      27.840  16.944   7.349  0.00  0.00     0.052 C 
HETATM   20  C   UNK N   1      27.054  16.366   6.430  0.00  0.00    -0.008 C 
HETATM   21  C   UNK N   1      27.194  16.588   4.004  0.00  0.00     0.025 C 
HETATM   22  C   UNK N   1      21.207  17.893   6.536  0.00  0.00     0.019 C 
ENDROOT
BRANCH   8  23
HETATM   23  C   UNK N   1      20.012  15.938   4.690  0.00  0.00     0.184 C 
HETATM   24  O   UNK N   1      18.910  16.461   4.625  0.00  0.00    -0.292 OA
BRANCH  23  25
HETATM   25  C   UNK N   1      20.106  14.509   5.141  0.00  0.00     0.245 C 
BRANCH  25  26
HETATM   26  O   UNK N   1      19.792  14.403   6.497  0.00  0.00    -0.393 OA
HETATM   27  H   UNK N   1      19.821  14.936   7.306  0.00  0.00     0.209 HD
ENDBRANCH  25  26
ENDBRANCH  23  25
ENDBRANCH   8  23
BRANCH   8  28
HETATM   28  O   UNK N   1      22.009  15.961   3.416  0.00  0.00    -0.381 OA
HETATM   29  H   UNK N   1      22.283  15.421   2.657  0.00  0.00     0.211 HD
ENDBRANCH   8  28
TORSDOF 4
ENDMDL
MODEL 6
REMARK VINA RESULT:      -6.6      3.598      5.770
REMARK  4 active torsions:
REMARK  status: ('A' for Active; 'I' for Inactive)
REMARK    1  A    between atoms: C_8  and  C_23 
REMARK    2  A    between atoms: C_8  and  O_27 
REMARK    3  A    between atoms: C_23  and  C_25 
REMARK    4  A    between atoms: C_25  and  O_26 
ROOT
HETATM    1  C   UNK N   1      32.016  11.745   3.654  0.00  0.00     0.015 C 
HETATM    2  C   UNK N   1      32.033  12.982   4.530  0.00  0.00     0.012 C 
HETATM    3  C   UNK N   1      33.452  13.211   5.041  0.00  0.00     0.014 C 
HETATM    4  C   UNK N   1      33.593  14.520   5.828  0.00  0.00     0.004 C 
HETATM    5  C   UNK N   1      32.979  14.459   7.237  0.00  0.00     0.002 C 
HETATM    6  C   UNK N   1      33.725  13.410   8.061  0.00  0.00     0.009 C 
HETATM    7  C   UNK N   1      34.719  14.168   8.944  0.00  0.00     0.047 C 
HETATM    8  C   UNK N   1      34.642  15.640   8.532  0.00  0.00     0.128 C 
HETATM    9  C   UNK N   1      33.184  15.775   8.031  0.00  0.00     0.005 C 
HETATM   10  C   UNK N   1      32.845  17.072   7.236  0.00  0.00     0.091 C 
HETATM   11  C   UNK N   1      33.240  16.980   5.794  0.00  0.00     0.133 C 
HETATM   12  O   UNK N   1      33.876  17.869   5.248  0.00  0.00    -0.297 OA
HETATM   13  C   UNK N   1      32.941  15.692   5.111  0.00  0.00     0.076 C 
HETATM   14  C   UNK N   1      32.307  15.491   3.725  0.00  0.00     0.008 C 
HETATM   15  C   UNK N   1      31.475  14.198   3.813  0.00  0.00    -0.059 C 
HETATM   16  C   UNK N   1      30.219  14.138   3.345  0.00  0.00     0.059 C 
HETATM   17  C   UNK N   1      29.588  15.307   2.724  0.00  0.00     0.172 C 
HETATM   18  O   UNK N   1      28.517  15.197   2.155  0.00  0.00    -0.289 OA
HETATM   19  C   UNK N   1      30.253  16.614   2.812  0.00  0.00     0.052 C 
HETATM   20  C   UNK N   1      31.503  16.704   3.287  0.00  0.00    -0.008 C 
HETATM   21  C   UNK N   1      33.418  15.308   2.707  0.00  0.00     0.025 C 
HETATM   22  C   UNK N   1      32.212  15.744   9.213  0.00  0.00     0.019 C 
ENDROOT
BRANCH   8  23
HETATM   23  C   UNK N   1      34.994  16.595   9.660  0.00  0.00     0.184 C 
HETATM   24  O   UNK N   1      34.834  17.795   9.503  0.00  0.00    -0.292 OA
BRANCH  23  25
HETATM   25  C   UNK N   1      35.513  16.104  10.981  0.00  0.00     0.245 C 
BRANCH  25  26
HETATM   26  O   UNK N   1      36.909  16.078  10.978  0.00  0.00    -0.393 OA
HETATM   27  H   UNK N   1      37.658  16.633  11.244  0.00  0.00     0.209 HD
ENDBRANCH  25  26
ENDBRANCH  23  25
ENDBRANCH   8  23
BRANCH   8  28
HETATM   28  O   UNK N   1      35.547  15.841   7.483  0.00  0.00    -0.381 OA
HETATM   29  H   UNK N   1      36.063  15.715   6.671  0.00  0.00     0.211 HD
ENDBRANCH   8  28
TORSDOF 4
ENDMDL
MODEL 7
REMARK VINA RESULT:      -6.5     15.339     18.015
REMARK  4 active torsions:
REMARK  status: ('A' for Active; 'I' for Inactive)
REMARK    1  A    between atoms: C_8  and  C_23 
REMARK    2  A    between atoms: C_8  and  O_27 
REMARK    3  A    between atoms: C_23  and  C_25 
REMARK    4  A    between atoms: C_25  and  O_26 
ROOT
HETATM    1  C   UNK N   1      36.207   8.654  16.177  0.00  0.00     0.015 C 
HETATM    2  C   UNK N   1      35.234   8.871  17.319  0.00  0.00     0.012 C 
HETATM    3  C   UNK N   1      35.439   7.778  18.363  0.00  0.00     0.014 C 
HETATM    4  C   UNK N   1      34.589   7.994  19.621  0.00  0.00     0.004 C 
HETATM    5  C   UNK N   1      33.099   7.672  19.418  0.00  0.00     0.002 C 
HETATM    6  C   UNK N   1      32.950   6.189  19.081  0.00  0.00     0.009 C 
HETATM    7  C   UNK N   1      32.533   5.483  20.373  0.00  0.00     0.047 C 
HETATM    8  C   UNK N   1      32.572   6.535  21.484  0.00  0.00     0.128 C 
HETATM    9  C   UNK N   1      32.271   7.846  20.718  0.00  0.00     0.005 C 
HETATM   10  C   UNK N   1      32.544   9.173  21.489  0.00  0.00     0.091 C 
HETATM   11  C   UNK N   1      33.986   9.577  21.440  0.00  0.00     0.133 C 
HETATM   12  O   UNK N   1      34.593   9.900  22.450  0.00  0.00    -0.297 OA
HETATM   13  C   UNK N   1      34.668   9.427  20.126  0.00  0.00     0.076 C 
HETATM   14  C   UNK N   1      35.584  10.442  19.424  0.00  0.00     0.008 C 
HETATM   15  C   UNK N   1      35.350  10.263  17.912  0.00  0.00    -0.059 C 
HETATM   16  C   UNK N   1      35.155  11.316  17.103  0.00  0.00     0.059 C 
HETATM   17  C   UNK N   1      35.163  12.685  17.630  0.00  0.00     0.172 C 
HETATM   18  O   UNK N   1      35.153  13.636  16.869  0.00  0.00    -0.289 OA
HETATM   19  C   UNK N   1      35.163  12.895  19.083  0.00  0.00     0.052 C 
HETATM   20  C   UNK N   1      35.343  11.860  19.915  0.00  0.00    -0.008 C 
HETATM   21  C   UNK N   1      37.026  10.100  19.755  0.00  0.00     0.025 C 
HETATM   22  C   UNK N   1      30.797   7.896  20.311  0.00  0.00     0.019 C 
ENDROOT
BRANCH   8  23
HETATM   23  C   UNK N   1      31.598   6.247  22.613  0.00  0.00     0.184 C 
HETATM   24  O   UNK N   1      30.806   5.324  22.503  0.00  0.00    -0.292 OA
BRANCH  23  25
HETATM   25  C   UNK N   1      31.592   7.054  23.880  0.00  0.00     0.245 C 
BRANCH  25  26
HETATM   26  O   UNK N   1      32.828   6.961  24.523  0.00  0.00    -0.393 OA
HETATM   27  H   UNK N   1      33.484   6.291  24.770  0.00  0.00     0.209 HD
ENDBRANCH  25  26
ENDBRANCH  23  25
ENDBRANCH   8  23
BRANCH   8  28
HETATM   28  O   UNK N   1      33.868   6.556  22.011  0.00  0.00    -0.381 OA
HETATM   29  H   UNK N   1      34.647   6.364  22.558  0.00  0.00     0.211 HD
ENDBRANCH   8  28
TORSDOF 4
ENDMDL
MODEL 8
REMARK VINA RESULT:      -6.4     11.125     14.394
REMARK  4 active torsions:
REMARK  status: ('A' for Active; 'I' for Inactive)
REMARK    1  A    between atoms: C_8  and  C_23 
REMARK    2  A    between atoms: C_8  and  O_27 
REMARK    3  A    between atoms: C_23  and  C_25 
REMARK    4  A    between atoms: C_25  and  O_26 
ROOT
HETATM    1  C   UNK N   1      29.641  20.886  -8.088  0.00  0.00     0.015 C 
HETATM    2  C   UNK N   1      29.648  22.125  -7.214  0.00  0.00     0.012 C 
HETATM    3  C   UNK N   1      28.400  22.122  -6.336  0.00  0.00     0.014 C 
HETATM    4  C   UNK N   1      28.389  23.271  -5.320  0.00  0.00     0.004 C 
HETATM    5  C   UNK N   1      28.080  24.641  -5.946  0.00  0.00     0.002 C 
HETATM    6  C   UNK N   1      26.670  24.613  -6.536  0.00  0.00     0.009 C 
HETATM    7  C   UNK N   1      25.752  25.297  -5.522  0.00  0.00     0.047 C 
HETATM    8  C   UNK N   1      26.606  25.599  -4.287  0.00  0.00     0.128 C 
HETATM    9  C   UNK N   1      28.021  25.776  -4.890  0.00  0.00     0.005 C 
HETATM   10  C   UNK N   1      29.205  25.783  -3.878  0.00  0.00     0.091 C 
HETATM   11  C   UNK N   1      29.637  24.402  -3.491  0.00  0.00     0.133 C 
HETATM   12  O   UNK N   1      29.798  24.086  -2.322  0.00  0.00    -0.297 OA
HETATM   13  C   UNK N   1      29.719  23.406  -4.594  0.00  0.00     0.076 C 
HETATM   14  C   UNK N   1      30.853  22.405  -4.871  0.00  0.00     0.008 C 
HETATM   15  C   UNK N   1      30.924  22.243  -6.401  0.00  0.00    -0.059 C 
HETATM   16  C   UNK N   1      32.093  22.292  -7.058  0.00  0.00     0.059 C 
HETATM   17  C   UNK N   1      33.355  22.497  -6.340  0.00  0.00     0.172 C 
HETATM   18  O   UNK N   1      34.419  22.373  -6.920  0.00  0.00    -0.289 OA
HETATM   19  C   UNK N   1      33.321  22.872  -4.920  0.00  0.00     0.052 C 
HETATM   20  C   UNK N   1      32.165  22.844  -4.242  0.00  0.00    -0.008 C 
HETATM   21  C   UNK N   1      30.486  21.073  -4.239  0.00  0.00     0.025 C 
HETATM   22  C   UNK N   1      28.111  27.102  -5.648  0.00  0.00     0.019 C 
ENDROOT
BRANCH   8  23
HETATM   23  C   UNK N   1      26.117  26.806  -3.504  0.00  0.00     0.184 C 
HETATM   24  O   UNK N   1      26.255  26.830  -2.292  0.00  0.00    -0.292 OA
BRANCH  23  25
HETATM   25  C   UNK N   1      25.487  27.988  -4.182  0.00  0.00     0.245 C 
BRANCH  25  26
HETATM   26  O   UNK N   1      25.783  29.164  -3.490  0.00  0.00    -0.393 OA
HETATM   27  H   UNK N   1      25.364  29.783  -2.873  0.00  0.00     0.209 HD
ENDBRANCH  25  26
ENDBRANCH  23  25
ENDBRANCH   8  23
BRANCH   8  28
HETATM   28  O   UNK N   1      26.561  24.479  -3.450  0.00  0.00    -0.381 OA
HETATM   29  H   UNK N   1      26.823  23.699  -2.934  0.00  0.00     0.211 HD
ENDBRANCH   8  28
TORSDOF 4
ENDMDL
MODEL 9
REMARK VINA RESULT:      -6.2     10.893     12.899
REMARK  4 active torsions:
REMARK  status: ('A' for Active; 'I' for Inactive)
REMARK    1  A    between atoms: C_8  and  C_23 
REMARK    2  A    between atoms: C_8  and  O_27 
REMARK    3  A    between atoms: C_23  and  C_25 
REMARK    4  A    between atoms: C_25  and  O_26 
ROOT
HETATM    1  C   UNK N   1      25.534  23.613  -5.964  0.00  0.00     0.015 C 
HETATM    2  C   UNK N   1      26.909  23.846  -5.369  0.00  0.00     0.012 C 
HETATM    3  C   UNK N   1      27.968  23.402  -6.373  0.00  0.00     0.014 C 
HETATM    4  C   UNK N   1      29.394  23.726  -5.912  0.00  0.00     0.004 C 
HETATM    5  C   UNK N   1      29.905  22.797  -4.797  0.00  0.00     0.002 C 
HETATM    6  C   UNK N   1      29.969  21.366  -5.331  0.00  0.00     0.009 C 
HETATM    7  C   UNK N   1      31.430  21.097  -5.698  0.00  0.00     0.047 C 
HETATM    8  C   UNK N   1      32.184  22.415  -5.503  0.00  0.00     0.128 C 
HETATM    9  C   UNK N   1      31.367  23.110  -4.387  0.00  0.00     0.005 C 
HETATM   10  C   UNK N   1      31.666  24.621  -4.153  0.00  0.00     0.091 C 
HETATM   11  C   UNK N   1      30.936  25.506  -5.117  0.00  0.00     0.133 C 
HETATM   12  O   UNK N   1      31.510  26.395  -5.728  0.00  0.00    -0.297 OA
HETATM   13  C   UNK N   1      29.518  25.150  -5.392  0.00  0.00     0.076 C 
HETATM   14  C   UNK N   1      28.306  26.096  -5.440  0.00  0.00     0.008 C 
HETATM   15  C   UNK N   1      27.103  25.284  -4.925  0.00  0.00    -0.059 C 
HETATM   16  C   UNK N   1      26.256  25.786  -4.014  0.00  0.00     0.059 C 
HETATM   17  C   UNK N   1      26.442  27.138  -3.474  0.00  0.00     0.172 C 
HETATM   18  O   UNK N   1      25.580  27.645  -2.779  0.00  0.00    -0.289 OA
HETATM   19  C   UNK N   1      27.685  27.863  -3.766  0.00  0.00     0.052 C 
HETATM   20  C   UNK N   1      28.555  27.378  -4.662  0.00  0.00    -0.008 C 
HETATM   21  C   UNK N   1      28.064  26.497  -6.884  0.00  0.00     0.025 C 
HETATM   22  C   UNK N   1      31.615  22.422  -3.043  0.00  0.00     0.019 C 
ENDROOT
BRANCH   8  23
HETATM   23  C   UNK N   1      33.650  22.219  -5.158  0.00  0.00     0.184 C 
HETATM   24  O   UNK N   1      34.396  23.185  -5.137  0.00  0.00    -0.292 OA
BRANCH  23  25
HETATM   25  C   UNK N   1      34.210  20.868  -4.818  0.00  0.00     0.245 C 
BRANCH  25  26
HETATM   26  O   UNK N   1      34.658  20.843  -3.496  0.00  0.00    -0.393 OA
HETATM   27  H   UNK N   1      35.356  21.230  -2.945  0.00  0.00     0.209 HD
ENDBRANCH  25  26
ENDBRANCH  23  25
ENDBRANCH   8  23
BRANCH   8  28
HETATM   28  O   UNK N   1      32.102  23.138  -6.699  0.00  0.00    -0.381 OA
HETATM   29  H   UNK N   1      31.779  23.712  -7.412  0.00  0.00     0.211 HD
ENDBRANCH   8  28
TORSDOF 4
ENDMDL
