MODEL 1
REMARK VINA RESULT:      -7.5      0.000      0.000
REMARK  9 active torsions:
REMARK  status: ('A' for Active; 'I' for Inactive)
REMARK    1  A    between atoms: C_3  and  O_26 
REMARK    2  A    between atoms: C_4  and  O_21 
REMARK    3  A    between atoms: C_6  and  C_7 
REMARK    4  A    between atoms: C_8  and  O_20 
REMARK    5  A    between atoms: C_12  and  O_19 
REMARK    6  A    between atoms: C_14  and  O_18 
REMARK    7  A    between atoms: O_21  and  P_22 
REMARK    8  A    between atoms: P_22  and  O_24 
REMARK    9  A    between atoms: P_22  and  O_25 
ROOT
HETATM    1  C   UNK N   1      22.420  17.050   5.725  0.00  0.00     0.123 A 
HETATM    2  C   UNK N   1      21.449  17.428   6.682  0.00  0.00     0.152 A 
HETATM    3  C   UNK N   1      20.916  16.448   7.534  0.00  0.00     0.223 A 
HETATM    4  O   UNK N   1      20.084  16.767   8.371  0.00  0.00    -0.284 OA
HETATM    5  C   UNK N   1      21.353  15.114   7.422  0.00  0.00     0.084 A 
HETATM    6  C   UNK N   1      20.878  14.065   8.251  0.00  0.00     0.085 A 
HETATM    7  C   UNK N   1      21.362  12.765   8.077  0.00  0.00     0.074 A 
HETATM    8  C   UNK N   1      22.312  12.487   7.092  0.00  0.00     0.071 A 
HETATM    9  C   UNK N   1      22.786  13.511   6.275  0.00  0.00     0.075 A 
HETATM   10  C   UNK N   1      22.317  14.816   6.432  0.00  0.00     0.096 A 
HETATM   11  O   UNK N   1      22.798  15.774   5.650  0.00  0.00    -0.306 OA
ENDROOT
BRANCH   1  12
HETATM   12  C   UNK N   1      23.098  18.014   4.813  0.00  0.00     0.004 A 
HETATM   13  C   UNK N   1      22.412  18.834   3.893  0.00  0.00     0.054 A 
HETATM   14  C   UNK N   1      23.115  19.791   3.131  0.00  0.00     0.115 A 
HETATM   15  C   UNK N   1      24.500  19.919   3.291  0.00  0.00     0.099 A 
HETATM   16  C   UNK N   1      25.184  19.091   4.176  0.00  0.00     0.040 A 
HETATM   17  C   UNK N   1      24.489  18.151   4.931  0.00  0.00     0.017 A 
BRANCH  14  18
HETATM   18  O   UNK N   1      22.489  20.609   2.250  0.00  0.00    -0.252 OA
BRANCH  18  19
HETATM   19  P   UNK N   1      20.864  20.394   1.735  0.00  0.00     0.396 P 
HETATM   20  O   UNK N   1      20.331  21.688   1.063  0.00  0.00    -0.631 OA
BRANCH  19  21
HETATM   21  O   UNK N   1      20.836  21.546   3.031  0.00  0.00    -0.307 OA
HETATM   22  H   UNK N   1      20.899  22.371   3.537  0.00  0.00     0.222 HD
ENDBRANCH  19  21
BRANCH  19  23
HETATM   23  O   UNK N   1      21.912  20.669   0.373  0.00  0.00    -0.307 OA
HETATM   24  H   UNK N   1      22.460  19.962  -0.000  0.00  0.00     0.222 HD
ENDBRANCH  19  23
ENDBRANCH  18  19
ENDBRANCH  14  18
BRANCH  15  25
HETATM   25  O   UNK N   1      25.182  20.831   2.577  0.00  0.00    -0.358 OA
HETATM   26  H   UNK N   1      25.768  20.561   1.898  0.00  0.00     0.217 HD
ENDBRANCH  15  25
ENDBRANCH   1  12
BRANCH   2  27
HETATM   27  O   UNK N   1      21.044  18.705   6.798  0.00  0.00    -0.355 OA
HETATM   28  H   UNK N   1      20.612  19.127   6.082  0.00  0.00     0.218 HD
ENDBRANCH   2  27
BRANCH   6  29
HETATM   29  O   UNK N   1      19.967  14.294   9.213  0.00  0.00    -0.360 OA
HETATM   30  H   UNK N   1      19.063  14.100   9.058  0.00  0.00     0.217 HD
ENDBRANCH   6  29
BRANCH   8  31
HETATM   31  O   UNK N   1      22.771  11.235   6.934  0.00  0.00    -0.361 OA
HETATM   32  H   UNK N   1      22.831  10.863   6.075  0.00  0.00     0.217 HD
ENDBRANCH   8  31
TORSDOF 9
ENDMDL
MODEL 2
REMARK VINA RESULT:      -7.5      4.234      7.314
REMARK  9 active torsions:
REMARK  status: ('A' for Active; 'I' for Inactive)
REMARK    1  A    between atoms: C_3  and  O_26 
REMARK    2  A    between atoms: C_4  and  O_21 
REMARK    3  A    between atoms: C_6  and  C_7 
REMARK    4  A    between atoms: C_8  and  O_20 
REMARK    5  A    between atoms: C_12  and  O_19 
REMARK    6  A    between atoms: C_14  and  O_18 
REMARK    7  A    between atoms: O_21  and  P_22 
REMARK    8  A    between atoms: P_22  and  O_24 
REMARK    9  A    between atoms: P_22  and  O_25 
ROOT
HETATM    1  C   UNK N   1      24.943  18.480   4.070  0.00  0.00     0.123 A 
HETATM    2  C   UNK N   1      24.965  19.813   3.595  0.00  0.00     0.152 A 
HETATM    3  C   UNK N   1      23.760  20.414   3.200  0.00  0.00     0.223 A 
HETATM    4  O   UNK N   1      23.767  21.569   2.799  0.00  0.00    -0.284 OA
HETATM    5  C   UNK N   1      22.557  19.685   3.280  0.00  0.00     0.084 A 
HETATM    6  C   UNK N   1      21.295  20.219   2.916  0.00  0.00     0.085 A 
HETATM    7  C   UNK N   1      20.146  19.430   3.025  0.00  0.00     0.074 A 
HETATM    8  C   UNK N   1      20.228  18.116   3.491  0.00  0.00     0.071 A 
HETATM    9  C   UNK N   1      21.464  17.583   3.854  0.00  0.00     0.075 A 
HETATM   10  C   UNK N   1      22.624  18.354   3.754  0.00  0.00     0.096 A 
HETATM   11  O   UNK N   1      23.783  17.826   4.120  0.00  0.00    -0.306 OA
ENDROOT
BRANCH   1  12
HETATM   12  C   UNK N   1      26.150  17.764   4.572  0.00  0.00     0.004 A 
HETATM   13  C   UNK N   1      26.629  17.873   5.895  0.00  0.00     0.054 A 
HETATM   14  C   UNK N   1      27.722  17.088   6.323  0.00  0.00     0.115 A 
HETATM   15  C   UNK N   1      28.329  16.202   5.424  0.00  0.00     0.099 A 
HETATM   16  C   UNK N   1      27.877  16.114   4.111  0.00  0.00     0.040 A 
HETATM   17  C   UNK N   1      26.797  16.885   3.692  0.00  0.00     0.017 A 
BRANCH  14  18
HETATM   18  O   UNK N   1      28.200  17.153   7.589  0.00  0.00    -0.252 OA
BRANCH  18  19
HETATM   19  P   UNK N   1      28.668  18.615   8.361  0.00  0.00     0.396 P 
HETATM   20  O   UNK N   1      29.374  18.315   9.710  0.00  0.00    -0.631 OA
BRANCH  19  21
HETATM   21  O   UNK N   1      27.414  17.909   9.331  0.00  0.00    -0.307 OA
HETATM   22  H   UNK N   1      26.544  17.662   9.681  0.00  0.00     0.222 HD
ENDBRANCH  19  21
BRANCH  19  23
HETATM   23  O   UNK N   1      30.063  17.661   7.947  0.00  0.00    -0.307 OA
HETATM   24  H   UNK N   1      29.996  16.879   7.379  0.00  0.00     0.222 HD
ENDBRANCH  19  23
ENDBRANCH  18  19
ENDBRANCH  14  18
BRANCH  15  25
HETATM   25  O   UNK N   1      29.366  15.444   5.820  0.00  0.00    -0.358 OA
HETATM   26  H   UNK N   1      30.184  15.483   5.365  0.00  0.00     0.217 HD
ENDBRANCH  15  25
ENDBRANCH   1  12
BRANCH   2  27
HETATM   27  O   UNK N   1      26.111  20.513   3.533  0.00  0.00    -0.355 OA
HETATM   28  H   UNK N   1      26.918  20.076   3.346  0.00  0.00     0.218 HD
ENDBRANCH   2  27
BRANCH   6  29
HETATM   29  O   UNK N   1      21.174  21.481   2.468  0.00  0.00    -0.360 OA
HETATM   30  H   UNK N   1      21.884  22.085   2.570  0.00  0.00     0.217 HD
ENDBRANCH   6  29
BRANCH   8  31
HETATM   31  O   UNK N   1      19.119  17.367   3.593  0.00  0.00    -0.361 OA
HETATM   32  H   UNK N   1      18.552  17.268   2.853  0.00  0.00     0.217 HD
ENDBRANCH   8  31
TORSDOF 9
ENDMDL
MODEL 3
REMARK VINA RESULT:      -7.3      2.700      7.828
REMARK  9 active torsions:
REMARK  status: ('A' for Active; 'I' for Inactive)
REMARK    1  A    between atoms: C_3  and  O_26 
REMARK    2  A    between atoms: C_4  and  O_21 
REMARK    3  A    between atoms: C_6  and  C_7 
REMARK    4  A    between atoms: C_8  and  O_20 
REMARK    5  A    between atoms: C_12  and  O_19 
REMARK    6  A    between atoms: C_14  and  O_18 
REMARK    7  A    between atoms: O_21  and  P_22 
REMARK    8  A    between atoms: P_22  and  O_24 
REMARK    9  A    between atoms: P_22  and  O_25 
ROOT
HETATM    1  C   UNK N   1      21.344  16.735   4.419  0.00  0.00     0.123 A 
HETATM    2  C   UNK N   1      20.297  17.529   3.892  0.00  0.00     0.152 A 
HETATM    3  C   UNK N   1      20.603  18.789   3.355  0.00  0.00     0.223 A 
HETATM    4  O   UNK N   1      19.707  19.477   2.888  0.00  0.00    -0.284 OA
HETATM    5  C   UNK N   1      21.938  19.240   3.351  0.00  0.00     0.084 A 
HETATM    6  C   UNK N   1      22.336  20.491   2.815  0.00  0.00     0.085 A 
HETATM    7  C   UNK N   1      23.683  20.867   2.848  0.00  0.00     0.074 A 
HETATM    8  C   UNK N   1      24.643  20.019   3.404  0.00  0.00     0.071 A 
HETATM    9  C   UNK N   1      24.261  18.787   3.930  0.00  0.00     0.075 A 
HETATM   10  C   UNK N   1      22.923  18.391   3.907  0.00  0.00     0.096 A 
HETATM   11  O   UNK N   1      22.591  17.206   4.401  0.00  0.00    -0.306 OA
ENDROOT
BRANCH   1  12
HETATM   12  C   UNK N   1      21.146  15.360   4.957  0.00  0.00     0.004 A 
HETATM   13  C   UNK N   1      20.828  15.086   6.305  0.00  0.00     0.054 A 
HETATM   14  C   UNK N   1      20.560  13.763   6.717  0.00  0.00     0.115 A 
HETATM   15  C   UNK N   1      20.615  12.723   5.781  0.00  0.00     0.099 A 
HETATM   16  C   UNK N   1      20.957  12.986   4.459  0.00  0.00     0.040 A 
HETATM   17  C   UNK N   1      21.217  14.292   4.052  0.00  0.00     0.017 A 
BRANCH  14  18
HETATM   18  O   UNK N   1      20.235  13.462   7.998  0.00  0.00    -0.252 OA
BRANCH  18  19
HETATM   19  P   UNK N   1      21.110  14.028   9.365  0.00  0.00     0.396 P 
HETATM   20  O   UNK N   1      20.821  13.138  10.602  0.00  0.00    -0.631 OA
BRANCH  19  21
HETATM   21  O   UNK N   1      19.429  14.311   9.687  0.00  0.00    -0.307 OA
HETATM   22  H   UNK N   1      18.498  14.180   9.925  0.00  0.00     0.222 HD
ENDBRANCH  19  21
BRANCH  19  23
HETATM   23  O   UNK N   1      21.635  12.432   8.914  0.00  0.00    -0.307 OA
HETATM   24  H   UNK N   1      22.437  12.035   9.286  0.00  0.00     0.222 HD
ENDBRANCH  19  23
ENDBRANCH  18  19
ENDBRANCH  14  18
BRANCH  15  25
HETATM   25  O   UNK N   1      20.356  11.460   6.160  0.00  0.00    -0.358 OA
HETATM   26  H   UNK N   1      21.056  10.875   6.373  0.00  0.00     0.217 HD
ENDBRANCH  15  25
ENDBRANCH   1  12
BRANCH   2  27
HETATM   27  O   UNK N   1      19.026  17.090   3.884  0.00  0.00    -0.355 OA
HETATM   28  H   UNK N   1      18.558  16.994   4.689  0.00  0.00     0.218 HD
ENDBRANCH   2  27
BRANCH   6  29
HETATM   29  O   UNK N   1      21.442  21.333   2.267  0.00  0.00    -0.360 OA
HETATM   30  H   UNK N   1      21.510  21.563   1.360  0.00  0.00     0.217 HD
ENDBRANCH   6  29
BRANCH   8  31
HETATM   31  O   UNK N   1      25.933  20.389   3.430  0.00  0.00    -0.361 OA
HETATM   32  H   UNK N   1      26.161  21.298   3.387  0.00  0.00     0.217 HD
ENDBRANCH   8  31
TORSDOF 9
ENDMDL
MODEL 4
REMARK VINA RESULT:      -7.2      4.761      7.076
REMARK  9 active torsions:
REMARK  status: ('A' for Active; 'I' for Inactive)
REMARK    1  A    between atoms: C_3  and  O_26 
REMARK    2  A    between atoms: C_4  and  O_21 
REMARK    3  A    between atoms: C_6  and  C_7 
REMARK    4  A    between atoms: C_8  and  O_20 
REMARK    5  A    between atoms: C_12  and  O_19 
REMARK    6  A    between atoms: C_14  and  O_18 
REMARK    7  A    between atoms: O_21  and  P_22 
REMARK    8  A    between atoms: P_22  and  O_24 
REMARK    9  A    between atoms: P_22  and  O_25 
ROOT
HETATM    1  C   UNK N   1      27.663  18.462   5.021  0.00  0.00     0.123 A 
HETATM    2  C   UNK N   1      28.648  17.638   4.426  0.00  0.00     0.152 A 
HETATM    3  C   UNK N   1      29.691  17.143   5.223  0.00  0.00     0.223 A 
HETATM    4  O   UNK N   1      30.541  16.422   4.721  0.00  0.00    -0.284 OA
HETATM    5  C   UNK N   1      29.741  17.473   6.592  0.00  0.00     0.084 A 
HETATM    6  C   UNK N   1      30.751  17.004   7.471  0.00  0.00     0.085 A 
HETATM    7  C   UNK N   1      30.731  17.377   8.819  0.00  0.00     0.074 A 
HETATM    8  C   UNK N   1      29.723  18.209   9.309  0.00  0.00     0.071 A 
HETATM    9  C   UNK N   1      28.725  18.672   8.454  0.00  0.00     0.075 A 
HETATM   10  C   UNK N   1      28.725  18.312   7.105  0.00  0.00     0.096 A 
HETATM   11  O   UNK N   1      27.755  18.755   6.318  0.00  0.00    -0.306 OA
ENDROOT
BRANCH   1  12
HETATM   12  C   UNK N   1      26.479  18.993   4.287  0.00  0.00     0.004 A 
HETATM   13  C   UNK N   1      25.200  18.398   4.333  0.00  0.00     0.054 A 
HETATM   14  C   UNK N   1      24.106  19.015   3.689  0.00  0.00     0.115 A 
HETATM   15  C   UNK N   1      24.299  20.219   3.001  0.00  0.00     0.099 A 
HETATM   16  C   UNK N   1      25.564  20.792   2.929  0.00  0.00     0.040 A 
HETATM   17  C   UNK N   1      26.642  20.185   3.569  0.00  0.00     0.017 A 
BRANCH  14  18
HETATM   18  O   UNK N   1      22.859  18.484   3.725  0.00  0.00    -0.252 OA
BRANCH  18  19
HETATM   19  P   UNK N   1      22.008  18.139   5.177  0.00  0.00     0.396 P 
HETATM   20  O   UNK N   1      20.576  17.631   4.860  0.00  0.00    -0.631 OA
BRANCH  19  21
HETATM   21  O   UNK N   1      21.238  19.515   4.454  0.00  0.00    -0.307 OA
HETATM   22  H   UNK N   1      20.566  20.126   4.113  0.00  0.00     0.222 HD
ENDBRANCH  19  21
BRANCH  19  23
HETATM   23  O   UNK N   1      22.231  16.694   4.234  0.00  0.00    -0.307 OA
HETATM   24  H   UNK N   1      22.835  15.989   4.516  0.00  0.00     0.222 HD
ENDBRANCH  19  23
ENDBRANCH  18  19
ENDBRANCH  14  18
BRANCH  15  25
HETATM   25  O   UNK N   1      23.264  20.820   2.389  0.00  0.00    -0.358 OA
HETATM   26  H   UNK N   1      22.383  20.610   2.628  0.00  0.00     0.217 HD
ENDBRANCH  15  25
ENDBRANCH   1  12
BRANCH   2  27
HETATM   27  O   UNK N   1      28.590  17.312   3.123  0.00  0.00    -0.355 OA
HETATM   28  H   UNK N   1      28.101  16.562   2.849  0.00  0.00     0.218 HD
ENDBRANCH   2  27
BRANCH   6  29
HETATM   29  O   UNK N   1      31.736  16.198   7.037  0.00  0.00    -0.360 OA
HETATM   30  H   UNK N   1      31.979  15.444   7.538  0.00  0.00     0.217 HD
ENDBRANCH   6  29
BRANCH   8  31
HETATM   31  O   UNK N   1      29.712  18.561  10.605  0.00  0.00    -0.361 OA
HETATM   32  H   UNK N   1      29.062  19.157  10.923  0.00  0.00     0.217 HD
ENDBRANCH   8  31
TORSDOF 9
ENDMDL
MODEL 5
REMARK VINA RESULT:      -7.2      2.853      7.382
REMARK  9 active torsions:
REMARK  status: ('A' for Active; 'I' for Inactive)
REMARK    1  A    between atoms: C_3  and  O_26 
REMARK    2  A    between atoms: C_4  and  O_21 
REMARK    3  A    between atoms: C_6  and  C_7 
REMARK    4  A    between atoms: C_8  and  O_20 
REMARK    5  A    between atoms: C_12  and  O_19 
REMARK    6  A    between atoms: C_14  and  O_18 
REMARK    7  A    between atoms: O_21  and  P_22 
REMARK    8  A    between atoms: P_22  and  O_24 
REMARK    9  A    between atoms: P_22  and  O_25 
ROOT
HETATM    1  C   UNK N   1      22.397  17.967   4.047  0.00  0.00     0.123 A 
HETATM    2  C   UNK N   1      22.111  19.233   3.481  0.00  0.00     0.152 A 
HETATM    3  C   UNK N   1      23.175  20.086   3.151  0.00  0.00     0.223 A 
HETATM    4  O   UNK N   1      22.939  21.177   2.652  0.00  0.00    -0.284 OA
HETATM    5  C   UNK N   1      24.501  19.672   3.388  0.00  0.00     0.084 A 
HETATM    6  C   UNK N   1      25.634  20.464   3.072  0.00  0.00     0.085 A 
HETATM    7  C   UNK N   1      26.919  19.981   3.337  0.00  0.00     0.074 A 
HETATM    8  C   UNK N   1      27.099  18.722   3.913  0.00  0.00     0.071 A 
HETATM    9  C   UNK N   1      25.992  17.935   4.225  0.00  0.00     0.075 A 
HETATM   10  C   UNK N   1      24.700  18.398   3.967  0.00  0.00     0.096 A 
HETATM   11  O   UNK N   1      23.666  17.621   4.260  0.00  0.00    -0.306 OA
ENDROOT
BRANCH   1  12
HETATM   12  C   UNK N   1      21.353  16.957   4.379  0.00  0.00     0.004 A 
HETATM   13  C   UNK N   1      20.863  16.740   5.684  0.00  0.00     0.054 A 
HETATM   14  C   UNK N   1      19.803  15.833   5.904  0.00  0.00     0.115 A 
HETATM   15  C   UNK N   1      19.245  15.147   4.818  0.00  0.00     0.099 A 
HETATM   16  C   UNK N   1      19.746  15.338   3.534  0.00  0.00     0.040 A 
HETATM   17  C   UNK N   1      20.787  16.236   3.318  0.00  0.00     0.017 A 
BRANCH  14  18
HETATM   18  O   UNK N   1      19.295  15.609   7.140  0.00  0.00    -0.252 OA
BRANCH  18  19
HETATM   19  P   UNK N   1      20.258  15.353   8.539  0.00  0.00     0.396 P 
HETATM   20  O   UNK N   1      19.599  14.299   9.468  0.00  0.00    -0.631 OA
BRANCH  19  21
HETATM   21  O   UNK N   1      18.799  16.129   9.065  0.00  0.00    -0.307 OA
HETATM   22  H   UNK N   1      18.143  16.804   9.300  0.00  0.00     0.222 HD
ENDBRANCH  19  21
BRANCH  19  23
HETATM   23  O   UNK N   1      20.155  13.901   7.586  0.00  0.00    -0.307 OA
HETATM   24  H   UNK N   1      20.591  13.079   7.859  0.00  0.00     0.222 HD
ENDBRANCH  19  23
ENDBRANCH  18  19
ENDBRANCH  14  18
BRANCH  15  25
HETATM   25  O   UNK N   1      18.232  14.286   5.013  0.00  0.00    -0.358 OA
HETATM   26  H   UNK N   1      18.120  13.548   4.446  0.00  0.00     0.217 HD
ENDBRANCH  15  25
ENDBRANCH   1  12
BRANCH   2  27
HETATM   27  O   UNK N   1      20.846  19.620   3.242  0.00  0.00    -0.355 OA
HETATM   28  H   UNK N   1      20.135  19.036   3.419  0.00  0.00     0.218 HD
ENDBRANCH   2  27
BRANCH   6  29
HETATM   29  O   UNK N   1      25.502  21.680   2.512  0.00  0.00    -0.360 OA
HETATM   30  H   UNK N   1      25.562  21.777   1.581  0.00  0.00     0.217 HD
ENDBRANCH   6  29
BRANCH   8  31
HETATM   31  O   UNK N   1      28.337  18.268   4.164  0.00  0.00    -0.361 OA
HETATM   32  H   UNK N   1      28.641  18.200   5.048  0.00  0.00     0.217 HD
ENDBRANCH   8  31
TORSDOF 9
ENDMDL
MODEL 6
REMARK VINA RESULT:      -7.1      5.106      6.729
REMARK  9 active torsions:
REMARK  status: ('A' for Active; 'I' for Inactive)
REMARK    1  A    between atoms: C_3  and  O_26 
REMARK    2  A    between atoms: C_4  and  O_21 
REMARK    3  A    between atoms: C_6  and  C_7 
REMARK    4  A    between atoms: C_8  and  O_20 
REMARK    5  A    between atoms: C_12  and  O_19 
REMARK    6  A    between atoms: C_14  and  O_18 
REMARK    7  A    between atoms: O_21  and  P_22 
REMARK    8  A    between atoms: P_22  and  O_24 
REMARK    9  A    between atoms: P_22  and  O_25 
ROOT
HETATM    1  C   UNK N   1      27.815  18.425   5.753  0.00  0.00     0.123 A 
HETATM    2  C   UNK N   1      27.917  18.889   7.086  0.00  0.00     0.152 A 
HETATM    3  C   UNK N   1      28.917  18.360   7.916  0.00  0.00     0.223 A 
HETATM    4  O   UNK N   1      29.021  18.763   9.065  0.00  0.00    -0.284 OA
HETATM    5  C   UNK N   1      29.795  17.380   7.412  0.00  0.00     0.084 A 
HETATM    6  C   UNK N   1      30.841  16.802   8.177  0.00  0.00     0.085 A 
HETATM    7  C   UNK N   1      31.672  15.834   7.604  0.00  0.00     0.074 A 
HETATM    8  C   UNK N   1      31.481  15.428   6.281  0.00  0.00     0.071 A 
HETATM    9  C   UNK N   1      30.458  15.991   5.521  0.00  0.00     0.075 A 
HETATM   10  C   UNK N   1      29.618  16.961   6.073  0.00  0.00     0.096 A 
HETATM   11  O   UNK N   1      28.662  17.490   5.322  0.00  0.00    -0.306 OA
ENDROOT
BRANCH   1  12
HETATM   12  C   UNK N   1      26.834  18.959   4.766  0.00  0.00     0.004 A 
HETATM   13  C   UNK N   1      25.535  18.435   4.593  0.00  0.00     0.054 A 
HETATM   14  C   UNK N   1      24.630  19.056   3.706  0.00  0.00     0.115 A 
HETATM   15  C   UNK N   1      25.030  20.195   2.996  0.00  0.00     0.099 A 
HETATM   16  C   UNK N   1      26.320  20.696   3.142  0.00  0.00     0.040 A 
HETATM   17  C   UNK N   1      27.211  20.085   4.021  0.00  0.00     0.017 A 
BRANCH  14  18
HETATM   18  O   UNK N   1      23.369  18.593   3.526  0.00  0.00    -0.252 OA
BRANCH  18  19
HETATM   19  P   UNK N   1      22.220  18.431   4.793  0.00  0.00     0.396 P 
HETATM   20  O   UNK N   1      20.831  18.039   4.220  0.00  0.00    -0.631 OA
BRANCH  19  21
HETATM   21  O   UNK N   1      21.755  19.820   3.863  0.00  0.00    -0.307 OA
HETATM   22  H   UNK N   1      21.584  20.734   3.589  0.00  0.00     0.222 HD
ENDBRANCH  19  21
BRANCH  19  23
HETATM   23  O   UNK N   1      22.468  16.909   3.986  0.00  0.00    -0.307 OA
HETATM   24  H   UNK N   1      22.276  16.795   3.042  0.00  0.00     0.222 HD
ENDBRANCH  19  23
ENDBRANCH  18  19
ENDBRANCH  14  18
BRANCH  15  25
HETATM   25  O   UNK N   1      24.176  20.800   2.153  0.00  0.00    -0.358 OA
HETATM   26  H   UNK N   1      23.569  20.296   1.649  0.00  0.00     0.217 HD
ENDBRANCH  15  25
ENDBRANCH   1  12
BRANCH   2  27
HETATM   27  O   UNK N   1      27.089  19.836   7.560  0.00  0.00    -0.355 OA
HETATM   28  H   UNK N   1      26.356  20.117   7.049  0.00  0.00     0.218 HD
ENDBRANCH   2  27
BRANCH   6  29
HETATM   29  O   UNK N   1      31.059  17.171   9.452  0.00  0.00    -0.360 OA
HETATM   30  H   UNK N   1      30.517  17.823   9.850  0.00  0.00     0.217 HD
ENDBRANCH   6  29
BRANCH   8  31
HETATM   31  O   UNK N   1      32.284  14.498   5.741  0.00  0.00    -0.361 OA
HETATM   32  H   UNK N   1      32.139  13.591   5.924  0.00  0.00     0.217 HD
ENDBRANCH   8  31
TORSDOF 9
ENDMDL
MODEL 7
REMARK VINA RESULT:      -7.1      2.306      7.376
REMARK  9 active torsions:
REMARK  status: ('A' for Active; 'I' for Inactive)
REMARK    1  A    between atoms: C_3  and  O_26 
REMARK    2  A    between atoms: C_4  and  O_21 
REMARK    3  A    between atoms: C_6  and  C_7 
REMARK    4  A    between atoms: C_8  and  O_20 
REMARK    5  A    between atoms: C_12  and  O_19 
REMARK    6  A    between atoms: C_14  and  O_18 
REMARK    7  A    between atoms: O_21  and  P_22 
REMARK    8  A    between atoms: P_22  and  O_24 
REMARK    9  A    between atoms: P_22  and  O_25 
ROOT
HETATM    1  C   UNK N   1      22.726  17.820   5.383  0.00  0.00     0.123 A 
HETATM    2  C   UNK N   1      22.056  18.563   4.382  0.00  0.00     0.152 A 
HETATM    3  C   UNK N   1      22.805  19.397   3.538  0.00  0.00     0.223 A 
HETATM    4  O   UNK N   1      22.236  20.034   2.663  0.00  0.00    -0.284 OA
HETATM    5  C   UNK N   1      24.201  19.481   3.700  0.00  0.00     0.084 A 
HETATM    6  C   UNK N   1      25.035  20.287   2.883  0.00  0.00     0.085 A 
HETATM    7  C   UNK N   1      26.415  20.316   3.108  0.00  0.00     0.074 A 
HETATM    8  C   UNK N   1      26.983  19.557   4.133  0.00  0.00     0.071 A 
HETATM    9  C   UNK N   1      26.173  18.761   4.940  0.00  0.00     0.075 A 
HETATM   10  C   UNK N   1      24.793  18.716   4.732  0.00  0.00     0.096 A 
HETATM   11  O   UNK N   1      24.048  17.937   5.505  0.00  0.00    -0.306 OA
ENDROOT
BRANCH   1  12
HETATM   12  C   UNK N   1      22.043  16.858   6.293  0.00  0.00     0.004 A 
HETATM   13  C   UNK N   1      21.137  17.247   7.303  0.00  0.00     0.054 A 
HETATM   14  C   UNK N   1      20.456  16.271   8.062  0.00  0.00     0.115 A 
HETATM   15  C   UNK N   1      20.688  14.913   7.808  0.00  0.00     0.099 A 
HETATM   16  C   UNK N   1      21.602  14.527   6.833  0.00  0.00     0.040 A 
HETATM   17  C   UNK N   1      22.270  15.491   6.082  0.00  0.00     0.017 A 
BRANCH  14  18
HETATM   18  O   UNK N   1      19.567  16.604   9.028  0.00  0.00    -0.252 OA
BRANCH  18  19
HETATM   19  P   UNK N   1      17.991  17.213   8.710  0.00  0.00     0.396 P 
HETATM   20  O   UNK N   1      17.284  17.609  10.033  0.00  0.00    -0.631 OA
BRANCH  19  21
HETATM   21  O   UNK N   1      17.792  15.700   9.536  0.00  0.00    -0.307 OA
HETATM   22  H   UNK N   1      17.607  14.767   9.726  0.00  0.00     0.222 HD
ENDBRANCH  19  21
BRANCH  19  23
HETATM   23  O   UNK N   1      18.997  18.444   9.417  0.00  0.00    -0.307 OA
HETATM   24  H   UNK N   1      19.508  19.061   8.871  0.00  0.00     0.222 HD
ENDBRANCH  19  23
ENDBRANCH  18  19
ENDBRANCH  14  18
BRANCH  15  25
HETATM   25  O   UNK N   1      20.041  13.973   8.518  0.00  0.00    -0.358 OA
HETATM   26  H   UNK N   1      20.518  13.373   9.057  0.00  0.00     0.217 HD
ENDBRANCH  15  25
ENDBRANCH   1  12
BRANCH   2  27
HETATM   27  O   UNK N   1      20.725  18.470   4.218  0.00  0.00    -0.355 OA
HETATM   28  H   UNK N   1      20.359  17.741   3.757  0.00  0.00     0.218 HD
ENDBRANCH   2  27
BRANCH   6  29
HETATM   29  O   UNK N   1      24.526  21.028   1.882  0.00  0.00    -0.360 OA
HETATM   30  H   UNK N   1      24.345  21.937   2.018  0.00  0.00     0.217 HD
ENDBRANCH   6  29
BRANCH   8  31
HETATM   31  O   UNK N   1      28.309  19.592   4.340  0.00  0.00    -0.361 OA
HETATM   32  H   UNK N   1      28.856  18.919   3.986  0.00  0.00     0.217 HD
ENDBRANCH   8  31
TORSDOF 9
ENDMDL
MODEL 8
REMARK VINA RESULT:      -7.0     10.953     12.603
REMARK  9 active torsions:
REMARK  status: ('A' for Active; 'I' for Inactive)
REMARK    1  A    between atoms: C_3  and  O_26 
REMARK    2  A    between atoms: C_4  and  O_21 
REMARK    3  A    between atoms: C_6  and  C_7 
REMARK    4  A    between atoms: C_8  and  O_20 
REMARK    5  A    between atoms: C_12  and  O_19 
REMARK    6  A    between atoms: C_14  and  O_18 
REMARK    7  A    between atoms: O_21  and  P_22 
REMARK    8  A    between atoms: P_22  and  O_24 
REMARK    9  A    between atoms: P_22  and  O_25 
ROOT
HETATM    1  C   UNK N   1      33.828  16.216   7.210  0.00  0.00     0.123 A 
HETATM    2  C   UNK N   1      34.464  17.183   8.024  0.00  0.00     0.152 A 
HETATM    3  C   UNK N   1      34.930  16.805   9.292  0.00  0.00     0.223 A 
HETATM    4  O   UNK N   1      35.491  17.631   9.998  0.00  0.00    -0.284 OA
HETATM    5  C   UNK N   1      34.757  15.478   9.732  0.00  0.00     0.084 A 
HETATM    6  C   UNK N   1      35.209  15.008  10.991  0.00  0.00     0.085 A 
HETATM    7  C   UNK N   1      34.999  13.674  11.355  0.00  0.00     0.074 A 
HETATM    8  C   UNK N   1      34.345  12.797  10.487  0.00  0.00     0.071 A 
HETATM    9  C   UNK N   1      33.899  13.248   9.247  0.00  0.00     0.075 A 
HETATM   10  C   UNK N   1      34.100  14.576   8.864  0.00  0.00     0.096 A 
HETATM   11  O   UNK N   1      33.678  14.974   7.671  0.00  0.00    -0.306 OA
ENDROOT
BRANCH   1  12
HETATM   12  C   UNK N   1      33.349  16.488   5.825  0.00  0.00     0.004 A 
HETATM   13  C   UNK N   1      33.866  15.847   4.680  0.00  0.00     0.054 A 
HETATM   14  C   UNK N   1      33.295  16.088   3.411  0.00  0.00     0.115 A 
HETATM   15  C   UNK N   1      32.214  16.970   3.298  0.00  0.00     0.099 A 
HETATM   16  C   UNK N   1      31.721  17.627   4.421  0.00  0.00     0.040 A 
HETATM   17  C   UNK N   1      32.283  17.385   5.672  0.00  0.00     0.017 A 
BRANCH  14  18
HETATM   18  O   UNK N   1      33.752  15.478   2.291  0.00  0.00    -0.252 OA
BRANCH  18  19
HETATM   19  P   UNK N   1      34.335  13.862   2.251  0.00  0.00     0.396 P 
HETATM   20  O   UNK N   1      33.953  13.179   0.911  0.00  0.00    -0.631 OA
BRANCH  19  21
HETATM   21  O   UNK N   1      32.604  13.774   2.317  0.00  0.00    -0.307 OA
HETATM   22  H   UNK N   1      31.690  13.463   2.228  0.00  0.00     0.222 HD
ENDBRANCH  19  21
BRANCH  19  23
HETATM   23  O   UNK N   1      35.093  14.823   1.014  0.00  0.00    -0.307 OA
HETATM   24  H   UNK N   1      34.911  15.771   0.921  0.00  0.00     0.222 HD
ENDBRANCH  19  23
ENDBRANCH  18  19
ENDBRANCH  14  18
BRANCH  15  25
HETATM   25  O   UNK N   1      31.656  17.204   2.097  0.00  0.00    -0.358 OA
HETATM   26  H   UNK N   1      31.687  18.060   1.717  0.00  0.00     0.217 HD
ENDBRANCH  15  25
ENDBRANCH   1  12
BRANCH   2  27
HETATM   27  O   UNK N   1      34.643  18.445   7.596  0.00  0.00    -0.355 OA
HETATM   28  H   UNK N   1      33.904  19.009   7.476  0.00  0.00     0.218 HD
ENDBRANCH   2  27
BRANCH   6  29
HETATM   29  O   UNK N   1      35.847  15.821  11.852  0.00  0.00    -0.360 OA
HETATM   30  H   UNK N   1      35.391  16.541  12.242  0.00  0.00     0.217 HD
ENDBRANCH   6  29
BRANCH   8  31
HETATM   31  O   UNK N   1      34.148  11.518  10.846  0.00  0.00    -0.361 OA
HETATM   32  H   UNK N   1      34.682  11.131  11.513  0.00  0.00     0.217 HD
ENDBRANCH   8  31
TORSDOF 9
ENDMDL
MODEL 9
REMARK VINA RESULT:      -7.0      2.861      7.696
REMARK  9 active torsions:
REMARK  status: ('A' for Active; 'I' for Inactive)
REMARK    1  A    between atoms: C_3  and  O_26 
REMARK    2  A    between atoms: C_4  and  O_21 
REMARK    3  A    between atoms: C_6  and  C_7 
REMARK    4  A    between atoms: C_8  and  O_20 
REMARK    5  A    between atoms: C_12  and  O_19 
REMARK    6  A    between atoms: C_14  and  O_18 
REMARK    7  A    between atoms: O_21  and  P_22 
REMARK    8  A    between atoms: P_22  and  O_24 
REMARK    9  A    between atoms: P_22  and  O_25 
ROOT
HETATM    1  C   UNK N   1      22.943  16.643   5.103  0.00  0.00     0.123 A 
HETATM    2  C   UNK N   1      23.866  17.696   4.902  0.00  0.00     0.152 A 
HETATM    3  C   UNK N   1      23.459  18.830   4.182  0.00  0.00     0.223 A 
HETATM    4  O   UNK N   1      24.246  19.750   4.013  0.00  0.00    -0.284 OA
HETATM    5  C   UNK N   1      22.147  18.899   3.674  0.00  0.00     0.084 A 
HETATM    6  C   UNK N   1      21.648  20.012   2.949  0.00  0.00     0.085 A 
HETATM    7  C   UNK N   1      20.332  20.005   2.478  0.00  0.00     0.074 A 
HETATM    8  C   UNK N   1      19.499  18.909   2.714  0.00  0.00     0.071 A 
HETATM    9  C   UNK N   1      19.979  17.812   3.427  0.00  0.00     0.075 A 
HETATM   10  C   UNK N   1      21.290  17.799   3.908  0.00  0.00     0.096 A 
HETATM   11  O   UNK N   1      21.714  16.748   4.597  0.00  0.00    -0.306 OA
ENDROOT
BRANCH   1  12
HETATM   12  C   UNK N   1      23.245  15.422   5.902  0.00  0.00     0.004 A 
HETATM   13  C   UNK N   1      22.333  14.830   6.802  0.00  0.00     0.054 A 
HETATM   14  C   UNK N   1      22.657  13.619   7.450  0.00  0.00     0.115 A 
HETATM   15  C   UNK N   1      23.892  13.010   7.197  0.00  0.00     0.099 A 
HETATM   16  C   UNK N   1      24.806  13.606   6.333  0.00  0.00     0.040 A 
HETATM   17  C   UNK N   1      24.483  14.798   5.691  0.00  0.00     0.017 A 
BRANCH  14  18
HETATM   18  O   UNK N   1      21.801  13.012   8.307  0.00  0.00    -0.252 OA
BRANCH  18  19
HETATM   19  P   UNK N   1      21.424  13.616   9.870  0.00  0.00     0.396 P 
HETATM   20  O   UNK N   1      20.316  12.756  10.533  0.00  0.00    -0.631 OA
BRANCH  19  21
HETATM   21  O   UNK N   1      20.035  13.899   8.870  0.00  0.00    -0.307 OA
HETATM   22  H   UNK N   1      19.405  13.872   8.134  0.00  0.00     0.222 HD
ENDBRANCH  19  21
BRANCH  19  23
HETATM   23  O   UNK N   1      22.088  12.012   9.973  0.00  0.00    -0.307 OA
HETATM   24  H   UNK N   1      22.982  11.850  10.314  0.00  0.00     0.222 HD
ENDBRANCH  19  23
ENDBRANCH  18  19
ENDBRANCH  14  18
BRANCH  15  25
HETATM   25  O   UNK N   1      24.212  11.853   7.802  0.00  0.00    -0.358 OA
HETATM   26  H   UNK N   1      23.553  11.347   8.236  0.00  0.00     0.217 HD
ENDBRANCH  15  25
ENDBRANCH   1  12
BRANCH   2  27
HETATM   27  O   UNK N   1      25.113  17.635   5.401  0.00  0.00    -0.355 OA
HETATM   28  H   UNK N   1      25.844  17.529   4.825  0.00  0.00     0.218 HD
ENDBRANCH   2  27
BRANCH   6  29
HETATM   29  O   UNK N   1      22.418  21.088   2.706  0.00  0.00    -0.360 OA
HETATM   30  H   UNK N   1      22.855  21.174   1.881  0.00  0.00     0.217 HD
ENDBRANCH   6  29
BRANCH   8  31
HETATM   31  O   UNK N   1      18.237  18.912   2.257  0.00  0.00    -0.361 OA
HETATM   32  H   UNK N   1      18.057  18.647   1.377  0.00  0.00     0.217 HD
ENDBRANCH   8  31
TORSDOF 9
ENDMDL
