REMARK  10 active torsions:
REMARK  status: ('A' for Active; 'I' for Inactive)
REMARK    1  A    between atoms: C_1  and  C_2 
REMARK    2  A    between atoms: C_1  and  O_12 
REMARK    3  A    between atoms: C_2  and  C_3 
REMARK    4  A    between atoms: C_2  and  O_11 
REMARK    5  A    between atoms: C_3  and  C_4 
REMARK    6  A    between atoms: C_3  and  O_10 
REMARK    7  A    between atoms: C_4  and  C_5 
REMARK    8  A    between atoms: C_4  and  O_9 
REMARK    9  A    between atoms: C_5  and  C_6 
REMARK   10  A    between atoms: C_5  and  O_8 
ROOT
HETATM    1  C   UNK N   1       2.835   1.803   0.274  0.00  0.00     0.180 C 
ENDROOT
BRANCH   1   2
HETATM    2  C   UNK N   1       1.723   0.901  -0.300  0.00  0.00     0.173 C 
BRANCH   2   3
HETATM    3  C   UNK N   1       0.355   1.251   0.279  0.00  0.00     0.198 C 
BRANCH   3   4
HETATM    4  O   UNK N   1      -0.065   2.512  -0.146  0.00  0.00    -0.398 OA
HETATM    5  H   UNK N   1       0.547   3.203  -0.442  0.00  0.00     0.209 HD
ENDBRANCH   3   4
ENDBRANCH   2   3
BRANCH   2   6
HETATM    6  O   UNK N   1       1.975  -0.439  -0.006  0.00  0.00    -0.391 OA
HETATM    7  H   UNK N   1       1.255  -1.057   0.198  0.00  0.00     0.210 HD
ENDBRANCH   2   6
ENDBRANCH   1   2
BRANCH   1   8
HETATM    8  C   UNK N   1       4.237   1.443  -0.266  0.00  0.00     0.184 C 
BRANCH   8   9
HETATM    9  C   UNK N   1       5.340   2.354   0.309  0.00  0.00     0.210 C 
BRANCH   9  10
HETATM   10  C   UNK N   1       6.700   1.971  -0.193  0.00  0.00     0.265 C 
HETATM   11  O   UNK N   1       7.182   0.883   0.073  0.00  0.00    -0.304 OA
ENDBRANCH   9  10
BRANCH   9  12
HETATM   12  O   UNK N   1       5.112   3.685  -0.044  0.00  0.00    -0.386 OA
HETATM   13  H   UNK N   1       5.834   4.285  -0.289  0.00  0.00     0.210 HD
ENDBRANCH   9  12
ENDBRANCH   8   9
BRANCH   8  14
HETATM   14  O   UNK N   1       4.534   0.115   0.055  0.00  0.00    -0.390 OA
HETATM   15  H   UNK N   1       3.840  -0.524   0.278  0.00  0.00     0.210 HD
ENDBRANCH   8  14
ENDBRANCH   1   8
BRANCH   1  16
HETATM   16  O   UNK N   1       2.544   3.134  -0.035  0.00  0.00    -0.390 OA
HETATM   17  H   UNK N   1       3.243   3.771  -0.249  0.00  0.00     0.210 HD
ENDBRANCH   1  16
TORSDOF 10
