REMARK  5 active torsions:
REMARK  status: ('A' for Active; 'I' for Inactive)
REMARK    1  A    between atoms: C_2  and  C_3 
REMARK    2  A    between atoms: C_3  and  N_4 
REMARK    3  A    between atoms: N_9  and  C_12 
REMARK    4  A    between atoms: C_12  and  C_13 
REMARK    5  A    between atoms: C_17  and  C_19 
ROOT
HETATM    1  N   UNK N   1       1.355  -0.798  -0.035  0.00  0.00    -0.283 N 
HETATM    2  C   UNK N   1       0.130  -0.196  -0.081  0.00  0.00     0.145 A 
HETATM    3  C   UNK N   1      -0.022   1.143  -0.029  0.00  0.00     0.147 A 
HETATM    4  C   UNK N   1       1.070   1.982   0.052  0.00  0.00     0.282 A 
HETATM    5  O   UNK N   1       0.911   3.193   0.083  0.00  0.00    -0.265 OA
HETATM    6  N   UNK N   1       2.338   1.425   0.079  0.00  0.00    -0.264 N 
HETATM    7  C   UNK N   1       2.477   0.025   0.042  0.00  0.00     0.333 A 
HETATM    8  O   UNK N   1       3.584  -0.487   0.077  0.00  0.00    -0.246 OA
HETATM    9  N   UNK N   1      -1.325   1.461  -0.099  0.00  0.00    -0.338 N 
ATOM     10  HN  UNK N   1      -1.749   2.388  -0.074  1.00  0.00     0.167 HD
HETATM   11  C   UNK N   1      -1.945   0.257  -0.209  0.00  0.00     0.087 A 
HETATM   12  N   UNK N   1      -1.074  -0.783  -0.203  0.00  0.00    -0.329 N 
HETATM   13  H   UNK N   1      -1.276  -1.744  -0.272  0.00  0.00     0.168 HD
ENDROOT
BRANCH  11  14
HETATM   14  C   UNK N   1      -3.420   0.088  -0.422  0.00  0.00     0.053 C 
HETATM   15  C   UNK N   1      -4.064  -0.898   0.516  0.00  0.00     0.012 C 
HETATM   16  C   UNK N   1      -5.541  -0.600   0.363  0.00  0.00     0.001 C 
HETATM   17  C   UNK N   1      -5.635   0.884   0.030  0.00  0.00     0.001 C 
HETATM   18  C   UNK N   1      -4.215   1.360  -0.229  0.00  0.00     0.012 C 
ENDBRANCH  11  14
BRANCH   1  19
HETATM   19  C   UNK N   1       1.569  -2.260  -0.072  0.00  0.00     0.135 C 
BRANCH  19  20
HETATM   20  C   UNK N   1       0.320  -3.128  -0.024  0.00  0.00     0.016 C 
HETATM   21  C   UNK N   1       0.723  -4.587  -0.019  0.00  0.00     0.006 C 
ENDBRANCH  19  20
ENDBRANCH   1  19
BRANCH   6  22
HETATM   22  C   UNK N   1       3.477   2.372   0.138  0.00  0.00     0.137 C 
BRANCH  22  23
HETATM   23  C   UNK N   1       4.878   1.785   0.022  0.00  0.00     0.016 C 
HETATM   24  C   UNK N   1       5.897   2.904   0.018  0.00  0.00     0.006 C 
ENDBRANCH  22  23
ENDBRANCH   6  22
TORSDOF 5
