MODEL 1
REMARK VINA RESULT:      -4.9      0.000      0.000
REMARK  7 active torsions:
REMARK  status: ('A' for Active; 'I' for Inactive)
REMARK    1  A    between atoms: C_5  and  C_4 
REMARK    2  A    between atoms: C_6  and  C_4 
REMARK    3  A    between atoms: C_7  and  C_5 
REMARK    4  A    between atoms: N_10  and  C_6 
REMARK    5  A    between atoms: O_13  and  C_7 
REMARK    6  A    between atoms: C_9  and  C_8 
REMARK    7  A    between atoms: O_14  and  C_8 
ROOT
HETATM    1  C   UNK N   1      36.730  13.638  14.780  0.00  0.00     0.118 C 
HETATM    2  N   UNK N   1      36.848  13.673  13.488  0.00  0.00    -0.374 N 
ATOM      3  HN  UNK N   1      37.505  14.354  13.105  1.00  0.00     0.161 HD
ENDROOT
BRANCH   2   4
HETATM    4  C   UNK N   1      36.144  12.845  12.541  0.00  0.00     0.122 C 
BRANCH   4   5
HETATM    5  C   UNK N   1      35.742  13.672  11.333  0.00  0.00     0.030 C 
BRANCH   5   6
HETATM    6  C   UNK N   1      35.142  14.996  11.774  0.00  0.00     0.111 C 
BRANCH   6   7
HETATM    7  C   UNK N   1      35.784  16.128  11.038  0.00  0.00     0.139 C 
HETATM    8  O   UNK N   1      35.104  17.058  10.639  0.00  0.00    -0.650 OA
BRANCH   7   9
HETATM    9  O   UNK N   1      37.114  16.128  10.821  0.00  0.00    -0.776 OA
HETATM   10  H   UNK N   1      37.643  16.822  11.159  0.00  0.00     0.167 HD
ENDBRANCH   7   9
ENDBRANCH   6   7
ENDBRANCH   5   6
ENDBRANCH   4   5
ENDBRANCH   2   4
BRANCH   1  11
HETATM   11  C   UNK N   1      35.793  12.707  15.561  0.00  0.00     0.013 C 
HETATM   12  C   UNK N   1      36.520  11.401  15.816  0.00  0.00     0.023 C 
HETATM   13  C   UNK N   1      34.457  12.366  14.924  0.00  0.00     0.023 C 
HETATM   14  C   UNK N   1      35.486  13.342  16.905  0.00  0.00     0.023 C 
ENDBRANCH   1  11
BRANCH   1  15
HETATM   15  O   UNK N   1      37.499  14.480  15.501  0.00  0.00    -0.349 OA
HETATM   16  H   UNK N   1      37.593  14.419  16.431  0.00  0.00     0.219 HD
ENDBRANCH   1  15
TORSDOF 7
ENDMDL
MODEL 2
REMARK VINA RESULT:      -4.8     21.275     23.576
REMARK  7 active torsions:
REMARK  status: ('A' for Active; 'I' for Inactive)
REMARK    1  A    between atoms: C_5  and  C_4 
REMARK    2  A    between atoms: C_6  and  C_4 
REMARK    3  A    between atoms: C_7  and  C_5 
REMARK    4  A    between atoms: N_10  and  C_6 
REMARK    5  A    between atoms: O_13  and  C_7 
REMARK    6  A    between atoms: C_9  and  C_8 
REMARK    7  A    between atoms: O_14  and  C_8 
ROOT
HETATM    1  C   UNK N   1      26.807  24.451  -3.867  0.00  0.00     0.118 C 
HETATM    2  N   UNK N   1      25.736  24.937  -4.418  0.00  0.00    -0.374 N 
ATOM      3  HN  UNK N   1      24.869  24.856  -3.887  1.00  0.00     0.161 HD
ENDROOT
BRANCH   2   4
HETATM    4  C   UNK N   1      25.654  25.581  -5.706  0.00  0.00     0.122 C 
BRANCH   4   5
HETATM    5  C   UNK N   1      24.974  26.930  -5.564  0.00  0.00     0.030 C 
BRANCH   5   6
HETATM    6  C   UNK N   1      26.004  28.020  -5.318  0.00  0.00     0.111 C 
BRANCH   6   7
HETATM    7  C   UNK N   1      25.903  28.523  -3.914  0.00  0.00     0.139 C 
HETATM    8  O   UNK N   1      26.186  29.682  -3.661  0.00  0.00    -0.650 OA
BRANCH   7   9
HETATM    9  O   UNK N   1      25.493  27.702  -2.928  0.00  0.00    -0.776 OA
HETATM   10  H   UNK N   1      26.112  27.156  -2.484  0.00  0.00     0.167 HD
ENDBRANCH   7   9
ENDBRANCH   6   7
ENDBRANCH   5   6
ENDBRANCH   4   5
ENDBRANCH   2   4
BRANCH   1  11
HETATM   11  C   UNK N   1      28.207  24.453  -4.493  0.00  0.00     0.013 C 
HETATM   12  C   UNK N   1      28.745  25.870  -4.460  0.00  0.00     0.023 C 
HETATM   13  C   UNK N   1      28.335  23.954  -5.922  0.00  0.00     0.023 C 
HETATM   14  C   UNK N   1      29.120  23.586  -3.646  0.00  0.00     0.023 C 
ENDBRANCH   1  11
BRANCH   1  15
HETATM   15  O   UNK N   1      26.684  23.909  -2.638  0.00  0.00    -0.349 OA
HETATM   16  H   UNK N   1      26.477  24.411  -1.875  0.00  0.00     0.219 HD
ENDBRANCH   1  15
TORSDOF 7
ENDMDL
MODEL 3
REMARK VINA RESULT:      -4.8      4.641      5.875
REMARK  7 active torsions:
REMARK  status: ('A' for Active; 'I' for Inactive)
REMARK    1  A    between atoms: C_5  and  C_4 
REMARK    2  A    between atoms: C_6  and  C_4 
REMARK    3  A    between atoms: C_7  and  C_5 
REMARK    4  A    between atoms: N_10  and  C_6 
REMARK    5  A    between atoms: O_13  and  C_7 
REMARK    6  A    between atoms: C_9  and  C_8 
REMARK    7  A    between atoms: O_14  and  C_8 
ROOT
HETATM    1  C   UNK N   1      33.378  14.815  10.016  0.00  0.00     0.118 C 
HETATM    2  N   UNK N   1      32.641  15.792   9.583  0.00  0.00    -0.374 N 
ATOM      3  HN  UNK N   1      32.239  16.412  10.287  1.00  0.00     0.161 HD
ENDROOT
BRANCH   2   4
HETATM    4  C   UNK N   1      32.337  16.089   8.205  0.00  0.00     0.122 C 
BRANCH   4   5
HETATM    5  C   UNK N   1      32.658  17.543   7.908  0.00  0.00     0.030 C 
BRANCH   5   6
HETATM    6  C   UNK N   1      34.113  17.690   7.496  0.00  0.00     0.111 C 
BRANCH   6   7
HETATM    7  C   UNK N   1      34.911  18.288   8.610  0.00  0.00     0.139 C 
HETATM    8  O   UNK N   1      35.333  19.428   8.512  0.00  0.00    -0.650 OA
BRANCH   7   9
HETATM    9  O   UNK N   1      35.158  17.574   9.725  0.00  0.00    -0.776 OA
HETATM   10  H   UNK N   1      34.973  16.657   9.744  0.00  0.00     0.167 HD
ENDBRANCH   7   9
ENDBRANCH   6   7
ENDBRANCH   5   6
ENDBRANCH   4   5
ENDBRANCH   2   4
BRANCH   1  11
HETATM   11  C   UNK N   1      34.064  13.762   9.136  0.00  0.00     0.013 C 
HETATM   12  C   UNK N   1      35.301  14.386   8.520  0.00  0.00     0.023 C 
HETATM   13  C   UNK N   1      33.250  13.159   8.004  0.00  0.00     0.023 C 
HETATM   14  C   UNK N   1      34.509  12.609  10.016  0.00  0.00     0.023 C 
ENDBRANCH   1  11
BRANCH   1  15
HETATM   15  O   UNK N   1      33.567  14.720  11.348  0.00  0.00    -0.349 OA
HETATM   16  H   UNK N   1      33.641  15.466  11.910  0.00  0.00     0.219 HD
ENDBRANCH   1  15
TORSDOF 7
ENDMDL
MODEL 4
REMARK VINA RESULT:      -4.7     16.166     17.793
REMARK  7 active torsions:
REMARK  status: ('A' for Active; 'I' for Inactive)
REMARK    1  A    between atoms: C_5  and  C_4 
REMARK    2  A    between atoms: C_6  and  C_4 
REMARK    3  A    between atoms: C_7  and  C_5 
REMARK    4  A    between atoms: N_10  and  C_6 
REMARK    5  A    between atoms: O_13  and  C_7 
REMARK    6  A    between atoms: C_9  and  C_8 
REMARK    7  A    between atoms: O_14  and  C_8 
ROOT
HETATM    1  C   UNK N   1      21.173  18.076   6.300  0.00  0.00     0.118 C 
HETATM    2  N   UNK N   1      21.440  18.652   5.167  0.00  0.00    -0.374 N 
ATOM      3  HN  UNK N   1      21.382  19.670   5.145  1.00  0.00     0.161 HD
ENDROOT
BRANCH   2   4
HETATM    4  C   UNK N   1      21.812  17.994   3.940  0.00  0.00     0.122 C 
BRANCH   4   5
HETATM    5  C   UNK N   1      20.823  18.349   2.845  0.00  0.00     0.030 C 
BRANCH   5   6
HETATM    6  C   UNK N   1      20.380  19.796   2.980  0.00  0.00     0.111 C 
BRANCH   6   7
HETATM    7  C   UNK N   1      21.260  20.688   2.163  0.00  0.00     0.139 C 
HETATM    8  O   UNK N   1      21.380  20.491   0.966  0.00  0.00    -0.650 OA
BRANCH   7   9
HETATM    9  O   UNK N   1      21.912  21.713   2.744  0.00  0.00    -0.776 OA
HETATM   10  H   UNK N   1      22.780  21.931   2.469  0.00  0.00     0.167 HD
ENDBRANCH   7   9
ENDBRANCH   6   7
ENDBRANCH   5   6
ENDBRANCH   4   5
ENDBRANCH   2   4
BRANCH   1  11
HETATM   11  C   UNK N   1      21.185  16.563   6.552  0.00  0.00     0.013 C 
HETATM   12  C   UNK N   1      22.602  16.057   6.361  0.00  0.00     0.023 C 
HETATM   13  C   UNK N   1      20.278  15.703   5.688  0.00  0.00     0.023 C 
HETATM   14  C   UNK N   1      20.786  16.306   7.993  0.00  0.00     0.023 C 
ENDBRANCH   1  11
BRANCH   1  15
HETATM   15  O   UNK N   1      20.869  18.870   7.347  0.00  0.00    -0.349 OA
HETATM   16  H   UNK N   1      20.112  19.422   7.369  0.00  0.00     0.219 HD
ENDBRANCH   1  15
TORSDOF 7
ENDMDL
MODEL 5
REMARK VINA RESULT:      -4.7      4.266      7.535
REMARK  7 active torsions:
REMARK  status: ('A' for Active; 'I' for Inactive)
REMARK    1  A    between atoms: C_5  and  C_4 
REMARK    2  A    between atoms: C_6  and  C_4 
REMARK    3  A    between atoms: C_7  and  C_5 
REMARK    4  A    between atoms: N_10  and  C_6 
REMARK    5  A    between atoms: O_13  and  C_7 
REMARK    6  A    between atoms: C_9  and  C_8 
REMARK    7  A    between atoms: O_14  and  C_8 
ROOT
HETATM    1  C   UNK N   1      32.442  17.473   8.510  0.00  0.00     0.118 C 
HETATM    2  N   UNK N   1      33.441  17.574   9.334  0.00  0.00    -0.374 N 
ATOM      3  HN  UNK N   1      33.248  18.006  10.238  1.00  0.00     0.161 HD
ENDROOT
BRANCH   2   4
HETATM    4  C   UNK N   1      34.794  17.137   9.096  0.00  0.00     0.122 C 
BRANCH   4   5
HETATM    5  C   UNK N   1      35.438  16.722  10.406  0.00  0.00     0.030 C 
BRANCH   5   6
HETATM    6  C   UNK N   1      35.529  15.208  10.495  0.00  0.00     0.111 C 
BRANCH   6   7
HETATM    7  C   UNK N   1      34.431  14.671  11.357  0.00  0.00     0.139 C 
HETATM    8  O   UNK N   1      34.696  13.936  12.293  0.00  0.00    -0.650 OA
BRANCH   7   9
HETATM    9  O   UNK N   1      33.150  15.005  11.108  0.00  0.00    -0.776 OA
HETATM   10  H   UNK N   1      32.897  15.284  10.250  0.00  0.00     0.167 HD
ENDBRANCH   7   9
ENDBRANCH   6   7
ENDBRANCH   5   6
ENDBRANCH   4   5
ENDBRANCH   2   4
BRANCH   1  11
HETATM   11  C   UNK N   1      32.512  16.875   7.099  0.00  0.00     0.013 C 
HETATM   12  C   UNK N   1      32.768  15.386   7.222  0.00  0.00     0.023 C 
HETATM   13  C   UNK N   1      33.559  17.437   6.153  0.00  0.00     0.023 C 
HETATM   14  C   UNK N   1      31.167  17.065   6.423  0.00  0.00     0.023 C 
ENDBRANCH   1  11
BRANCH   1  15
HETATM   15  O   UNK N   1      31.240  17.920   8.929  0.00  0.00    -0.349 OA
HETATM   16  H   UNK N   1      30.679  18.452   8.400  0.00  0.00     0.219 HD
ENDBRANCH   1  15
TORSDOF 7
ENDMDL
MODEL 6
REMARK VINA RESULT:      -4.7     23.527     24.884
REMARK  7 active torsions:
REMARK  status: ('A' for Active; 'I' for Inactive)
REMARK    1  A    between atoms: C_5  and  C_4 
REMARK    2  A    between atoms: C_6  and  C_4 
REMARK    3  A    between atoms: C_7  and  C_5 
REMARK    4  A    between atoms: N_10  and  C_6 
REMARK    5  A    between atoms: O_13  and  C_7 
REMARK    6  A    between atoms: C_9  and  C_8 
REMARK    7  A    between atoms: O_14  and  C_8 
ROOT
HETATM    1  C   UNK N   1      26.338  25.686  -4.615  0.00  0.00     0.118 C 
HETATM    2  N   UNK N   1      26.695  24.766  -5.459  0.00  0.00    -0.374 N 
ATOM      3  HN  UNK N   1      26.956  23.860  -5.068  1.00  0.00     0.161 HD
ENDROOT
BRANCH   2   4
HETATM    4  C   UNK N   1      26.756  24.899  -6.893  0.00  0.00     0.122 C 
BRANCH   4   5
HETATM    5  C   UNK N   1      25.716  24.002  -7.538  0.00  0.00     0.030 C 
BRANCH   5   6
HETATM    6  C   UNK N   1      25.736  22.623  -6.900  0.00  0.00     0.111 C 
BRANCH   6   7
HETATM    7  C   UNK N   1      24.856  21.685  -7.661  0.00  0.00     0.139 C 
HETATM    8  O   UNK N   1      25.234  20.549  -7.895  0.00  0.00    -0.650 OA
BRANCH   7   9
HETATM    9  O   UNK N   1      23.641  22.087  -8.082  0.00  0.00    -0.776 OA
HETATM   10  H   UNK N   1      23.180  22.755  -7.614  0.00  0.00     0.167 HD
ENDBRANCH   7   9
ENDBRANCH   6   7
ENDBRANCH   5   6
ENDBRANCH   4   5
ENDBRANCH   2   4
BRANCH   1  11
HETATM   11  C   UNK N   1      25.924  27.117  -4.982  0.00  0.00     0.013 C 
HETATM   12  C   UNK N   1      24.599  27.057  -5.717  0.00  0.00     0.023 C 
HETATM   13  C   UNK N   1      26.882  27.923  -5.841  0.00  0.00     0.023 C 
HETATM   14  C   UNK N   1      25.715  27.906  -3.703  0.00  0.00     0.023 C 
ENDBRANCH   1  11
BRANCH   1  15
HETATM   15  O   UNK N   1      26.319  25.358  -3.306  0.00  0.00    -0.349 OA
HETATM   16  H   UNK N   1      25.541  25.097  -2.855  0.00  0.00     0.219 HD
ENDBRANCH   1  15
TORSDOF 7
ENDMDL
MODEL 7
REMARK VINA RESULT:      -4.6      3.328      6.867
REMARK  7 active torsions:
REMARK  status: ('A' for Active; 'I' for Inactive)
REMARK    1  A    between atoms: C_5  and  C_4 
REMARK    2  A    between atoms: C_6  and  C_4 
REMARK    3  A    between atoms: C_7  and  C_5 
REMARK    4  A    between atoms: N_10  and  C_6 
REMARK    5  A    between atoms: O_13  and  C_7 
REMARK    6  A    between atoms: C_9  and  C_8 
REMARK    7  A    between atoms: O_14  and  C_8 
ROOT
HETATM    1  C   UNK N   1      34.668  17.769   8.678  0.00  0.00     0.118 C 
HETATM    2  N   UNK N   1      35.056  17.427   9.869  0.00  0.00    -0.374 N 
ATOM      3  HN  UNK N   1      35.565  18.129  10.406  1.00  0.00     0.161 HD
ENDROOT
BRANCH   2   4
HETATM    4  C   UNK N   1      34.837  16.152  10.506  0.00  0.00     0.122 C 
BRANCH   4   5
HETATM    5  C   UNK N   1      36.086  15.733  11.261  0.00  0.00     0.030 C 
BRANCH   5   6
HETATM    6  C   UNK N   1      35.983  14.278  11.688  0.00  0.00     0.111 C 
BRANCH   6   7
HETATM    7  C   UNK N   1      35.894  14.178  13.177  0.00  0.00     0.139 C 
HETATM    8  O   UNK N   1      34.958  13.591  13.692  0.00  0.00    -0.650 OA
BRANCH   7   9
HETATM    9  O   UNK N   1      36.850  14.727  13.951  0.00  0.00    -0.776 OA
HETATM   10  H   UNK N   1      37.156  15.594  13.773  0.00  0.00     0.167 HD
ENDBRANCH   7   9
ENDBRANCH   6   7
ENDBRANCH   5   6
ENDBRANCH   4   5
ENDBRANCH   2   4
BRANCH   1  11
HETATM   11  C   UNK N   1      33.906  16.868   7.698  0.00  0.00     0.013 C 
HETATM   12  C   UNK N   1      33.611  17.667   6.443  0.00  0.00     0.023 C 
HETATM   13  C   UNK N   1      32.592  16.273   8.174  0.00  0.00     0.023 C 
HETATM   14  C   UNK N   1      34.798  15.703   7.313  0.00  0.00     0.023 C 
ENDBRANCH   1  11
BRANCH   1  15
HETATM   15  O   UNK N   1      34.947  19.024   8.268  0.00  0.00    -0.349 OA
HETATM   16  H   UNK N   1      34.620  19.789   8.700  0.00  0.00     0.219 HD
ENDBRANCH   1  15
TORSDOF 7
ENDMDL
MODEL 8
REMARK VINA RESULT:      -4.6     19.807     22.922
REMARK  7 active torsions:
REMARK  status: ('A' for Active; 'I' for Inactive)
REMARK    1  A    between atoms: C_5  and  C_4 
REMARK    2  A    between atoms: C_6  and  C_4 
REMARK    3  A    between atoms: C_7  and  C_5 
REMARK    4  A    between atoms: N_10  and  C_6 
REMARK    5  A    between atoms: O_13  and  C_7 
REMARK    6  A    between atoms: C_9  and  C_8 
REMARK    7  A    between atoms: O_14  and  C_8 
ROOT
HETATM    1  C   UNK N   1      26.315  26.509  -3.538  0.00  0.00     0.118 C 
HETATM    2  N   UNK N   1      26.764  25.291  -3.509  0.00  0.00    -0.374 N 
ATOM      3  HN  UNK N   1      26.817  24.842  -2.594  1.00  0.00     0.161 HD
ENDROOT
BRANCH   2   4
HETATM    4  C   UNK N   1      27.193  24.510  -4.643  0.00  0.00     0.122 C 
BRANCH   4   5
HETATM    5  C   UNK N   1      28.670  24.184  -4.513  0.00  0.00     0.030 C 
BRANCH   5   6
HETATM    6  C   UNK N   1      28.902  23.230  -3.354  0.00  0.00     0.111 C 
BRANCH   6   7
HETATM    7  C   UNK N   1      30.098  23.654  -2.563  0.00  0.00     0.139 C 
HETATM    8  O   UNK N   1      30.433  23.017  -1.579  0.00  0.00    -0.650 OA
BRANCH   7   9
HETATM    9  O   UNK N   1      30.811  24.732  -2.940  0.00  0.00    -0.776 OA
HETATM   10  H   UNK N   1      30.893  25.465  -2.362  0.00  0.00     0.167 HD
ENDBRANCH   7   9
ENDBRANCH   6   7
ENDBRANCH   5   6
ENDBRANCH   4   5
ENDBRANCH   2   4
BRANCH   1  11
HETATM   11  C   UNK N   1      26.167  27.372  -4.798  0.00  0.00     0.013 C 
HETATM   12  C   UNK N   1      24.940  26.904  -5.557  0.00  0.00     0.023 C 
HETATM   13  C   UNK N   1      27.328  27.383  -5.777  0.00  0.00     0.023 C 
HETATM   14  C   UNK N   1      25.938  28.811  -4.377  0.00  0.00     0.023 C 
ENDBRANCH   1  11
BRANCH   1  15
HETATM   15  O   UNK N   1      25.936  27.062  -2.367  0.00  0.00    -0.349 OA
HETATM   16  H   UNK N   1      26.514  27.158  -1.635  0.00  0.00     0.219 HD
ENDBRANCH   1  15
TORSDOF 7
ENDMDL
MODEL 9
REMARK VINA RESULT:      -4.6      2.026      2.468
REMARK  7 active torsions:
REMARK  status: ('A' for Active; 'I' for Inactive)
REMARK    1  A    between atoms: C_5  and  C_4 
REMARK    2  A    between atoms: C_6  and  C_4 
REMARK    3  A    between atoms: C_7  and  C_5 
REMARK    4  A    between atoms: N_10  and  C_6 
REMARK    5  A    between atoms: O_13  and  C_7 
REMARK    6  A    between atoms: C_9  and  C_8 
REMARK    7  A    between atoms: O_14  and  C_8 
ROOT
HETATM    1  C   UNK N   1      34.328  11.498  13.943  0.00  0.00     0.118 C 
HETATM    2  N   UNK N   1      34.679  12.096  12.846  0.00  0.00    -0.374 N 
ATOM      3  HN  UNK N   1      34.039  12.017  12.054  1.00  0.00     0.161 HD
ENDROOT
BRANCH   2   4
HETATM    4  C   UNK N   1      35.882  12.862  12.636  0.00  0.00     0.122 C 
BRANCH   4   5
HETATM    5  C   UNK N   1      35.582  14.343  12.785  0.00  0.00     0.030 C 
BRANCH   5   6
HETATM    6  C   UNK N   1      34.974  14.891  11.505  0.00  0.00     0.111 C 
BRANCH   6   7
HETATM    7  C   UNK N   1      35.750  16.076  11.026  0.00  0.00     0.139 C 
HETATM    8  O   UNK N   1      35.170  17.113  10.752  0.00  0.00    -0.650 OA
BRANCH   7   9
HETATM    9  O   UNK N   1      37.090  16.005  10.906  0.00  0.00    -0.776 OA
HETATM   10  H   UNK N   1      37.563  16.710  10.511  0.00  0.00     0.167 HD
ENDBRANCH   7   9
ENDBRANCH   6   7
ENDBRANCH   5   6
ENDBRANCH   4   5
ENDBRANCH   2   4
BRANCH   1  11
HETATM   11  C   UNK N   1      35.143  11.475  15.243  0.00  0.00     0.013 C 
HETATM   12  C   UNK N   1      34.842  12.743  16.019  0.00  0.00     0.023 C 
HETATM   13  C   UNK N   1      36.653  11.369  15.118  0.00  0.00     0.023 C 
HETATM   14  C   UNK N   1      34.691  10.294  16.080  0.00  0.00     0.023 C 
ENDBRANCH   1  11
BRANCH   1  15
HETATM   15  O   UNK N   1      33.145  10.850  13.950  0.00  0.00    -0.349 OA
HETATM   16  H   UNK N   1      32.644  10.707  14.728  0.00  0.00     0.219 HD
ENDBRANCH   1  15
TORSDOF 7
ENDMDL
