MODEL 1
REMARK VINA RESULT:      -8.3      0.000      0.000
REMARK  8 active torsions:
REMARK  status: ('A' for Active; 'I' for Inactive)
REMARK    1  A    between atoms: O_2  and  C_3 
REMARK    2  A    between atoms: C_10  and  N_20 
REMARK    3  A    between atoms: N_20  and  C_21 
REMARK    4  A    between atoms: C_23  and  C_34 
REMARK    5  A    between atoms: C_24  and  O_33 
REMARK    6  A    between atoms: C_25  and  C_27 
REMARK    7  A    between atoms: C_27  and  N_28 
REMARK    8  A    between atoms: C_34  and  N_35 
ROOT
HETATM    1  N   UNK N   1      23.376  17.484   5.815  0.00  0.00    -0.354 N 
HETATM    2  H   UNK N   1      22.979  17.904   6.613  0.00  0.00     0.166 HD
ENDROOT
BRANCH   1   3
HETATM    3  C   UNK N   1      23.990  18.426   4.919  0.00  0.00     0.074 A 
HETATM    4  C   UNK N   1      25.373  18.762   4.899  0.00  0.00     0.089 A 
HETATM    5  C   UNK N   1      25.829  19.771   4.019  0.00  0.00     0.062 A 
HETATM    6  N   UNK N   1      26.275  18.132   5.688  0.00  0.00    -0.333 N 
HETATM    7  C   UNK N   1      27.181  20.114   4.008  0.00  0.00     0.036 A 
HETATM    8  N   UNK N   1      24.969  20.406   3.188  0.00  0.00    -0.354 N 
HETATM    9  C   UNK N   1      28.073  19.452   4.848  0.00  0.00     0.058 A 
HETATM   10  C   UNK N   1      27.599  18.438   5.694  0.00  0.00     0.142 A 
HETATM   11  C   UNK N   1      23.651  20.096   3.158  0.00  0.00     0.046 A 
ATOM     12  HN  UNK N   1      25.322  21.138   2.570  1.00  0.00     0.166 HD
HETATM   13  C   UNK N   1      22.801  20.775   2.281  0.00  0.00     0.054 A 
HETATM   14  C   UNK N   1      23.136  19.098   4.017  0.00  0.00     0.020 A 
HETATM   15  C   UNK N   1      21.438  20.470   2.246  0.00  0.00     0.036 A 
HETATM   16  C   UNK N   1      20.919  19.485   3.090  0.00  0.00     0.025 A 
HETATM   17 Cl   UNK N   1      20.379  21.328   1.147  0.00  0.00    -0.084 Cl
HETATM   18  C   UNK N   1      21.762  18.805   3.973  0.00  0.00     0.018 A 
ATOM     19  HN  UNK N   1      25.945  17.392   6.309  1.00  0.00     0.168 HD
BRANCH  10  20
HETATM   20  O   UNK N   1      28.427  17.755   6.517  0.00  0.00    -0.341 OA
HETATM   21  C   UNK N   1      28.015  17.184   7.700  0.00  0.00     0.211 C 
ENDBRANCH  10  20
ENDBRANCH   1   3
BRANCH   1  22
HETATM   22  C   UNK N   1      23.225  16.065   5.783  0.00  0.00     0.033 A 
HETATM   23  C   UNK N   1      22.720  15.300   6.841  0.00  0.00     0.041 A 
HETATM   24  C   UNK N   1      22.503  13.924   6.703  0.00  0.00     0.006 A 
HETATM   25  C   UNK N   1      22.773  13.299   5.477  0.00  0.00     0.082 A 
HETATM   26  C   UNK N   1      23.290  14.054   4.413  0.00  0.00     0.006 A 
HETATM   27  C   UNK N   1      23.510  15.424   4.580  0.00  0.00     0.041 A 
BRANCH  24  28
HETATM   28  C   UNK N   1      21.928  13.144   7.845  0.00  0.00     0.313 C 
BRANCH  28  29
HETATM   29  N   UNK N   1      22.184  13.805   9.120  0.00  0.00     0.092 N 
HETATM   30  C   UNK N   1      21.015  13.597   9.968  0.00  0.00     0.273 C 
HETATM   31  C   UNK N   1      21.258  12.388  10.854  0.00  0.00     0.032 C 
HETATM   32  C   UNK N   1      22.670  11.949  10.564  0.00  0.00     0.032 C 
HETATM   33  C   UNK N   1      23.273  13.097   9.784  0.00  0.00     0.273 C 
ENDBRANCH  28  29
ENDBRANCH  24  28
BRANCH  25  34
HETATM   34  O   UNK N   1      22.531  11.984   5.320  0.00  0.00    -0.359 OA
HETATM   35  H   UNK N   1      22.419  11.563   4.491  0.00  0.00     0.217 HD
ENDBRANCH  25  34
BRANCH  26  36
HETATM   36  C   UNK N   1      23.536  13.425   3.072  0.00  0.00     0.313 C 
BRANCH  36  37
HETATM   37  N   UNK N   1      23.232  14.319   1.952  0.00  0.00     0.092 N 
HETATM   38  C   UNK N   1      24.123  13.940   0.862  0.00  0.00     0.273 C 
HETATM   39  C   UNK N   1      23.383  12.984  -0.060  0.00  0.00     0.032 C 
HETATM   40  C   UNK N   1      21.967  12.935   0.454  0.00  0.00     0.032 C 
HETATM   41  C   UNK N   1      21.887  14.075   1.439  0.00  0.00     0.273 C 
ENDBRANCH  36  37
ENDBRANCH  26  36
ENDBRANCH   1  22
TORSDOF 8
ENDMDL
MODEL 2
REMARK VINA RESULT:      -8.0      0.694      5.151
REMARK  8 active torsions:
REMARK  status: ('A' for Active; 'I' for Inactive)
REMARK    1  A    between atoms: O_2  and  C_3 
REMARK    2  A    between atoms: C_10  and  N_20 
REMARK    3  A    between atoms: N_20  and  C_21 
REMARK    4  A    between atoms: C_23  and  C_34 
REMARK    5  A    between atoms: C_24  and  O_33 
REMARK    6  A    between atoms: C_25  and  C_27 
REMARK    7  A    between atoms: C_27  and  N_28 
REMARK    8  A    between atoms: C_34  and  N_35 
ROOT
HETATM    1  N   UNK N   1      23.479  17.145   5.814  0.00  0.00    -0.354 N 
HETATM    2  H   UNK N   1      23.306  17.467   6.729  0.00  0.00     0.166 HD
ENDROOT
BRANCH   1   3
HETATM    3  C   UNK N   1      24.097  18.130   4.968  0.00  0.00     0.074 A 
HETATM    4  C   UNK N   1      25.484  18.450   4.957  0.00  0.00     0.089 A 
HETATM    5  C   UNK N   1      25.946  19.502   4.132  0.00  0.00     0.062 A 
HETATM    6  N   UNK N   1      26.384  17.765   5.701  0.00  0.00    -0.333 N 
HETATM    7  C   UNK N   1      27.302  19.830   4.130  0.00  0.00     0.036 A 
HETATM    8  N   UNK N   1      25.088  20.194   3.346  0.00  0.00    -0.354 N 
HETATM    9  C   UNK N   1      28.192  19.110   4.923  0.00  0.00     0.058 A 
HETATM   10  C   UNK N   1      27.712  18.055   5.713  0.00  0.00     0.142 A 
HETATM   11  C   UNK N   1      23.765  19.901   3.309  0.00  0.00     0.046 A 
ATOM     12  HN  UNK N   1      25.445  20.956   2.768  1.00  0.00     0.166 HD
HETATM   13  C   UNK N   1      22.917  20.640   2.480  0.00  0.00     0.054 A 
HETATM   14  C   UNK N   1      23.246  18.862   4.114  0.00  0.00     0.020 A 
HETATM   15  C   UNK N   1      21.550  20.353   2.438  0.00  0.00     0.036 A 
HETATM   16  C   UNK N   1      21.026  19.327   3.229  0.00  0.00     0.025 A 
HETATM   17 Cl   UNK N   1      20.494  21.285   1.399  0.00  0.00    -0.084 Cl
HETATM   18  C   UNK N   1      21.867  18.588   4.064  0.00  0.00     0.018 A 
ATOM     19  HN  UNK N   1      26.050  16.995   6.281  1.00  0.00     0.168 HD
BRANCH  10  20
HETATM   20  O   UNK N   1      28.538  17.316   6.489  0.00  0.00    -0.341 OA
HETATM   21  C   UNK N   1      29.539  16.518   5.985  0.00  0.00     0.211 C 
ENDBRANCH  10  20
ENDBRANCH   1   3
BRANCH   1  22
HETATM   22  C   UNK N   1      23.066  15.795   5.598  0.00  0.00     0.033 A 
HETATM   23  C   UNK N   1      23.095  15.149   4.358  0.00  0.00     0.041 A 
HETATM   24  C   UNK N   1      22.772  13.792   4.239  0.00  0.00     0.006 A 
HETATM   25  C   UNK N   1      22.434  13.057   5.384  0.00  0.00     0.082 A 
HETATM   26  C   UNK N   1      22.390  13.697   6.631  0.00  0.00     0.006 A 
HETATM   27  C   UNK N   1      22.704  15.056   6.722  0.00  0.00     0.041 A 
BRANCH  24  28
HETATM   28  C   UNK N   1      22.849  13.124   2.900  0.00  0.00     0.313 C 
BRANCH  28  29
HETATM   29  N   UNK N   1      24.013  13.582   2.147  0.00  0.00     0.092 N 
HETATM   30  C   UNK N   1      24.844  12.416   1.867  0.00  0.00     0.273 C 
HETATM   31  C   UNK N   1      24.498  11.884   0.488  0.00  0.00     0.032 C 
HETATM   32  C   UNK N   1      23.492  12.851  -0.081  0.00  0.00     0.032 C 
HETATM   33  C   UNK N   1      23.551  14.048   0.844  0.00  0.00     0.273 C 
ENDBRANCH  28  29
ENDBRANCH  24  28
BRANCH  25  34
HETATM   34  O   UNK N   1      22.160  11.742   5.287  0.00  0.00    -0.359 OA
HETATM   35  H   UNK N   1      22.395  11.206   4.555  0.00  0.00     0.217 HD
ENDBRANCH  25  34
BRANCH  26  36
HETATM   36  C   UNK N   1      22.086  12.925   7.883  0.00  0.00     0.313 C 
BRANCH  36  37
HETATM   37  N   UNK N   1      22.318  13.697   9.106  0.00  0.00     0.092 N 
HETATM   38  C   UNK N   1      21.069  13.670   9.858  0.00  0.00     0.273 C 
HETATM   39  C   UNK N   1      21.142  12.548  10.882  0.00  0.00     0.032 C 
HETATM   40  C   UNK N   1      22.549  12.011  10.800  0.00  0.00     0.032 C 
HETATM   41  C   UNK N   1      23.289  13.029   9.968  0.00  0.00     0.273 C 
ENDBRANCH  36  37
ENDBRANCH  26  36
ENDBRANCH   1  22
TORSDOF 8
ENDMDL
MODEL 3
REMARK VINA RESULT:      -7.9      2.770      6.726
REMARK  8 active torsions:
REMARK  status: ('A' for Active; 'I' for Inactive)
REMARK    1  A    between atoms: O_2  and  C_3 
REMARK    2  A    between atoms: C_10  and  N_20 
REMARK    3  A    between atoms: N_20  and  C_21 
REMARK    4  A    between atoms: C_23  and  C_34 
REMARK    5  A    between atoms: C_24  and  O_33 
REMARK    6  A    between atoms: C_25  and  C_27 
REMARK    7  A    between atoms: C_27  and  N_28 
REMARK    8  A    between atoms: C_34  and  N_35 
ROOT
HETATM    1  N   UNK N   1      25.210  16.687   6.083  0.00  0.00    -0.354 N 
HETATM    2  H   UNK N   1      25.262  16.860   7.052  0.00  0.00     0.166 HD
ENDROOT
BRANCH   1   3
HETATM    3  C   UNK N   1      25.999  17.595   5.297  0.00  0.00     0.074 A 
HETATM    4  C   UNK N   1      25.480  18.604   4.437  0.00  0.00     0.089 A 
HETATM    5  C   UNK N   1      26.371  19.374   3.654  0.00  0.00     0.062 A 
HETATM    6  N   UNK N   1      24.154  18.865   4.358  0.00  0.00    -0.333 N 
HETATM    7  C   UNK N   1      25.865  20.354   2.800  0.00  0.00     0.036 A 
HETATM    8  N   UNK N   1      27.708  19.172   3.725  0.00  0.00    -0.354 N 
HETATM    9  C   UNK N   1      24.493  20.579   2.736  0.00  0.00     0.058 A 
HETATM   10  C   UNK N   1      23.632  19.818   3.541  0.00  0.00     0.142 A 
HETATM   11  C   UNK N   1      28.242  18.240   4.551  0.00  0.00     0.046 A 
ATOM     12  HN  UNK N   1      28.329  19.734   3.142  1.00  0.00     0.166 HD
HETATM   13  C   UNK N   1      29.628  18.067   4.594  0.00  0.00     0.054 A 
HETATM   14  C   UNK N   1      27.401  17.438   5.355  0.00  0.00     0.020 A 
HETATM   15  C   UNK N   1      30.192  17.104   5.435  0.00  0.00     0.036 A 
HETATM   16  C   UNK N   1      29.369  16.308   6.235  0.00  0.00     0.025 A 
HETATM   17 Cl   UNK N   1      31.929  16.893   5.481  0.00  0.00    -0.084 Cl
HETATM   18  C   UNK N   1      27.983  16.470   6.193  0.00  0.00     0.018 A 
ATOM     19  HN  UNK N   1      23.515  18.320   4.938  1.00  0.00     0.168 HD
BRANCH  10  20
HETATM   20  O   UNK N   1      22.293  20.008   3.527  0.00  0.00    -0.341 OA
HETATM   21  C   UNK N   1      21.389  19.053   3.935  0.00  0.00     0.211 C 
ENDBRANCH  10  20
ENDBRANCH   1   3
BRANCH   1  22
HETATM   22  C   UNK N   1      24.366  15.585   5.747  0.00  0.00     0.033 A 
HETATM   23  C   UNK N   1      24.092  15.171   4.439  0.00  0.00     0.041 A 
HETATM   24  C   UNK N   1      23.338  14.019   4.186  0.00  0.00     0.006 A 
HETATM   25  C   UNK N   1      22.866  13.249   5.258  0.00  0.00     0.082 A 
HETATM   26  C   UNK N   1      23.125  13.661   6.574  0.00  0.00     0.006 A 
HETATM   27  C   UNK N   1      23.869  14.822   6.801  0.00  0.00     0.041 A 
BRANCH  24  28
HETATM   28  C   UNK N   1      23.095  13.585   2.772  0.00  0.00     0.313 C 
BRANCH  28  29
HETATM   29  N   UNK N   1      24.303  13.716   1.964  0.00  0.00     0.092 N 
HETATM   30  C   UNK N   1      24.877  12.383   1.811  0.00  0.00     0.273 C 
HETATM   31  C   UNK N   1      24.391  11.785   0.503  0.00  0.00     0.032 C 
HETATM   32  C   UNK N   1      23.581  12.867  -0.164  0.00  0.00     0.032 C 
HETATM   33  C   UNK N   1      23.905  14.120   0.620  0.00  0.00     0.273 C 
ENDBRANCH  28  29
ENDBRANCH  24  28
BRANCH  25  34
HETATM   34  O   UNK N   1      22.175  12.118   5.026  0.00  0.00    -0.359 OA
HETATM   35  H   UNK N   1      22.114  11.403   5.628  0.00  0.00     0.217 HD
ENDBRANCH  25  34
BRANCH  26  36
HETATM   36  C   UNK N   1      22.682  12.829   7.743  0.00  0.00     0.313 C 
BRANCH  36  37
HETATM   37  N   UNK N   1      23.050  13.410   9.036  0.00  0.00     0.092 N 
HETATM   38  C   UNK N   1      21.811  13.571   9.788  0.00  0.00     0.273 C 
HETATM   39  C   UNK N   1      21.631  12.362  10.694  0.00  0.00     0.032 C 
HETATM   40  C   UNK N   1      22.896  11.554  10.551  0.00  0.00     0.032 C 
HETATM   41  C   UNK N   1      23.846  12.472   9.822  0.00  0.00     0.273 C 
ENDBRANCH  36  37
ENDBRANCH  26  36
ENDBRANCH   1  22
TORSDOF 8
ENDMDL
MODEL 4
REMARK VINA RESULT:      -7.9      3.055      4.806
REMARK  8 active torsions:
REMARK  status: ('A' for Active; 'I' for Inactive)
REMARK    1  A    between atoms: O_2  and  C_3 
REMARK    2  A    between atoms: C_10  and  N_20 
REMARK    3  A    between atoms: N_20  and  C_21 
REMARK    4  A    between atoms: C_23  and  C_34 
REMARK    5  A    between atoms: C_24  and  O_33 
REMARK    6  A    between atoms: C_25  and  C_27 
REMARK    7  A    between atoms: C_27  and  N_28 
REMARK    8  A    between atoms: C_34  and  N_35 
ROOT
HETATM    1  N   UNK N   1      26.423  16.388   6.725  0.00  0.00    -0.354 N 
HETATM    2  H   UNK N   1      26.469  16.669   7.668  0.00  0.00     0.166 HD
ENDROOT
BRANCH   1   3
HETATM    3  C   UNK N   1      27.067  17.306   5.824  0.00  0.00     0.074 A 
HETATM    4  C   UNK N   1      26.397  18.243   4.987  0.00  0.00     0.089 A 
HETATM    5  C   UNK N   1      27.151  19.029   4.084  0.00  0.00     0.062 A 
HETATM    6  N   UNK N   1      25.056  18.421   5.040  0.00  0.00    -0.333 N 
HETATM    7  C   UNK N   1      26.497  19.937   3.252  0.00  0.00     0.036 A 
HETATM    8  N   UNK N   1      28.498  18.910   4.019  0.00  0.00    -0.354 N 
HETATM    9  C   UNK N   1      25.113  20.077   3.327  0.00  0.00     0.058 A 
HETATM   10  C   UNK N   1      24.392  19.303   4.248  0.00  0.00     0.142 A 
HETATM   11  C   UNK N   1      29.174  18.049   4.818  0.00  0.00     0.046 A 
ATOM     12  HN  UNK N   1      29.017  19.481   3.352  1.00  0.00     0.166 HD
HETATM   13  C   UNK N   1      30.565  17.961   4.719  0.00  0.00     0.054 A 
HETATM   14  C   UNK N   1      28.474  17.235   5.738  0.00  0.00     0.020 A 
HETATM   15  C   UNK N   1      31.273  17.072   5.532  0.00  0.00     0.036 A 
HETATM   16  C   UNK N   1      30.591  16.264   6.445  0.00  0.00     0.025 A 
HETATM   17 Cl   UNK N   1      33.015  16.967   5.399  0.00  0.00    -0.084 Cl
HETATM   18  C   UNK N   1      29.200  16.342   6.546  0.00  0.00     0.018 A 
ATOM     19  HN  UNK N   1      24.518  17.865   5.705  1.00  0.00     0.168 HD
BRANCH  10  20
HETATM   20  O   UNK N   1      23.049  19.412   4.370  0.00  0.00    -0.341 OA
HETATM   21  C   UNK N   1      22.177  18.387   4.080  0.00  0.00     0.211 C 
ENDBRANCH  10  20
ENDBRANCH   1   3
BRANCH   1  22
HETATM   22  C   UNK N   1      25.733  15.154   6.530  0.00  0.00     0.033 A 
HETATM   23  C   UNK N   1      25.292  14.324   7.566  0.00  0.00     0.041 A 
HETATM   24  C   UNK N   1      24.531  13.178   7.304  0.00  0.00     0.006 A 
HETATM   25  C   UNK N   1      24.182  12.864   5.983  0.00  0.00     0.082 A 
HETATM   26  C   UNK N   1      24.630  13.682   4.935  0.00  0.00     0.006 A 
HETATM   27  C   UNK N   1      25.399  14.814   5.221  0.00  0.00     0.041 A 
BRANCH  24  28
HETATM   28  C   UNK N   1      24.044  12.333   8.441  0.00  0.00     0.313 C 
BRANCH  28  29
HETATM   29  N   UNK N   1      23.945  13.109   9.673  0.00  0.00     0.092 N 
HETATM   30  C   UNK N   1      22.537  13.429   9.881  0.00  0.00     0.273 C 
HETATM   31  C   UNK N   1      21.927  12.390  10.805  0.00  0.00     0.032 C 
HETATM   32  C   UNK N   1      23.067  11.494  11.219  0.00  0.00     0.032 C 
HETATM   33  C   UNK N   1      24.311  12.239  10.785  0.00  0.00     0.273 C 
ENDBRANCH  28  29
ENDBRANCH  24  28
BRANCH  25  34
HETATM   34  O   UNK N   1      23.417  11.787   5.723  0.00  0.00    -0.359 OA
HETATM   35  H   UNK N   1      23.532  11.225   4.983  0.00  0.00     0.217 HD
ENDBRANCH  25  34
BRANCH  26  36
HETATM   36  C   UNK N   1      24.228  13.405   3.515  0.00  0.00     0.313 C 
BRANCH  36  37
HETATM   37  N   UNK N   1      24.098  14.618   2.705  0.00  0.00     0.092 N 
HETATM   38  C   UNK N   1      24.780  14.351   1.444  0.00  0.00     0.273 C 
HETATM   39  C   UNK N   1      23.752  13.892   0.423  0.00  0.00     0.032 C 
HETATM   40  C   UNK N   1      22.412  14.044   1.096  0.00  0.00     0.032 C 
HETATM   41  C   UNK N   1      22.706  14.853   2.335  0.00  0.00     0.273 C 
ENDBRANCH  36  37
ENDBRANCH  26  36
ENDBRANCH   1  22
TORSDOF 8
ENDMDL
MODEL 5
REMARK VINA RESULT:      -7.3      3.428      5.670
REMARK  8 active torsions:
REMARK  status: ('A' for Active; 'I' for Inactive)
REMARK    1  A    between atoms: O_2  and  C_3 
REMARK    2  A    between atoms: C_10  and  N_20 
REMARK    3  A    between atoms: N_20  and  C_21 
REMARK    4  A    between atoms: C_23  and  C_34 
REMARK    5  A    between atoms: C_24  and  O_33 
REMARK    6  A    between atoms: C_25  and  C_27 
REMARK    7  A    between atoms: C_27  and  N_28 
REMARK    8  A    between atoms: C_34  and  N_35 
ROOT
HETATM    1  N   UNK N   1      26.008  16.709   5.994  0.00  0.00    -0.354 N 
HETATM    2  H   UNK N   1      25.983  17.599   6.418  0.00  0.00     0.166 HD
ENDROOT
BRANCH   1   3
HETATM    3  C   UNK N   1      27.284  16.387   5.414  0.00  0.00     0.074 A 
HETATM    4  C   UNK N   1      27.478  15.704   4.181  0.00  0.00     0.089 A 
HETATM    5  C   UNK N   1      28.791  15.376   3.769  0.00  0.00     0.062 A 
HETATM    6  N   UNK N   1      26.442  15.371   3.375  0.00  0.00    -0.333 N 
HETATM    7  C   UNK N   1      28.985  14.693   2.568  0.00  0.00     0.036 A 
HETATM    8  N   UNK N   1      29.860  15.718   4.526  0.00  0.00    -0.354 N 
HETATM    9  C   UNK N   1      27.890  14.355   1.777  0.00  0.00     0.058 A 
HETATM   10  C   UNK N   1      26.600  14.713   2.196  0.00  0.00     0.142 A 
HETATM   11  C   UNK N   1      29.718  16.393   5.693  0.00  0.00     0.046 A 
ATOM     12  HN  UNK N   1      30.796  15.461   4.211  1.00  0.00     0.166 HD
HETATM   13  C   UNK N   1      30.851  16.728   6.439  0.00  0.00     0.054 A 
HETATM   14  C   UNK N   1      28.430  16.745   6.157  0.00  0.00     0.020 A 
HETATM   15  C   UNK N   1      30.718  17.416   7.648  0.00  0.00     0.036 A 
HETATM   16  C   UNK N   1      29.449  17.770   8.115  0.00  0.00     0.025 A 
HETATM   17 Cl   UNK N   1      32.141  17.830   8.579  0.00  0.00    -0.084 Cl
HETATM   18  C   UNK N   1      28.312  17.433   7.377  0.00  0.00     0.018 A 
ATOM     19  HN  UNK N   1      25.498  15.625   3.667  1.00  0.00     0.168 HD
BRANCH  10  20
HETATM   20  O   UNK N   1      25.505  14.421   1.457  0.00  0.00    -0.341 OA
HETATM   21  C   UNK N   1      24.217  14.586   1.914  0.00  0.00     0.211 C 
ENDBRANCH  10  20
ENDBRANCH   1   3
BRANCH   1  22
HETATM   22  C   UNK N   1      24.771  16.002   6.082  0.00  0.00     0.033 A 
HETATM   23  C   UNK N   1      24.548  14.900   6.913  0.00  0.00     0.041 A 
HETATM   24  C   UNK N   1      23.279  14.319   7.024  0.00  0.00     0.006 A 
HETATM   25  C   UNK N   1      22.203  14.862   6.309  0.00  0.00     0.082 A 
HETATM   26  C   UNK N   1      22.417  15.961   5.462  0.00  0.00     0.006 A 
HETATM   27  C   UNK N   1      23.696  16.515   5.359  0.00  0.00     0.041 A 
BRANCH  24  28
HETATM   28  C   UNK N   1      23.069  13.162   7.952  0.00  0.00     0.313 C 
BRANCH  28  29
HETATM   29  N   UNK N   1      23.223  13.567   9.346  0.00  0.00     0.092 N 
HETATM   30  C   UNK N   1      21.894  13.592   9.946  0.00  0.00     0.273 C 
HETATM   31  C   UNK N   1      21.642  12.266  10.642  0.00  0.00     0.032 C 
HETATM   32  C   UNK N   1      22.926  11.488  10.512  0.00  0.00     0.032 C 
HETATM   33  C   UNK N   1      23.942  12.509  10.047  0.00  0.00     0.273 C 
ENDBRANCH  28  29
ENDBRANCH  24  28
BRANCH  25  34
HETATM   34  O   UNK N   1      20.970  14.337   6.438  0.00  0.00    -0.359 OA
HETATM   35  H   UNK N   1      20.241  14.788   6.816  0.00  0.00     0.217 HD
ENDBRANCH  25  34
BRANCH  26  36
HETATM   36  C   UNK N   1      21.275  16.600   4.727  0.00  0.00     0.313 C 
BRANCH  36  37
HETATM   37  N   UNK N   1      21.698  17.335   3.532  0.00  0.00     0.092 N 
HETATM   38  C   UNK N   1      21.141  16.624   2.387  0.00  0.00     0.273 C 
HETATM   39  C   UNK N   1      19.831  17.287   1.993  0.00  0.00     0.032 C 
HETATM   40  C   UNK N   1      19.716  18.512   2.864  0.00  0.00     0.032 C 
HETATM   41  C   UNK N   1      21.082  18.657   3.487  0.00  0.00     0.273 C 
ENDBRANCH  36  37
ENDBRANCH  26  36
ENDBRANCH   1  22
TORSDOF 8
ENDMDL
MODEL 6
REMARK VINA RESULT:      -7.3      3.717      7.199
REMARK  8 active torsions:
REMARK  status: ('A' for Active; 'I' for Inactive)
REMARK    1  A    between atoms: O_2  and  C_3 
REMARK    2  A    between atoms: C_10  and  N_20 
REMARK    3  A    between atoms: N_20  and  C_21 
REMARK    4  A    between atoms: C_23  and  C_34 
REMARK    5  A    between atoms: C_24  and  O_33 
REMARK    6  A    between atoms: C_25  and  C_27 
REMARK    7  A    between atoms: C_27  and  N_28 
REMARK    8  A    between atoms: C_34  and  N_35 
ROOT
HETATM    1  N   UNK N   1      24.356  14.055   6.614  0.00  0.00    -0.354 N 
HETATM    2  H   UNK N   1      24.299  13.074   6.542  0.00  0.00     0.166 HD
ENDROOT
BRANCH   1   3
HETATM    3  C   UNK N   1      23.148  14.663   7.102  0.00  0.00     0.074 A 
HETATM    4  C   UNK N   1      22.577  15.871   6.610  0.00  0.00     0.089 A 
HETATM    5  C   UNK N   1      21.428  16.403   7.241  0.00  0.00     0.062 A 
HETATM    6  N   UNK N   1      23.090  16.522   5.539  0.00  0.00    -0.333 N 
HETATM    7  C   UNK N   1      20.875  17.594   6.771  0.00  0.00     0.036 A 
HETATM    8  N   UNK N   1      20.861  15.770   8.294  0.00  0.00    -0.354 N 
HETATM    9  C   UNK N   1      21.444  18.240   5.676  0.00  0.00     0.058 A 
HETATM   10  C   UNK N   1      22.568  17.679   5.053  0.00  0.00     0.142 A 
HETATM   11  C   UNK N   1      21.358  14.604   8.775  0.00  0.00     0.046 A 
ATOM     12  HN  UNK N   1      20.038  16.180   8.738  1.00  0.00     0.166 HD
HETATM   13  C   UNK N   1      20.737  13.984   9.862  0.00  0.00     0.054 A 
HETATM   14  C   UNK N   1      22.506  14.026   8.186  0.00  0.00     0.020 A 
HETATM   15  C   UNK N   1      21.245  12.786  10.372  0.00  0.00     0.036 A 
HETATM   16  C   UNK N   1      22.379  12.206   9.798  0.00  0.00     0.025 A 
HETATM   17 Cl   UNK N   1      20.463  12.017  11.736  0.00  0.00    -0.084 Cl
HETATM   18  C   UNK N   1      23.008  12.823   8.714  0.00  0.00     0.018 A 
ATOM     19  HN  UNK N   1      23.908  16.125   5.075  1.00  0.00     0.168 HD
BRANCH  10  20
HETATM   20  O   UNK N   1      23.150  18.260   3.978  0.00  0.00    -0.341 OA
HETATM   21  C   UNK N   1      22.735  19.461   3.450  0.00  0.00     0.211 C 
ENDBRANCH  10  20
ENDBRANCH   1   3
BRANCH   1  22
HETATM   22  C   UNK N   1      25.620  14.584   6.211  0.00  0.00     0.033 A 
HETATM   23  C   UNK N   1      26.253  15.670   6.825  0.00  0.00     0.041 A 
HETATM   24  C   UNK N   1      27.539  16.070   6.444  0.00  0.00     0.006 A 
HETATM   25  C   UNK N   1      28.219  15.358   5.445  0.00  0.00     0.082 A 
HETATM   26  C   UNK N   1      27.590  14.274   4.815  0.00  0.00     0.006 A 
HETATM   27  C   UNK N   1      26.300  13.903   5.204  0.00  0.00     0.041 A 
BRANCH  24  28
HETATM   28  C   UNK N   1      28.201  17.215   7.147  0.00  0.00     0.313 C 
BRANCH  28  29
HETATM   29  N   UNK N   1      28.894  16.766   8.351  0.00  0.00     0.092 N 
HETATM   30  C   UNK N   1      30.315  17.040   8.170  0.00  0.00     0.273 C 
HETATM   31  C   UNK N   1      30.643  18.380   8.806  0.00  0.00     0.032 C 
HETATM   32  C   UNK N   1      29.368  18.841   9.464  0.00  0.00     0.032 C 
HETATM   33  C   UNK N   1      28.474  17.620   9.457  0.00  0.00     0.273 C 
ENDBRANCH  28  29
ENDBRANCH  24  28
BRANCH  25  34
HETATM   34  O   UNK N   1      29.472  15.709   5.099  0.00  0.00    -0.359 OA
HETATM   35  H   UNK N   1      30.107  15.119   4.743  0.00  0.00     0.217 HD
ENDBRANCH  25  34
BRANCH  26  36
HETATM   36  C   UNK N   1      28.312  13.458   3.782  0.00  0.00     0.313 C 
BRANCH  36  37
HETATM   37  N   UNK N   1      27.806  13.668   2.424  0.00  0.00     0.092 N 
HETATM   38  C   UNK N   1      28.973  13.785   1.558  0.00  0.00     0.273 C 
HETATM   39  C   UNK N   1      29.261  12.424   0.943  0.00  0.00     0.032 C 
HETATM   40  C   UNK N   1      28.121  11.535   1.369  0.00  0.00     0.032 C 
HETATM   41  C   UNK N   1      27.099  12.485   1.942  0.00  0.00     0.273 C 
ENDBRANCH  36  37
ENDBRANCH  26  36
ENDBRANCH   1  22
TORSDOF 8
ENDMDL
MODEL 7
REMARK VINA RESULT:      -7.2      2.608      6.093
REMARK  8 active torsions:
REMARK  status: ('A' for Active; 'I' for Inactive)
REMARK    1  A    between atoms: O_2  and  C_3 
REMARK    2  A    between atoms: C_10  and  N_20 
REMARK    3  A    between atoms: N_20  and  C_21 
REMARK    4  A    between atoms: C_23  and  C_34 
REMARK    5  A    between atoms: C_24  and  O_33 
REMARK    6  A    between atoms: C_25  and  C_27 
REMARK    7  A    between atoms: C_27  and  N_28 
REMARK    8  A    between atoms: C_34  and  N_35 
ROOT
HETATM    1  N   UNK N   1      26.362  15.853   6.631  0.00  0.00    -0.354 N 
HETATM    2  H   UNK N   1      26.273  16.215   7.543  0.00  0.00     0.166 HD
ENDROOT
BRANCH   1   3
HETATM    3  C   UNK N   1      27.138  16.690   5.756  0.00  0.00     0.074 A 
HETATM    4  C   UNK N   1      28.552  16.631   5.601  0.00  0.00     0.089 A 
HETATM    5  C   UNK N   1      29.199  17.573   4.768  0.00  0.00     0.062 A 
HETATM    6  N   UNK N   1      29.302  15.686   6.216  0.00  0.00    -0.333 N 
HETATM    7  C   UNK N   1      30.585  17.528   4.625  0.00  0.00     0.036 A 
HETATM    8  N   UNK N   1      28.487  18.517   4.107  0.00  0.00    -0.354 N 
HETATM    9  C   UNK N   1      31.320  16.549   5.288  0.00  0.00     0.058 A 
HETATM   10  C   UNK N   1      30.653  15.611   6.090  0.00  0.00     0.142 A 
HETATM   11  C   UNK N   1      27.137  18.589   4.208  0.00  0.00     0.046 A 
ATOM     12  HN  UNK N   1      28.979  19.192   3.520  1.00  0.00     0.166 HD
HETATM   13  C   UNK N   1      26.444  19.577   3.505  0.00  0.00     0.054 A 
HETATM   14  C   UNK N   1      26.437  17.675   5.028  0.00  0.00     0.020 A 
HETATM   15  C   UNK N   1      25.053  19.667   3.606  0.00  0.00     0.036 A 
HETATM   16  C   UNK N   1      24.351  18.769   4.413  0.00  0.00     0.025 A 
HETATM   17 Cl   UNK N   1      24.192  20.910   2.724  0.00  0.00    -0.084 Cl
HETATM   18  C   UNK N   1      25.038  17.782   5.123  0.00  0.00     0.018 A 
ATOM     19  HN  UNK N   1      28.830  14.996   6.802  1.00  0.00     0.168 HD
BRANCH  10  20
HETATM   20  O   UNK N   1      31.319  14.631   6.743  0.00  0.00    -0.341 OA
HETATM   21  C   UNK N   1      32.285  14.876   7.692  0.00  0.00     0.211 C 
ENDBRANCH  10  20
ENDBRANCH   1   3
BRANCH   1  22
HETATM   22  C   UNK N   1      25.696  14.604   6.446  0.00  0.00     0.033 A 
HETATM   23  C   UNK N   1      25.599  13.933   5.222  0.00  0.00     0.041 A 
HETATM   24  C   UNK N   1      25.019  12.662   5.135  0.00  0.00     0.006 A 
HETATM   25  C   UNK N   1      24.546  12.035   6.297  0.00  0.00     0.082 A 
HETATM   26  C   UNK N   1      24.627  12.702   7.528  0.00  0.00     0.006 A 
HETATM   27  C   UNK N   1      25.198  13.977   7.586  0.00  0.00     0.041 A 
BRANCH  24  28
HETATM   28  C   UNK N   1      24.965  11.958   3.814  0.00  0.00     0.313 C 
BRANCH  28  29
HETATM   29  N   UNK N   1      25.608  12.747   2.768  0.00  0.00     0.092 N 
HETATM   30  C   UNK N   1      26.793  12.017   2.331  0.00  0.00     0.273 C 
HETATM   31  C   UNK N   1      26.438  11.186   1.111  0.00  0.00     0.032 C 
HETATM   32  C   UNK N   1      25.010  11.536   0.782  0.00  0.00     0.032 C 
HETATM   33  C   UNK N   1      24.721  12.769   1.610  0.00  0.00     0.273 C 
ENDBRANCH  28  29
ENDBRANCH  24  28
BRANCH  25  34
HETATM   34  O   UNK N   1      24.023  10.796   6.231  0.00  0.00    -0.359 OA
HETATM   35  H   UNK N   1      24.470  10.019   6.503  0.00  0.00     0.217 HD
ENDBRANCH  25  34
BRANCH  26  36
HETATM   36  C   UNK N   1      24.181  12.036   8.796  0.00  0.00     0.313 C 
BRANCH  36  37
HETATM   37  N   UNK N   1      24.009  12.971   9.910  0.00  0.00     0.092 N 
HETATM   38  C   UNK N   1      22.586  13.279   9.980  0.00  0.00     0.273 C 
HETATM   39  C   UNK N   1      21.940  12.366  11.010  0.00  0.00     0.032 C 
HETATM   40  C   UNK N   1      23.074  11.609  11.652  0.00  0.00     0.032 C 
HETATM   41  C   UNK N   1      24.316  12.329  11.184  0.00  0.00     0.273 C 
ENDBRANCH  36  37
ENDBRANCH  26  36
ENDBRANCH   1  22
TORSDOF 8
ENDMDL
MODEL 8
REMARK VINA RESULT:      -7.2      3.540      5.700
REMARK  8 active torsions:
REMARK  status: ('A' for Active; 'I' for Inactive)
REMARK    1  A    between atoms: O_2  and  C_3 
REMARK    2  A    between atoms: C_10  and  N_20 
REMARK    3  A    between atoms: N_20  and  C_21 
REMARK    4  A    between atoms: C_23  and  C_34 
REMARK    5  A    between atoms: C_24  and  O_33 
REMARK    6  A    between atoms: C_25  and  C_27 
REMARK    7  A    between atoms: C_27  and  N_28 
REMARK    8  A    between atoms: C_34  and  N_35 
ROOT
HETATM    1  N   UNK N   1      26.550  16.699   4.658  0.00  0.00    -0.354 N 
HETATM    2  H   UNK N   1      26.586  17.507   4.096  0.00  0.00     0.166 HD
ENDROOT
BRANCH   1   3
HETATM    3  C   UNK N   1      27.826  16.056   4.818  0.00  0.00     0.074 A 
HETATM    4  C   UNK N   1      28.797  16.390   5.803  0.00  0.00     0.089 A 
HETATM    5  C   UNK N   1      30.049  15.731   5.794  0.00  0.00     0.062 A 
HETATM    6  N   UNK N   1      28.555  17.311   6.765  0.00  0.00    -0.333 N 
HETATM    7  C   UNK N   1      31.010  16.066   6.748  0.00  0.00     0.036 A 
HETATM    8  N   UNK N   1      30.324  14.780   4.870  0.00  0.00    -0.354 N 
HETATM    9  C   UNK N   1      30.726  17.031   7.710  0.00  0.00     0.058 A 
HETATM   10  C   UNK N   1      29.468  17.652   7.713  0.00  0.00     0.142 A 
HETATM   11  C   UNK N   1      29.415  14.415   3.934  0.00  0.00     0.046 A 
ATOM     12  HN  UNK N   1      31.239  14.327   4.879  1.00  0.00     0.166 HD
HETATM   13  C   UNK N   1      29.742  13.425   3.002  0.00  0.00     0.054 A 
HETATM   14  C   UNK N   1      28.149  15.040   3.892  0.00  0.00     0.020 A 
HETATM   15  C   UNK N   1      28.817  13.045   2.026  0.00  0.00     0.036 A 
HETATM   16  C   UNK N   1      27.562  13.657   1.977  0.00  0.00     0.025 A 
HETATM   17 Cl   UNK N   1      29.235  11.807   0.862  0.00  0.00    -0.084 Cl
HETATM   18  C   UNK N   1      27.230  14.650   2.901  0.00  0.00     0.018 A 
ATOM     19  HN  UNK N   1      27.645  17.771   6.780  1.00  0.00     0.168 HD
BRANCH  10  20
HETATM   20  O   UNK N   1      29.137  18.585   8.635  0.00  0.00    -0.341 OA
HETATM   21  C   UNK N   1      29.706  18.646   9.887  0.00  0.00     0.211 C 
ENDBRANCH  10  20
ENDBRANCH   1   3
BRANCH   1  22
HETATM   22  C   UNK N   1      25.241  16.405   5.148  0.00  0.00     0.033 A 
HETATM   23  C   UNK N   1      24.954  15.401   6.079  0.00  0.00     0.041 A 
HETATM   24  C   UNK N   1      23.662  15.236   6.593  0.00  0.00     0.006 A 
HETATM   25  C   UNK N   1      22.638  16.105   6.188  0.00  0.00     0.082 A 
HETATM   26  C   UNK N   1      22.912  17.107   5.245  0.00  0.00     0.006 A 
HETATM   27  C   UNK N   1      24.207  17.243   4.737  0.00  0.00     0.041 A 
BRANCH  24  28
HETATM   28  C   UNK N   1      23.398  14.174   7.616  0.00  0.00     0.313 C 
BRANCH  28  29
HETATM   29  N   UNK N   1      24.554  13.298   7.779  0.00  0.00     0.092 N 
HETATM   30  C   UNK N   1      24.936  13.330   9.187  0.00  0.00     0.273 C 
HETATM   31  C   UNK N   1      24.286  12.157   9.899  0.00  0.00     0.032 C 
HETATM   32  C   UNK N   1      23.582  11.368   8.826  0.00  0.00     0.032 C 
HETATM   33  C   UNK N   1      24.121  11.928   7.527  0.00  0.00     0.273 C 
ENDBRANCH  28  29
ENDBRANCH  24  28
BRANCH  25  34
HETATM   34  O   UNK N   1      21.402  15.981   6.705  0.00  0.00    -0.359 OA
HETATM   35  H   UNK N   1      20.847  15.237   6.574  0.00  0.00     0.217 HD
ENDBRANCH  25  34
BRANCH  26  36
HETATM   36  C   UNK N   1      21.852  18.087   4.833  0.00  0.00     0.313 C 
BRANCH  36  37
HETATM   37  N   UNK N   1      21.874  18.392   3.400  0.00  0.00     0.092 N 
HETATM   38  C   UNK N   1      20.603  17.928   2.857  0.00  0.00     0.273 C 
HETATM   39  C   UNK N   1      19.637  19.102   2.810  0.00  0.00     0.032 C 
HETATM   40  C   UNK N   1      20.444  20.310   3.211  0.00  0.00     0.032 C 
HETATM   41  C   UNK N   1      21.875  19.834   3.173  0.00  0.00     0.273 C 
ENDBRANCH  36  37
ENDBRANCH  26  36
ENDBRANCH   1  22
TORSDOF 8
ENDMDL
MODEL 9
REMARK VINA RESULT:      -7.2     14.079     15.877
REMARK  8 active torsions:
REMARK  status: ('A' for Active; 'I' for Inactive)
REMARK    1  A    between atoms: O_2  and  C_3 
REMARK    2  A    between atoms: C_10  and  N_20 
REMARK    3  A    between atoms: N_20  and  C_21 
REMARK    4  A    between atoms: C_23  and  C_34 
REMARK    5  A    between atoms: C_24  and  O_33 
REMARK    6  A    between atoms: C_25  and  C_27 
REMARK    7  A    between atoms: C_27  and  N_28 
REMARK    8  A    between atoms: C_34  and  N_35 
ROOT
HETATM    1  N   UNK N   1      28.539  23.850  -4.467  0.00  0.00    -0.354 N 
HETATM    2  H   UNK N   1      28.255  23.214  -3.770  0.00  0.00     0.166 HD
ENDROOT
BRANCH   1   3
HETATM    3  C   UNK N   1      27.450  24.352  -5.261  0.00  0.00     0.074 A 
HETATM    4  C   UNK N   1      26.695  25.524  -4.976  0.00  0.00     0.089 A 
HETATM    5  C   UNK N   1      25.593  25.856  -5.798  0.00  0.00     0.062 A 
HETATM    6  N   UNK N   1      27.009  26.347  -3.948  0.00  0.00    -0.333 N 
HETATM    7  C   UNK N   1      24.841  26.996  -5.513  0.00  0.00     0.036 A 
HETATM    8  N   UNK N   1      25.260  25.081  -6.857  0.00  0.00    -0.354 N 
HETATM    9  C   UNK N   1      25.189  27.806  -4.435  0.00  0.00     0.058 A 
HETATM   10  C   UNK N   1      26.301  27.468  -3.650  0.00  0.00     0.142 A 
HETATM   11  C   UNK N   1      25.971  23.973  -7.177  0.00  0.00     0.046 A 
ATOM     12  HN  UNK N   1      24.454  25.337  -7.429  1.00  0.00     0.166 HD
HETATM   13  C   UNK N   1      25.594  23.205  -8.282  0.00  0.00     0.054 A 
HETATM   14  C   UNK N   1      27.081  23.589  -6.391  0.00  0.00     0.020 A 
HETATM   15  C   UNK N   1      26.313  22.055  -8.618  0.00  0.00     0.036 A 
HETATM   16  C   UNK N   1      27.412  21.668  -7.848  0.00  0.00     0.025 A 
HETATM   17 Cl   UNK N   1      25.832  21.097 -10.002  0.00  0.00    -0.084 Cl
HETATM   18  C   UNK N   1      27.792  22.427  -6.739  0.00  0.00     0.018 A 
ATOM     19  HN  UNK N   1      27.816  26.114  -3.368  1.00  0.00     0.168 HD
BRANCH  10  20
HETATM   20  O   UNK N   1      26.689  28.230  -2.602  0.00  0.00    -0.341 OA
HETATM   21  C   UNK N   1      27.577  29.276  -2.713  0.00  0.00     0.211 C 
ENDBRANCH  10  20
ENDBRANCH   1   3
BRANCH   1  22
HETATM   22  C   UNK N   1      29.947  24.088  -4.481  0.00  0.00     0.033 A 
HETATM   23  C   UNK N   1      30.912  23.099  -4.696  0.00  0.00     0.041 A 
HETATM   24  C   UNK N   1      32.271  23.421  -4.799  0.00  0.00     0.006 A 
HETATM   25  C   UNK N   1      32.674  24.761  -4.710  0.00  0.00     0.082 A 
HETATM   26  C   UNK N   1      31.716  25.760  -4.483  0.00  0.00     0.006 A 
HETATM   27  C   UNK N   1      30.367  25.411  -4.371  0.00  0.00     0.041 A 
BRANCH  24  28
HETATM   28  C   UNK N   1      33.274  22.340  -5.066  0.00  0.00     0.313 C 
BRANCH  28  29
HETATM   29  N   UNK N   1      32.840  21.066  -4.502  0.00  0.00     0.092 N 
HETATM   30  C   UNK N   1      32.792  20.096  -5.590  0.00  0.00     0.273 C 
HETATM   31  C   UNK N   1      34.101  19.328  -5.623  0.00  0.00     0.032 C 
HETATM   32  C   UNK N   1      34.890  19.818  -4.436  0.00  0.00     0.032 C 
HETATM   33  C   UNK N   1      33.887  20.589  -3.606  0.00  0.00     0.273 C 
ENDBRANCH  28  29
ENDBRANCH  24  28
BRANCH  25  34
HETATM   34  O   UNK N   1      33.973  25.087  -4.848  0.00  0.00    -0.359 OA
HETATM   35  H   UNK N   1      34.344  25.905  -4.581  0.00  0.00     0.217 HD
ENDBRANCH  25  34
BRANCH  26  36
HETATM   36  C   UNK N   1      32.109  27.209  -4.439  0.00  0.00     0.313 C 
BRANCH  36  37
HETATM   37  N   UNK N   1      31.036  28.083  -3.958  0.00  0.00     0.092 N 
HETATM   38  C   UNK N   1      31.338  28.383  -2.564  0.00  0.00     0.273 C 
HETATM   39  C   UNK N   1      32.073  29.712  -2.500  0.00  0.00     0.032 C 
HETATM   40  C   UNK N   1      32.059  30.254  -3.907  0.00  0.00     0.032 C 
HETATM   41  C   UNK N   1      31.072  29.375  -4.636  0.00  0.00     0.273 C 
ENDBRANCH  36  37
ENDBRANCH  26  36
ENDBRANCH   1  22
TORSDOF 8
ENDMDL
