REMARK  4 active torsions:
REMARK  status: ('A' for Active; 'I' for Inactive)
REMARK    1  A    between atoms: C_11  and  C_6 
REMARK    2  A    between atoms: C_12  and  C_6 
REMARK    3  A    between atoms: N_19  and  C_11 
REMARK    4  A    between atoms: N_20  and  C_12 
ROOT
HETATM    1  C   UNK N   1       2.769  -0.189  -0.006  0.00  0.00     0.002 A 
HETATM    2  C   UNK N   1       4.043   0.343   0.161  0.00  0.00     0.002 A 
HETATM    3  C   UNK N   1       0.601   7.113  -0.093  0.00  0.00     0.018 A 
HETATM    4  C   UNK N   1       1.674   0.663  -0.148  0.00  0.00     0.031 A 
HETATM    5  C   UNK N   1       4.217   1.724   0.184  0.00  0.00     0.021 A 
HETATM    6  C   UNK N   1       1.820   6.454   0.012  0.00  0.00     0.024 A 
HETATM    7  C   UNK N   1      -0.557   6.366  -0.260  0.00  0.00     0.090 A 
HETATM    8  C   UNK N   1       1.825   2.065  -0.127  0.00  0.00     0.053 A 
HETATM    9  C   UNK N   1       3.127   2.593   0.044  0.00  0.00     0.032 A 
HETATM   10  C   UNK N   1       1.885   5.058  -0.044  0.00  0.00     0.050 A 
HETATM   11  C   UNK N   1       0.691   4.324  -0.208  0.00  0.00     0.125 A 
HETATM   12  N   UNK N   1      -0.486   5.011  -0.315  0.00  0.00    -0.351 N 
ATOM     13  HN  UNK N   1      -1.349   4.482  -0.441  1.00  0.00     0.166 HD
HETATM   14  N   UNK N   1       0.661   2.892  -0.263  0.00  0.00    -0.331 N 
HETATM   15  S   UNK N   1       3.509   4.335   0.089  0.00  0.00    -0.084 SA
ENDROOT
BRANCH  14  16
HETATM   16  C   UNK N   1      -0.631   2.244  -0.452  0.00  0.00     0.133 C 
BRANCH  16  17
HETATM   17  C   UNK N   1      -1.491   2.414   0.792  0.00  0.00     0.050 C 
BRANCH  17  18
HETATM   18  C   UNK N   1      -2.948   2.016   0.554  0.00  0.00     0.273 C 
BRANCH  18  19
HETATM   19  N   UNK N   1      -3.656   2.951  -0.318  0.00  0.00     0.080 N 
HETATM   20  C   UNK N   1      -5.044   2.526  -0.335  0.00  0.00     0.309 C 
HETATM   21  C   UNK N   1      -3.650   4.279   0.278  0.00  0.00     0.309 C 
ENDBRANCH  18  19
ENDBRANCH  17  18
ENDBRANCH  16  17
ENDBRANCH  14  16
TORSDOF 4
