MODEL 1
REMARK VINA RESULT:      -8.1      0.000      0.000
REMARK  9 active torsions:
REMARK  status: ('A' for Active; 'I' for Inactive)
REMARK    1  A    between atoms: C_2  and  N_3 
REMARK    2  A    between atoms: N_3  and  C_4 
REMARK    3  A    between atoms: N_3  and  C_37 
REMARK    4  A    between atoms: C_6  and  C_24 
REMARK    5  A    between atoms: C_8  and  C_11 
REMARK       I    between atoms: C_11  and  N_13 
REMARK    6  A    between atoms: N_13  and  C_14 
REMARK    7  A    between atoms: C_14  and  C_15 
REMARK    8  A    between atoms: C_27  and  C_30 
REMARK    9  A    between atoms: C_30  and  N_31 
ROOT
HETATM    1  C   UNK N   1      23.180  14.008   6.531  0.00  0.00     0.038 A 
HETATM    2  C   UNK N   1      24.549  14.256   6.357  0.00  0.00     0.042 A 
HETATM    3  C   UNK N   1      25.044  15.518   6.084  0.00  0.00    -0.023 A 
HETATM    4  C   UNK N   1      24.162  16.576   5.905  0.00  0.00     0.030 A 
HETATM    5  C   UNK N   1      22.785  16.408   5.995  0.00  0.00     0.041 A 
HETATM    6  C   UNK N   1      22.288  15.120   6.366  0.00  0.00    -0.020 A 
HETATM    7  C   UNK N   1      20.884  15.002   6.747  0.00  0.00     0.052 C 
ENDROOT
BRANCH   5   8
HETATM    8  C   UNK N   1      21.951  17.653   5.769  0.00  0.00     0.252 C 
HETATM    9  O   UNK N   1      21.620  18.299   6.751  0.00  0.00    -0.268 OA
HETATM   10  N   UNK N   1      21.626  18.161   4.543  0.00  0.00    -0.352 N 
HETATM   11  H   UNK N   1      20.934  18.861   4.508  0.00  0.00     0.163 HD
BRANCH  10  12
HETATM   12  C   UNK N   1      22.222  17.747   3.297  0.00  0.00     0.167 C 
BRANCH  12  13
HETATM   13  C   UNK N   1      21.405  16.710   2.566  0.00  0.00     0.033 A 
HETATM   14  C   UNK N   1      21.927  15.417   2.343  0.00  0.00    -0.047 A 
HETATM   15  C   UNK N   1      21.126  14.433   1.760  0.00  0.00     0.032 A 
HETATM   16  C   UNK N   1      23.325  15.067   2.732  0.00  0.00     0.049 C 
HETATM   17  C   UNK N   1      19.815  14.732   1.397  0.00  0.00     0.009 A 
HETATM   18  N   UNK N   1      19.327  15.987   1.579  0.00  0.00    -0.327 N 
HETATM   19  C   UNK N   1      18.939  13.678   0.824  0.00  0.00     0.068 C 
HETATM   20  C   UNK N   1      20.086  16.973   2.142  0.00  0.00     0.254 A 
HETATM   21  H   UNK N   1      18.406  16.190   1.299  0.00  0.00     0.169 HD
HETATM   22  O   UNK N   1      19.598  18.083   2.282  0.00  0.00    -0.268 OA
ENDBRANCH  12  13
ENDBRANCH  10  12
ENDBRANCH   5   8
BRANCH   3  23
HETATM   23  C   UNK N   1      26.479  15.742   5.904  0.00  0.00    -0.026 A 
HETATM   24  C   UNK N   1      27.103  16.877   6.445  0.00  0.00     0.013 A 
HETATM   25  C   UNK N   1      28.498  16.943   6.489  0.00  0.00     0.010 A 
HETATM   26  C   UNK N   1      29.257  15.900   5.947  0.00  0.00    -0.030 A 
HETATM   27  C   UNK N   1      28.633  14.838   5.297  0.00  0.00     0.010 A 
HETATM   28  C   UNK N   1      27.253  14.747   5.297  0.00  0.00     0.013 A 
BRANCH  26  29
HETATM   29  C   UNK N   1      30.707  15.795   6.272  0.00  0.00     0.311 C 
BRANCH  29  30
HETATM   30  N   UNK N   1      31.385  17.113   6.276  0.00  0.00     0.096 N 
HETATM   31  C   UNK N   1      32.027  17.408   4.989  0.00  0.00     0.299 C 
HETATM   32  C   UNK N   1      33.501  16.995   4.994  0.00  0.00     0.198 C 
HETATM   33  O   UNK N   1      34.167  17.670   6.028  0.00  0.00    -0.388 OA
HETATM   34  C   UNK N   1      33.711  17.095   7.224  0.00  0.00     0.198 C 
HETATM   35  C   UNK N   1      32.227  17.443   7.453  0.00  0.00     0.299 C 
ENDBRANCH  29  30
ENDBRANCH  26  29
ENDBRANCH   3  23
BRANCH   1  36
HETATM   36  N   UNK N   1      22.807  12.659   6.936  0.00  0.00    -0.376 N 
BRANCH  36  37
HETATM   37  C   UNK N   1      22.507  11.698   5.887  0.00  0.00     0.119 C 
HETATM   38  C   UNK N   1      21.029  11.368   5.836  0.00  0.00     0.026 C 
ENDBRANCH  36  37
BRANCH  36  39
HETATM   39  C   UNK N   1      22.716  12.115   8.294  0.00  0.00     0.088 C 
HETATM   40  C   UNK N   1      21.631  12.509   9.309  0.00  0.00     0.051 C 
HETATM   41  C   UNK N   1      22.298  13.046  10.596  0.00  0.00     0.169 C 
HETATM   42  O   UNK N   1      23.340  12.208  11.034  0.00  0.00    -0.391 OA
HETATM   43  C   UNK N   1      24.379  12.338  10.100  0.00  0.00     0.169 C 
HETATM   44  C   UNK N   1      24.013  11.546   8.861  0.00  0.00     0.051 C 
ENDBRANCH  36  39
ENDBRANCH   1  36
TORSDOF 9
ENDMDL
MODEL 2
REMARK VINA RESULT:      -8.0      2.164      6.192
REMARK  9 active torsions:
REMARK  status: ('A' for Active; 'I' for Inactive)
REMARK    1  A    between atoms: C_2  and  N_3 
REMARK    2  A    between atoms: N_3  and  C_4 
REMARK    3  A    between atoms: N_3  and  C_37 
REMARK    4  A    between atoms: C_6  and  C_24 
REMARK    5  A    between atoms: C_8  and  C_11 
REMARK       I    between atoms: C_11  and  N_13 
REMARK    6  A    between atoms: N_13  and  C_14 
REMARK    7  A    between atoms: C_14  and  C_15 
REMARK    8  A    between atoms: C_27  and  C_30 
REMARK    9  A    between atoms: C_30  and  N_31 
ROOT
HETATM    1  C   UNK N   1      21.193  16.736   3.649  0.00  0.00     0.038 A 
HETATM    2  C   UNK N   1      22.575  16.971   3.672  0.00  0.00     0.042 A 
HETATM    3  C   UNK N   1      23.282  17.118   4.851  0.00  0.00    -0.023 A 
HETATM    4  C   UNK N   1      22.603  17.105   6.063  0.00  0.00     0.030 A 
HETATM    5  C   UNK N   1      21.223  16.943   6.131  0.00  0.00     0.041 A 
HETATM    6  C   UNK N   1      20.515  16.701   4.913  0.00  0.00    -0.020 A 
HETATM    7  C   UNK N   1      19.132  16.243   4.996  0.00  0.00     0.052 C 
ENDROOT
BRANCH   5   8
HETATM    8  C   UNK N   1      20.624  16.957   7.523  0.00  0.00     0.252 C 
HETATM    9  O   UNK N   1      20.102  17.993   7.905  0.00  0.00    -0.268 OA
HETATM   10  N   UNK N   1      20.537  15.869   8.344  0.00  0.00    -0.352 N 
HETATM   11  H   UNK N   1      20.300  16.026   9.287  0.00  0.00     0.163 HD
BRANCH  10  12
HETATM   12  C   UNK N   1      20.766  14.506   7.931  0.00  0.00     0.167 C 
BRANCH  12  13
HETATM   13  C   UNK N   1      21.516  13.695   8.959  0.00  0.00     0.033 A 
HETATM   14  C   UNK N   1      22.897  13.445   8.801  0.00  0.00    -0.047 A 
HETATM   15  C   UNK N   1      23.604  12.784   9.807  0.00  0.00     0.032 A 
HETATM   16  C   UNK N   1      23.631  13.887   7.580  0.00  0.00     0.049 C 
HETATM   17  C   UNK N   1      22.943  12.369  10.962  0.00  0.00     0.009 A 
HETATM   18  N   UNK N   1      21.608  12.578  11.094  0.00  0.00    -0.327 N 
HETATM   19  C   UNK N   1      23.697  11.712  12.060  0.00  0.00     0.068 C 
HETATM   20  C   UNK N   1      20.886  13.218  10.127  0.00  0.00     0.254 A 
HETATM   21  H   UNK N   1      21.149  12.262  11.906  0.00  0.00     0.169 HD
HETATM   22  O   UNK N   1      19.687  13.379  10.296  0.00  0.00    -0.268 OA
ENDBRANCH  12  13
ENDBRANCH  10  12
ENDBRANCH   5   8
BRANCH   3  23
HETATM   23  C   UNK N   1      24.724  17.367   4.840  0.00  0.00    -0.026 A 
HETATM   24  C   UNK N   1      25.229  18.667   4.678  0.00  0.00     0.013 A 
HETATM   25  C   UNK N   1      26.579  18.918   4.928  0.00  0.00     0.010 A 
HETATM   26  C   UNK N   1      27.425  17.863   5.288  0.00  0.00    -0.030 A 
HETATM   27  C   UNK N   1      26.946  16.556   5.320  0.00  0.00     0.010 A 
HETATM   28  C   UNK N   1      25.599  16.313   5.122  0.00  0.00     0.013 A 
BRANCH  26  29
HETATM   29  C   UNK N   1      28.765  18.155   5.869  0.00  0.00     0.311 C 
BRANCH  29  30
HETATM   30  N   UNK N   1      29.178  17.152   6.878  0.00  0.00     0.096 N 
HETATM   31  C   UNK N   1      29.009  17.646   8.250  0.00  0.00     0.299 C 
HETATM   32  C   UNK N   1      30.303  18.262   8.785  0.00  0.00     0.198 C 
HETATM   33  O   UNK N   1      31.325  17.301   8.744  0.00  0.00    -0.388 OA
HETATM   34  C   UNK N   1      31.638  17.125   7.388  0.00  0.00     0.198 C 
HETATM   35  C   UNK N   1      30.464  16.447   6.652  0.00  0.00     0.299 C 
ENDBRANCH  29  30
ENDBRANCH  26  29
ENDBRANCH   3  23
BRANCH   1  36
HETATM   36  N   UNK N   1      20.596  16.477   2.346  0.00  0.00    -0.376 N 
BRANCH  36  37
HETATM   37  C   UNK N   1      19.937  17.584   1.672  0.00  0.00     0.119 C 
HETATM   38  C   UNK N   1      20.581  18.912   2.018  0.00  0.00     0.026 C 
ENDBRANCH  36  37
BRANCH  36  39
HETATM   39  C   UNK N   1      20.593  15.223   1.586  0.00  0.00     0.088 C 
HETATM   40  C   UNK N   1      19.450  14.196   1.625  0.00  0.00     0.051 C 
HETATM   41  C   UNK N   1      20.007  12.819   2.057  0.00  0.00     0.169 C 
HETATM   42  O   UNK N   1      21.175  12.483   1.348  0.00  0.00    -0.391 OA
HETATM   43  C   UNK N   1      22.182  13.351   1.798  0.00  0.00     0.169 C 
HETATM   44  C   UNK N   1      21.965  14.708   1.162  0.00  0.00     0.051 C 
ENDBRANCH  36  39
ENDBRANCH   1  36
TORSDOF 9
ENDMDL
MODEL 3
REMARK VINA RESULT:      -7.9      3.662      9.114
REMARK  9 active torsions:
REMARK  status: ('A' for Active; 'I' for Inactive)
REMARK    1  A    between atoms: C_2  and  N_3 
REMARK    2  A    between atoms: N_3  and  C_4 
REMARK    3  A    between atoms: N_3  and  C_37 
REMARK    4  A    between atoms: C_6  and  C_24 
REMARK    5  A    between atoms: C_8  and  C_11 
REMARK       I    between atoms: C_11  and  N_13 
REMARK    6  A    between atoms: N_13  and  C_14 
REMARK    7  A    between atoms: C_14  and  C_15 
REMARK    8  A    between atoms: C_27  and  C_30 
REMARK    9  A    between atoms: C_30  and  N_31 
ROOT
HETATM    1  C   UNK N   1      30.915  15.945   6.534  0.00  0.00     0.038 A 
HETATM    2  C   UNK N   1      30.105  15.218   5.650  0.00  0.00     0.042 A 
HETATM    3  C   UNK N   1      28.727  15.339   5.638  0.00  0.00    -0.023 A 
HETATM    4  C   UNK N   1      28.103  16.154   6.574  0.00  0.00     0.030 A 
HETATM    5  C   UNK N   1      28.824  16.862   7.529  0.00  0.00     0.041 A 
HETATM    6  C   UNK N   1      30.251  16.801   7.476  0.00  0.00    -0.020 A 
HETATM    7  C   UNK N   1      31.016  17.755   8.272  0.00  0.00     0.052 C 
ENDROOT
BRANCH   5   8
HETATM    8  C   UNK N   1      28.004  17.704   8.486  0.00  0.00     0.252 C 
HETATM    9  O   UNK N   1      27.648  17.186   9.534  0.00  0.00    -0.268 OA
HETATM   10  N   UNK N   1      27.717  19.028   8.310  0.00  0.00    -0.352 N 
HETATM   11  H   UNK N   1      27.031  19.428   8.892  0.00  0.00     0.163 HD
BRANCH  10  12
HETATM   12  C   UNK N   1      28.347  19.883   7.334  0.00  0.00     0.167 C 
BRANCH  12  13
HETATM   13  C   UNK N   1      27.501  20.097   6.103  0.00  0.00     0.033 A 
HETATM   14  C   UNK N   1      27.903  19.562   4.859  0.00  0.00    -0.047 A 
HETATM   15  C   UNK N   1      27.065  19.675   3.748  0.00  0.00     0.032 A 
HETATM   16  C   UNK N   1      29.209  18.857   4.703  0.00  0.00     0.049 C 
HETATM   17  C   UNK N   1      25.836  20.320   3.870  0.00  0.00     0.009 A 
HETATM   18  N   UNK N   1      25.469  20.866   5.058  0.00  0.00    -0.327 N 
HETATM   19  C   UNK N   1      24.914  20.400   2.708  0.00  0.00     0.068 C 
HETATM   20  C   UNK N   1      26.267  20.777   6.162  0.00  0.00     0.254 A 
HETATM   21  H   UNK N   1      24.607  21.337   5.125  0.00  0.00     0.169 HD
HETATM   22  O   UNK N   1      25.889  21.287   7.206  0.00  0.00    -0.268 OA
ENDBRANCH  12  13
ENDBRANCH  10  12
ENDBRANCH   5   8
BRANCH   3  23
HETATM   23  C   UNK N   1      27.910  14.561   4.706  0.00  0.00    -0.026 A 
HETATM   24  C   UNK N   1      27.212  13.423   5.138  0.00  0.00     0.013 A 
HETATM   25  C   UNK N   1      26.243  12.852   4.310  0.00  0.00     0.010 A 
HETATM   26  C   UNK N   1      26.014  13.390   3.039  0.00  0.00    -0.030 A 
HETATM   27  C   UNK N   1      26.800  14.439   2.567  0.00  0.00     0.010 A 
HETATM   28  C   UNK N   1      27.725  15.036   3.404  0.00  0.00     0.013 A 
BRANCH  26  29
HETATM   29  C   UNK N   1      24.785  13.014   2.287  0.00  0.00     0.311 C 
BRANCH  29  30
HETATM   30  N   UNK N   1      23.919  14.180   1.993  0.00  0.00     0.096 N 
HETATM   31  C   UNK N   1      23.080  14.548   3.139  0.00  0.00     0.299 C 
HETATM   32  C   UNK N   1      21.700  13.893   3.053  0.00  0.00     0.198 C 
HETATM   33  O   UNK N   1      21.076  14.281   1.858  0.00  0.00    -0.388 OA
HETATM   34  C   UNK N   1      21.764  13.621   0.829  0.00  0.00     0.198 C 
HETATM   35  C   UNK N   1      23.195  14.181   0.697  0.00  0.00     0.299 C 
ENDBRANCH  29  30
ENDBRANCH  26  29
ENDBRANCH   3  23
BRANCH   1  36
HETATM   36  N   UNK N   1      32.355  15.816   6.357  0.00  0.00    -0.376 N 
BRANCH  36  37
HETATM   37  C   UNK N   1      33.130  15.304   7.476  0.00  0.00     0.119 C 
HETATM   38  C   UNK N   1      32.651  13.932   7.906  0.00  0.00     0.026 C 
ENDBRANCH  36  37
BRANCH  36  39
HETATM   39  C   UNK N   1      33.150  16.113   5.161  0.00  0.00     0.088 C 
HETATM   40  C   UNK N   1      32.945  17.353   4.278  0.00  0.00     0.051 C 
HETATM   41  C   UNK N   1      32.674  16.911   2.821  0.00  0.00     0.169 C 
HETATM   42  O   UNK N   1      33.595  15.938   2.391  0.00  0.00    -0.391 OA
HETATM   43  C   UNK N   1      33.300  14.765   3.103  0.00  0.00     0.169 C 
HETATM   44  C   UNK N   1      33.833  14.913   4.513  0.00  0.00     0.051 C 
ENDBRANCH  36  39
ENDBRANCH   1  36
TORSDOF 9
ENDMDL
MODEL 4
REMARK VINA RESULT:      -7.9      2.379      3.969
REMARK  9 active torsions:
REMARK  status: ('A' for Active; 'I' for Inactive)
REMARK    1  A    between atoms: C_2  and  N_3 
REMARK    2  A    between atoms: N_3  and  C_4 
REMARK    3  A    between atoms: N_3  and  C_37 
REMARK    4  A    between atoms: C_6  and  C_24 
REMARK    5  A    between atoms: C_8  and  C_11 
REMARK       I    between atoms: C_11  and  N_13 
REMARK    6  A    between atoms: N_13  and  C_14 
REMARK    7  A    between atoms: C_14  and  C_15 
REMARK    8  A    between atoms: C_27  and  C_30 
REMARK    9  A    between atoms: C_30  and  N_31 
ROOT
HETATM    1  C   UNK N   1      21.792  14.249   4.835  0.00  0.00     0.038 A 
HETATM    2  C   UNK N   1      23.124  14.228   4.401  0.00  0.00     0.042 A 
HETATM    3  C   UNK N   1      23.581  15.031   3.372  0.00  0.00    -0.023 A 
HETATM    4  C   UNK N   1      22.685  15.845   2.689  0.00  0.00     0.030 A 
HETATM    5  C   UNK N   1      21.333  15.881   3.011  0.00  0.00     0.041 A 
HETATM    6  C   UNK N   1      20.888  15.115   4.133  0.00  0.00    -0.020 A 
HETATM    7  C   UNK N   1      19.550  15.367   4.657  0.00  0.00     0.052 C 
ENDROOT
BRANCH   5   8
HETATM    8  C   UNK N   1      20.479  16.812   2.173  0.00  0.00     0.252 C 
HETATM    9  O   UNK N   1      19.844  16.322   1.251  0.00  0.00    -0.268 OA
HETATM   10  N   UNK N   1      20.289  18.139   2.432  0.00  0.00    -0.352 N 
HETATM   11  H   UNK N   1      19.870  18.686   1.728  0.00  0.00     0.163 HD
BRANCH  10  12
HETATM   12  C   UNK N   1      20.659  18.799   3.660  0.00  0.00     0.167 C 
BRANCH  12  13
HETATM   13  C   UNK N   1      22.090  19.277   3.666  0.00  0.00     0.033 A 
HETATM   14  C   UNK N   1      23.007  18.771   4.614  0.00  0.00    -0.047 A 
HETATM   15  C   UNK N   1      24.352  19.140   4.547  0.00  0.00     0.032 A 
HETATM   16  C   UNK N   1      22.574  17.830   5.688  0.00  0.00     0.049 C 
HETATM   17  C   UNK N   1      24.784  20.010   3.548  0.00  0.00     0.009 A 
HETATM   18  N   UNK N   1      23.892  20.524   2.661  0.00  0.00    -0.327 N 
HETATM   19  C   UNK N   1      26.221  20.367   3.437  0.00  0.00     0.068 C 
HETATM   20  C   UNK N   1      22.570  20.187   2.702  0.00  0.00     0.254 A 
HETATM   21  H   UNK N   1      24.207  21.153   1.973  0.00  0.00     0.169 HD
HETATM   22  O   UNK N   1      21.811  20.679   1.881  0.00  0.00    -0.268 OA
ENDBRANCH  12  13
ENDBRANCH  10  12
ENDBRANCH   5   8
BRANCH   3  23
HETATM   23  C   UNK N   1      24.978  14.981   2.940  0.00  0.00    -0.026 A 
HETATM   24  C   UNK N   1      25.776  16.137   2.950  0.00  0.00     0.013 A 
HETATM   25  C   UNK N   1      27.158  16.023   2.786  0.00  0.00     0.010 A 
HETATM   26  C   UNK N   1      27.727  14.764   2.564  0.00  0.00    -0.030 A 
HETATM   27  C   UNK N   1      26.917  13.639   2.427  0.00  0.00     0.010 A 
HETATM   28  C   UNK N   1      25.554  13.743   2.638  0.00  0.00     0.013 A 
BRANCH  26  29
HETATM   29  C   UNK N   1      29.197  14.580   2.715  0.00  0.00     0.311 C 
BRANCH  29  30
HETATM   30  N   UNK N   1      29.796  15.546   3.666  0.00  0.00     0.096 N 
HETATM   31  C   UNK N   1      30.923  16.277   3.074  0.00  0.00     0.299 C 
HETATM   32  C   UNK N   1      32.258  15.602   3.400  0.00  0.00     0.198 C 
HETATM   33  O   UNK N   1      32.412  15.528   4.792  0.00  0.00    -0.388 OA
HETATM   34  C   UNK N   1      31.495  14.562   5.234  0.00  0.00     0.198 C 
HETATM   35  C   UNK N   1      30.051  15.073   5.049  0.00  0.00     0.299 C 
ENDBRANCH  29  30
ENDBRANCH  26  29
ENDBRANCH   3  23
BRANCH   1  36
HETATM   36  N   UNK N   1      21.474  13.444   6.007  0.00  0.00    -0.376 N 
BRANCH  36  37
HETATM   37  C   UNK N   1      20.668  12.250   5.809  0.00  0.00     0.119 C 
HETATM   38  C   UNK N   1      21.431  11.180   5.055  0.00  0.00     0.026 C 
ENDBRANCH  36  37
BRANCH  36  39
HETATM   39  C   UNK N   1      21.891  13.664   7.396  0.00  0.00     0.088 C 
HETATM   40  C   UNK N   1      22.347  12.545   8.345  0.00  0.00     0.051 C 
HETATM   41  C   UNK N   1      21.464  12.552   9.615  0.00  0.00     0.169 C 
HETATM   42  O   UNK N   1      21.318  13.849  10.142  0.00  0.00    -0.391 OA
HETATM   43  C   UNK N   1      20.519  14.563   9.236  0.00  0.00     0.169 C 
HETATM   44  C   UNK N   1      21.370  14.944   8.042  0.00  0.00     0.051 C 
ENDBRANCH  36  39
ENDBRANCH   1  36
TORSDOF 9
ENDMDL
MODEL 5
REMARK VINA RESULT:      -7.9      1.698      2.291
REMARK  9 active torsions:
REMARK  status: ('A' for Active; 'I' for Inactive)
REMARK    1  A    between atoms: C_2  and  N_3 
REMARK    2  A    between atoms: N_3  and  C_4 
REMARK    3  A    between atoms: N_3  and  C_37 
REMARK    4  A    between atoms: C_6  and  C_24 
REMARK    5  A    between atoms: C_8  and  C_11 
REMARK       I    between atoms: C_11  and  N_13 
REMARK    6  A    between atoms: N_13  and  C_14 
REMARK    7  A    between atoms: C_14  and  C_15 
REMARK    8  A    between atoms: C_27  and  C_30 
REMARK    9  A    between atoms: C_30  and  N_31 
ROOT
HETATM    1  C   UNK N   1      23.139  14.593   7.181  0.00  0.00     0.038 A 
HETATM    2  C   UNK N   1      24.373  14.757   6.536  0.00  0.00     0.042 A 
HETATM    3  C   UNK N   1      24.661  15.865   5.760  0.00  0.00    -0.023 A 
HETATM    4  C   UNK N   1      23.680  16.825   5.546  0.00  0.00     0.030 A 
HETATM    5  C   UNK N   1      22.407  16.711   6.093  0.00  0.00     0.041 A 
HETATM    6  C   UNK N   1      22.148  15.609   6.966  0.00  0.00    -0.020 A 
HETATM    7  C   UNK N   1      20.930  15.634   7.770  0.00  0.00     0.052 C 
ENDROOT
BRANCH   5   8
HETATM    8  C   UNK N   1      21.444  17.834   5.765  0.00  0.00     0.252 C 
HETATM    9  O   UNK N   1      21.444  18.812   6.497  0.00  0.00    -0.268 OA
HETATM   10  N   UNK N   1      20.647  17.878   4.656  0.00  0.00    -0.352 N 
HETATM   11  H   UNK N   1      19.933  18.556   4.634  0.00  0.00     0.163 HD
BRANCH  10  12
HETATM   12  C   UNK N   1      20.776  17.005   3.516  0.00  0.00     0.167 C 
BRANCH  12  13
HETATM   13  C   UNK N   1      20.454  15.565   3.835  0.00  0.00     0.033 A 
HETATM   14  C   UNK N   1      21.351  14.536   3.474  0.00  0.00    -0.047 A 
HETATM   15  C   UNK N   1      21.096  13.221   3.864  0.00  0.00     0.032 A 
HETATM   16  C   UNK N   1      22.587  14.825   2.689  0.00  0.00     0.049 C 
HETATM   17  C   UNK N   1      19.954  12.927   4.606  0.00  0.00     0.009 A 
HETATM   18  N   UNK N   1      19.074  13.913   4.920  0.00  0.00    -0.327 N 
HETATM   19  C   UNK N   1      19.700  11.539   5.071  0.00  0.00     0.068 C 
HETATM   20  C   UNK N   1      19.291  15.209   4.549  0.00  0.00     0.254 A 
HETATM   21  H   UNK N   1      18.260  13.688   5.427  0.00  0.00     0.169 HD
HETATM   22  O   UNK N   1      18.467  16.056   4.857  0.00  0.00    -0.268 OA
ENDBRANCH  12  13
ENDBRANCH  10  12
ENDBRANCH   5   8
BRANCH   3  23
HETATM   23  C   UNK N   1      25.959  16.003   5.097  0.00  0.00    -0.026 A 
HETATM   24  C   UNK N   1      26.184  17.030   4.166  0.00  0.00     0.013 A 
HETATM   25  C   UNK N   1      27.487  17.304   3.744  0.00  0.00     0.010 A 
HETATM   26  C   UNK N   1      28.546  16.522   4.215  0.00  0.00    -0.030 A 
HETATM   27  C   UNK N   1      28.300  15.424   5.037  0.00  0.00     0.010 A 
HETATM   28  C   UNK N   1      27.018  15.182   5.495  0.00  0.00     0.013 A 
BRANCH  26  29
HETATM   29  C   UNK N   1      29.948  16.994   4.043  0.00  0.00     0.311 C 
BRANCH  29  30
HETATM   30  N   UNK N   1      30.943  16.024   4.557  0.00  0.00     0.096 N 
HETATM   31  C   UNK N   1      31.783  16.601   5.613  0.00  0.00     0.299 C 
HETATM   32  C   UNK N   1      33.087  17.164   5.042  0.00  0.00     0.198 C 
HETATM   33  O   UNK N   1      33.783  16.141   4.381  0.00  0.00    -0.388 OA
HETATM   34  C   UNK N   1      33.058  15.873   3.210  0.00  0.00     0.198 C 
HETATM   35  C   UNK N   1      31.700  15.229   3.558  0.00  0.00     0.299 C 
ENDBRANCH  29  30
ENDBRANCH  26  29
ENDBRANCH   3  23
BRANCH   1  36
HETATM   36  N   UNK N   1      23.012  13.442   8.065  0.00  0.00    -0.376 N 
BRANCH  36  37
HETATM   37  C   UNK N   1      22.514  12.202   7.493  0.00  0.00     0.119 C 
HETATM   38  C   UNK N   1      23.646  11.265   7.120  0.00  0.00     0.026 C 
ENDBRANCH  36  37
BRANCH  36  39
HETATM   39  C   UNK N   1      23.353  13.354   9.488  0.00  0.00     0.088 C 
HETATM   40  C   UNK N   1      24.769  13.084  10.019  0.00  0.00     0.051 C 
HETATM   41  C   UNK N   1      24.752  11.831  10.926  0.00  0.00     0.169 C 
HETATM   42  O   UNK N   1      23.695  11.874  11.854  0.00  0.00    -0.391 OA
HETATM   43  C   UNK N   1      22.510  11.710  11.120  0.00  0.00     0.169 C 
HETATM   44  C   UNK N   1      22.194  13.016  10.421  0.00  0.00     0.051 C 
ENDBRANCH  36  39
ENDBRANCH   1  36
TORSDOF 9
ENDMDL
MODEL 6
REMARK VINA RESULT:      -7.8      9.039     15.381
REMARK  9 active torsions:
REMARK  status: ('A' for Active; 'I' for Inactive)
REMARK    1  A    between atoms: C_2  and  N_3 
REMARK    2  A    between atoms: N_3  and  C_4 
REMARK    3  A    between atoms: N_3  and  C_37 
REMARK    4  A    between atoms: C_6  and  C_24 
REMARK    5  A    between atoms: C_8  and  C_11 
REMARK       I    between atoms: C_11  and  N_13 
REMARK    6  A    between atoms: N_13  and  C_14 
REMARK    7  A    between atoms: C_14  and  C_15 
REMARK    8  A    between atoms: C_27  and  C_30 
REMARK    9  A    between atoms: C_30  and  N_31 
ROOT
HETATM    1  C   UNK N   1      36.418  11.908  12.331  0.00  0.00     0.038 A 
HETATM    2  C   UNK N   1      35.773  12.833  11.499  0.00  0.00     0.042 A 
HETATM    3  C   UNK N   1      35.550  14.143  11.882  0.00  0.00    -0.023 A 
HETATM    4  C   UNK N   1      35.910  14.554  13.160  0.00  0.00     0.030 A 
HETATM    5  C   UNK N   1      36.495  13.685  14.074  0.00  0.00     0.041 A 
HETATM    6  C   UNK N   1      36.804  12.360  13.638  0.00  0.00    -0.020 A 
HETATM    7  C   UNK N   1      37.672  11.539  14.475  0.00  0.00     0.052 C 
ENDROOT
BRANCH   5   8
HETATM    8  C   UNK N   1      36.826  14.277  15.429  0.00  0.00     0.252 C 
HETATM    9  O   UNK N   1      37.604  15.218  15.462  0.00  0.00    -0.268 OA
HETATM   10  N   UNK N   1      36.242  13.902  16.606  0.00  0.00    -0.352 N 
HETATM   11  H   UNK N   1      36.657  14.217  17.442  0.00  0.00     0.163 HD
BRANCH  10  12
HETATM   12  C   UNK N   1      35.064  13.077  16.714  0.00  0.00     0.167 C 
BRANCH  12  13
HETATM   13  C   UNK N   1      35.091  12.162  17.913  0.00  0.00     0.033 A 
HETATM   14  C   UNK N   1      35.064  10.760  17.741  0.00  0.00    -0.047 A 
HETATM   15  C   UNK N   1      35.195   9.920  18.849  0.00  0.00     0.032 A 
HETATM   16  C   UNK N   1      34.914  10.147  16.390  0.00  0.00     0.049 C 
HETATM   17  C   UNK N   1      35.347  10.468  20.121  0.00  0.00     0.009 A 
HETATM   18  N   UNK N   1      35.334  11.816  20.287  0.00  0.00    -0.327 N 
HETATM   19  C   UNK N   1      35.538   9.584  21.298  0.00  0.00     0.068 C 
HETATM   20  C   UNK N   1      35.204  12.666  19.226  0.00  0.00     0.254 A 
HETATM   21  H   UNK N   1      35.422  12.190  21.193  0.00  0.00     0.169 HD
HETATM   22  O   UNK N   1      35.199  13.869  19.432  0.00  0.00    -0.268 OA
ENDBRANCH  12  13
ENDBRANCH  10  12
ENDBRANCH   5   8
BRANCH   3  23
HETATM   23  C   UNK N   1      34.869  15.084  10.991  0.00  0.00    -0.026 A 
HETATM   24  C   UNK N   1      35.359  16.387  10.812  0.00  0.00     0.013 A 
HETATM   25  C   UNK N   1      34.858  17.176   9.775  0.00  0.00     0.010 A 
HETATM   26  C   UNK N   1      33.839  16.677   8.955  0.00  0.00    -0.030 A 
HETATM   27  C   UNK N   1      33.269  15.434   9.219  0.00  0.00     0.010 A 
HETATM   28  C   UNK N   1      33.798  14.632  10.214  0.00  0.00     0.013 A 
BRANCH  26  29
HETATM   29  C   UNK N   1      33.528  17.355   7.667  0.00  0.00     0.311 C 
BRANCH  29  30
HETATM   30  N   UNK N   1      32.963  16.428   6.658  0.00  0.00     0.096 N 
HETATM   31  C   UNK N   1      33.666  16.514   5.373  0.00  0.00     0.299 C 
HETATM   32  C   UNK N   1      32.967  17.486   4.419  0.00  0.00     0.198 C 
HETATM   33  O   UNK N   1      31.645  17.064   4.215  0.00  0.00    -0.388 OA
HETATM   34  C   UNK N   1      30.967  17.316   5.417  0.00  0.00     0.198 C 
HETATM   35  C   UNK N   1      31.485  16.381   6.528  0.00  0.00     0.299 C 
ENDBRANCH  29  30
ENDBRANCH  26  29
ENDBRANCH   3  23
BRANCH   1  36
HETATM   36  N   UNK N   1      36.699  10.598  11.757  0.00  0.00    -0.376 N 
BRANCH  36  37
HETATM   37  C   UNK N   1      37.972  10.416  11.080  0.00  0.00     0.119 C 
HETATM   38  C   UNK N   1      37.925  10.929   9.654  0.00  0.00     0.026 C 
ENDBRANCH  36  37
BRANCH  36  39
HETATM   39  C   UNK N   1      35.861   9.396  11.795  0.00  0.00     0.088 C 
HETATM   40  C   UNK N   1      36.170   8.106  11.018  0.00  0.00     0.051 C 
HETATM   41  C   UNK N   1      34.972   7.752  10.107  0.00  0.00     0.169 C 
HETATM   42  O   UNK N   1      33.748   7.831  10.798  0.00  0.00    -0.391 OA
HETATM   43  C   UNK N   1      33.519   9.192  11.053  0.00  0.00     0.169 C 
HETATM   44  C   UNK N   1      34.408   9.621  12.202  0.00  0.00     0.051 C 
ENDBRANCH  36  39
ENDBRANCH   1  36
TORSDOF 9
ENDMDL
MODEL 7
REMARK VINA RESULT:      -7.8      1.647      2.275
REMARK  9 active torsions:
REMARK  status: ('A' for Active; 'I' for Inactive)
REMARK    1  A    between atoms: C_2  and  N_3 
REMARK    2  A    between atoms: N_3  and  C_4 
REMARK    3  A    between atoms: N_3  and  C_37 
REMARK    4  A    between atoms: C_6  and  C_24 
REMARK    5  A    between atoms: C_8  and  C_11 
REMARK       I    between atoms: C_11  and  N_13 
REMARK    6  A    between atoms: N_13  and  C_14 
REMARK    7  A    between atoms: C_14  and  C_15 
REMARK    8  A    between atoms: C_27  and  C_30 
REMARK    9  A    between atoms: C_30  and  N_31 
ROOT
HETATM    1  C   UNK N   1      24.191  14.255   7.181  0.00  0.00     0.038 A 
HETATM    2  C   UNK N   1      25.535  14.618   7.016  0.00  0.00     0.042 A 
HETATM    3  C   UNK N   1      25.918  15.722   6.276  0.00  0.00    -0.023 A 
HETATM    4  C   UNK N   1      24.954  16.468   5.610  0.00  0.00     0.030 A 
HETATM    5  C   UNK N   1      23.603  16.141   5.665  0.00  0.00     0.041 A 
HETATM    6  C   UNK N   1      23.210  15.054   6.504  0.00  0.00    -0.020 A 
HETATM    7  C   UNK N   1      21.791  14.885   6.801  0.00  0.00     0.052 C 
ENDROOT
BRANCH   5   8
HETATM    8  C   UNK N   1      22.672  17.044   4.881  0.00  0.00     0.252 C 
HETATM    9  O   UNK N   1      22.463  18.164   5.325  0.00  0.00    -0.268 OA
HETATM   10  N   UNK N   1      22.129  16.737   3.666  0.00  0.00    -0.352 N 
HETATM   11  H   UNK N   1      21.400  17.311   3.334  0.00  0.00     0.163 HD
BRANCH  10  12
HETATM   12  C   UNK N   1      22.545  15.635   2.834  0.00  0.00     0.167 C 
BRANCH  12  13
HETATM   13  C   UNK N   1      21.814  14.352   3.145  0.00  0.00     0.033 A 
HETATM   14  C   UNK N   1      22.534  13.184   3.481  0.00  0.00    -0.047 A 
HETATM   15  C   UNK N   1      21.849  12.031   3.868  0.00  0.00     0.032 A 
HETATM   16  C   UNK N   1      24.025  13.155   3.447  0.00  0.00     0.049 C 
HETATM   17  C   UNK N   1      20.457  12.035   3.918  0.00  0.00     0.009 A 
HETATM   18  N   UNK N   1      19.766  13.148   3.558  0.00  0.00    -0.327 N 
HETATM   19  C   UNK N   1      19.721  10.830   4.378  0.00  0.00     0.068 C 
HETATM   20  C   UNK N   1      20.405  14.291   3.170  0.00  0.00     0.254 A 
HETATM   21  H   UNK N   1      18.782  13.131   3.578  0.00  0.00     0.169 HD
HETATM   22  O   UNK N   1      19.736  15.263   2.856  0.00  0.00    -0.268 OA
ENDBRANCH  12  13
ENDBRANCH  10  12
ENDBRANCH   5   8
BRANCH   3  23
HETATM   23  C   UNK N   1      27.331  16.072   6.120  0.00  0.00    -0.026 A 
HETATM   24  C   UNK N   1      27.837  17.272   6.646  0.00  0.00     0.013 A 
HETATM   25  C   UNK N   1      29.218  17.466   6.716  0.00  0.00     0.010 A 
HETATM   26  C   UNK N   1      30.081  16.484   6.216  0.00  0.00    -0.030 A 
HETATM   27  C   UNK N   1      29.571  15.356   5.580  0.00  0.00     0.010 A 
HETATM   28  C   UNK N   1      28.204  15.139   5.554  0.00  0.00     0.013 A 
BRANCH  26  29
HETATM   29  C   UNK N   1      31.526  16.520   6.573  0.00  0.00     0.311 C 
BRANCH  29  30
HETATM   30  N   UNK N   1      31.750  16.798   8.012  0.00  0.00     0.096 N 
HETATM   31  C   UNK N   1      32.598  17.978   8.221  0.00  0.00     0.299 C 
HETATM   32  C   UNK N   1      34.068  17.586   8.385  0.00  0.00     0.198 C 
HETATM   33  O   UNK N   1      34.194  16.707   9.471  0.00  0.00    -0.388 OA
HETATM   34  C   UNK N   1      33.626  15.493   9.056  0.00  0.00     0.198 C 
HETATM   35  C   UNK N   1      32.101  15.649   8.882  0.00  0.00     0.299 C 
ENDBRANCH  29  30
ENDBRANCH  26  29
ENDBRANCH   3  23
BRANCH   1  36
HETATM   36  N   UNK N   1      23.922  13.145   8.085  0.00  0.00    -0.376 N 
BRANCH  36  37
HETATM   37  C   UNK N   1      23.989  11.798   7.540  0.00  0.00     0.119 C 
HETATM   38  C   UNK N   1      22.610  11.252   7.227  0.00  0.00     0.026 C 
ENDBRANCH  36  37
BRANCH  36  39
HETATM   39  C   UNK N   1      23.610  13.199   9.516  0.00  0.00     0.088 C 
HETATM   40  C   UNK N   1      24.405  12.454  10.600  0.00  0.00     0.051 C 
HETATM   41  C   UNK N   1      23.452  11.538  11.403  0.00  0.00     0.169 C 
HETATM   42  O   UNK N   1      22.280  12.214  11.790  0.00  0.00    -0.391 OA
HETATM   43  C   UNK N   1      21.541  12.438  10.618  0.00  0.00     0.169 C 
HETATM   44  C   UNK N   1      22.175  13.586   9.861  0.00  0.00     0.051 C 
ENDBRANCH  36  39
ENDBRANCH   1  36
TORSDOF 9
ENDMDL
MODEL 8
REMARK VINA RESULT:      -7.8     13.633     16.921
REMARK  9 active torsions:
REMARK  status: ('A' for Active; 'I' for Inactive)
REMARK    1  A    between atoms: C_2  and  N_3 
REMARK    2  A    between atoms: N_3  and  C_4 
REMARK    3  A    between atoms: N_3  and  C_37 
REMARK    4  A    between atoms: C_6  and  C_24 
REMARK    5  A    between atoms: C_8  and  C_11 
REMARK       I    between atoms: C_11  and  N_13 
REMARK    6  A    between atoms: N_13  and  C_14 
REMARK    7  A    between atoms: C_14  and  C_15 
REMARK    8  A    between atoms: C_27  and  C_30 
REMARK    9  A    between atoms: C_30  and  N_31 
ROOT
HETATM    1  C   UNK N   1      26.651  25.485  -6.421  0.00  0.00     0.038 A 
HETATM    2  C   UNK N   1      27.756  24.832  -5.857  0.00  0.00     0.042 A 
HETATM    3  C   UNK N   1      28.176  25.072  -4.562  0.00  0.00    -0.023 A 
HETATM    4  C   UNK N   1      27.533  26.041  -3.801  0.00  0.00     0.030 A 
HETATM    5  C   UNK N   1      26.469  26.783  -4.303  0.00  0.00     0.041 A 
HETATM    6  C   UNK N   1      25.986  26.464  -5.609  0.00  0.00    -0.020 A 
HETATM    7  C   UNK N   1      24.704  27.022  -6.029  0.00  0.00     0.052 C 
ENDROOT
BRANCH   5   8
HETATM    8  C   UNK N   1      25.875  27.807  -3.357  0.00  0.00     0.252 C 
HETATM    9  O   UNK N   1      25.367  27.397  -2.324  0.00  0.00    -0.268 OA
HETATM   10  N   UNK N   1      25.953  29.161  -3.526  0.00  0.00    -0.352 N 
HETATM   11  H   UNK N   1      25.381  29.725  -2.957  0.00  0.00     0.163 HD
BRANCH  10  12
HETATM   12  C   UNK N   1      26.812  29.823  -4.477  0.00  0.00     0.167 C 
BRANCH  12  13
HETATM   13  C   UNK N   1      28.269  29.471  -4.302  0.00  0.00     0.033 A 
HETATM   14  C   UNK N   1      29.037  29.044  -5.407  0.00  0.00    -0.047 A 
HETATM   15  C   UNK N   1      30.407  28.821  -5.258  0.00  0.00     0.032 A 
HETATM   16  C   UNK N   1      28.419  28.839  -6.750  0.00  0.00     0.049 C 
HETATM   17  C   UNK N   1      31.011  29.015  -4.018  0.00  0.00     0.009 A 
HETATM   18  N   UNK N   1      30.262  29.389  -2.948  0.00  0.00    -0.327 N 
HETATM   19  C   UNK N   1      32.476  28.831  -3.861  0.00  0.00     0.068 C 
HETATM   20  C   UNK N   1      28.919  29.611  -3.058  0.00  0.00     0.254 A 
HETATM   21  H   UNK N   1      30.697  29.502  -2.072  0.00  0.00     0.169 HD
HETATM   22  O   UNK N   1      28.293  29.945  -2.064  0.00  0.00    -0.268 OA
ENDBRANCH  12  13
ENDBRANCH  10  12
ENDBRANCH   5   8
BRANCH   3  23
HETATM   23  C   UNK N   1      29.337  24.376  -4.005  0.00  0.00    -0.026 A 
HETATM   24  C   UNK N   1      29.197  23.502  -2.915  0.00  0.00     0.013 A 
HETATM   25  C   UNK N   1      30.254  22.658  -2.567  0.00  0.00     0.010 A 
HETATM   26  C   UNK N   1      31.458  22.728  -3.277  0.00  0.00    -0.030 A 
HETATM   27  C   UNK N   1      31.634  23.686  -4.272  0.00  0.00     0.010 A 
HETATM   28  C   UNK N   1      30.572  24.488  -4.650  0.00  0.00     0.013 A 
BRANCH  26  29
HETATM   29  C   UNK N   1      32.459  21.634  -3.143  0.00  0.00     0.311 C 
BRANCH  29  30
HETATM   30  N   UNK N   1      33.036  21.228  -4.447  0.00  0.00     0.096 N 
HETATM   31  C   UNK N   1      32.774  19.816  -4.752  0.00  0.00     0.299 C 
HETATM   32  C   UNK N   1      33.937  18.925  -4.310  0.00  0.00     0.198 C 
HETATM   33  O   UNK N   1      35.111  19.345  -4.952  0.00  0.00    -0.388 OA
HETATM   34  C   UNK N   1      35.459  20.570  -4.365  0.00  0.00     0.198 C 
HETATM   35  C   UNK N   1      34.427  21.654  -4.739  0.00  0.00     0.299 C 
ENDBRANCH  29  30
ENDBRANCH  26  29
ENDBRANCH   3  23
BRANCH   1  36
HETATM   36  N   UNK N   1      26.242  25.049  -7.750  0.00  0.00    -0.376 N 
BRANCH  36  37
HETATM   37  C   UNK N   1      25.680  23.715  -7.880  0.00  0.00     0.119 C 
HETATM   38  C   UNK N   1      26.662  22.754  -8.520  0.00  0.00     0.026 C 
ENDBRANCH  36  37
BRANCH  36  39
HETATM   39  C   UNK N   1      26.297  25.804  -9.005  0.00  0.00     0.088 C 
HETATM   40  C   UNK N   1      25.243  25.700 -10.119  0.00  0.00     0.051 C 
HETATM   41  C   UNK N   1      25.930  25.295 -11.444  0.00  0.00     0.169 C 
HETATM   42  O   UNK N   1      27.081  26.065 -11.693  0.00  0.00    -0.391 OA
HETATM   43  C   UNK N   1      28.038  25.673 -10.745  0.00  0.00     0.169 C 
HETATM   44  C   UNK N   1      27.681  26.300  -9.413  0.00  0.00     0.051 C 
ENDBRANCH  36  39
ENDBRANCH   1  36
TORSDOF 9
ENDMDL
MODEL 9
REMARK VINA RESULT:      -7.6      8.713     15.451
REMARK  9 active torsions:
REMARK  status: ('A' for Active; 'I' for Inactive)
REMARK    1  A    between atoms: C_2  and  N_3 
REMARK    2  A    between atoms: N_3  and  C_4 
REMARK    3  A    between atoms: N_3  and  C_37 
REMARK    4  A    between atoms: C_6  and  C_24 
REMARK    5  A    between atoms: C_8  and  C_11 
REMARK       I    between atoms: C_11  and  N_13 
REMARK    6  A    between atoms: N_13  and  C_14 
REMARK    7  A    between atoms: C_14  and  C_15 
REMARK    8  A    between atoms: C_27  and  C_30 
REMARK    9  A    between atoms: C_30  and  N_31 
ROOT
HETATM    1  C   UNK N   1      36.591  11.971  12.202  0.00  0.00     0.038 A 
HETATM    2  C   UNK N   1      35.914  12.902  11.401  0.00  0.00     0.042 A 
HETATM    3  C   UNK N   1      35.590  14.168  11.852  0.00  0.00    -0.023 A 
HETATM    4  C   UNK N   1      35.876  14.522  13.165  0.00  0.00     0.030 A 
HETATM    5  C   UNK N   1      36.486  13.638  14.048  0.00  0.00     0.041 A 
HETATM    6  C   UNK N   1      36.899  12.365  13.547  0.00  0.00    -0.020 A 
HETATM    7  C   UNK N   1      37.790  11.553  14.368  0.00  0.00     0.052 C 
ENDROOT
BRANCH   5   8
HETATM    8  C   UNK N   1      36.728  14.166  15.448  0.00  0.00     0.252 C 
HETATM    9  O   UNK N   1      37.541  15.067  15.582  0.00  0.00    -0.268 OA
HETATM   10  N   UNK N   1      36.032  13.777  16.558  0.00  0.00    -0.352 N 
HETATM   11  H   UNK N   1      36.389  14.043  17.437  0.00  0.00     0.163 HD
BRANCH  10  12
HETATM   12  C   UNK N   1      34.814  13.006  16.537  0.00  0.00     0.167 C 
BRANCH  12  13
HETATM   13  C   UNK N   1      34.955  11.658  17.200  0.00  0.00     0.033 A 
HETATM   14  C   UNK N   1      34.739  10.473  16.463  0.00  0.00    -0.047 A 
HETATM   15  C   UNK N   1      34.974   9.231  17.056  0.00  0.00     0.032 A 
HETATM   16  C   UNK N   1      34.277  10.515  15.045  0.00  0.00     0.049 C 
HETATM   17  C   UNK N   1      35.416   9.165  18.375  0.00  0.00     0.009 A 
HETATM   18  N   UNK N   1      35.587  10.306  19.094  0.00  0.00    -0.327 N 
HETATM   19  C   UNK N   1      35.718   7.852  18.999  0.00  0.00     0.068 C 
HETATM   20  C   UNK N   1      35.362  11.536  18.545  0.00  0.00     0.254 A 
HETATM   21  H   UNK N   1      35.880  10.244  20.031  0.00  0.00     0.169 HD
HETATM   22  O   UNK N   1      35.530  12.528  19.236  0.00  0.00    -0.268 OA
ENDBRANCH  12  13
ENDBRANCH  10  12
ENDBRANCH   5   8
BRANCH   3  23
HETATM   23  C   UNK N   1      34.879  15.116  10.992  0.00  0.00    -0.026 A 
HETATM   24  C   UNK N   1      35.422  16.380  10.713  0.00  0.00     0.013 A 
HETATM   25  C   UNK N   1      34.867  17.160   9.696  0.00  0.00     0.010 A 
HETATM   26  C   UNK N   1      33.746  16.694   9.000  0.00  0.00    -0.030 A 
HETATM   27  C   UNK N   1      33.135  15.498   9.369  0.00  0.00     0.010 A 
HETATM   28  C   UNK N   1      33.713  14.702  10.342  0.00  0.00     0.013 A 
BRANCH  26  29
HETATM   29  C   UNK N   1      33.348  17.343   7.721  0.00  0.00     0.311 C 
BRANCH  29  30
HETATM   30  N   UNK N   1      32.787  16.379   6.745  0.00  0.00     0.096 N 
HETATM   31  C   UNK N   1      33.620  16.264   5.541  0.00  0.00     0.299 C 
HETATM   32  C   UNK N   1      33.130  17.198   4.432  0.00  0.00     0.198 C 
HETATM   33  O   UNK N   1      31.796  16.891   4.124  0.00  0.00    -0.388 OA
HETATM   34  C   UNK N   1      31.034  17.330   5.217  0.00  0.00     0.198 C 
HETATM   35  C   UNK N   1      31.333  16.466   6.459  0.00  0.00     0.299 C 
ENDBRANCH  29  30
ENDBRANCH  26  29
ENDBRANCH   3  23
BRANCH   1  36
HETATM   36  N   UNK N   1      36.979  10.720  11.563  0.00  0.00    -0.376 N 
BRANCH  36  37
HETATM   37  C   UNK N   1      36.217   9.527  11.893  0.00  0.00     0.119 C 
HETATM   38  C   UNK N   1      34.773   9.644  11.444  0.00  0.00     0.026 C 
ENDBRANCH  36  37
BRANCH  36  39
HETATM   39  C   UNK N   1      38.047  10.499  10.583  0.00  0.00     0.088 C 
HETATM   40  C   UNK N   1      38.709  11.618   9.764  0.00  0.00     0.051 C 
HETATM   41  C   UNK N   1      38.568  11.307   8.255  0.00  0.00     0.169 C 
HETATM   42  O   UNK N   1      38.919   9.976   7.962  0.00  0.00    -0.391 OA
HETATM   43  C   UNK N   1      37.916   9.166   8.514  0.00  0.00     0.169 C 
HETATM   44  C   UNK N   1      38.132   9.087  10.011  0.00  0.00     0.051 C 
ENDBRANCH  36  39
ENDBRANCH   1  36
TORSDOF 9
ENDMDL
