MODEL 1
REMARK VINA RESULT:      -5.1      0.000      0.000
REMARK  2 active torsions:
REMARK  status: ('A' for Active; 'I' for Inactive)
REMARK    1  A    between atoms: C_10  and  C_7 
REMARK    2  A    between atoms: O_11  and  C_10 
ROOT
HETATM    1  C   UNK N   1      21.246  13.098  10.554  0.00  0.00     0.014 A 
HETATM    2  C   UNK N   1      20.660  13.689   9.423  0.00  0.00     0.001 A 
HETATM    3  C   UNK N   1      21.438  13.966   8.276  0.00  0.00     0.002 A 
HETATM    4  C   UNK N   1      22.812  13.652   8.253  0.00  0.00     0.030 A 
HETATM    5  C   UNK N   1      23.359  13.067   9.391  0.00  0.00     0.043 A 
HETATM    6  C   UNK N   1      22.605  12.802  10.496  0.00  0.00     0.000 A 
HETATM    7  C   UNK N   1      23.434  12.237  11.421  0.00  0.00    -0.007 A 
HETATM    8  C   UNK N   1      24.698  12.175  10.834  0.00  0.00     0.098 A 
HETATM    9  N   UNK N   1      24.640  12.691   9.579  0.00  0.00    -0.365 N 
HETATM   10  H   UNK N   1      25.382  12.774   8.938  0.00  0.00     0.165 HD
ENDROOT
BRANCH   7  11
HETATM   11  C   UNK N   1      23.026  11.786  12.786  0.00  0.00     0.205 C 
BRANCH  11  12
HETATM   12  O   UNK N   1      23.796  12.402  13.771  0.00  0.00    -0.396 OA
HETATM   13  H   UNK N   1      23.370  12.774  14.558  0.00  0.00     0.209 HD
ENDBRANCH  11  12
ENDBRANCH   7  11
TORSDOF 2
ENDMDL
MODEL 2
REMARK VINA RESULT:      -5.1      1.862      2.649
REMARK  2 active torsions:
REMARK  status: ('A' for Active; 'I' for Inactive)
REMARK    1  A    between atoms: C_10  and  C_7 
REMARK    2  A    between atoms: O_11  and  C_10 
ROOT
HETATM    1  C   UNK N   1      22.069  13.948   9.406  0.00  0.00     0.014 A 
HETATM    2  C   UNK N   1      20.673  14.100   9.423  0.00  0.00     0.001 A 
HETATM    3  C   UNK N   1      19.883  13.342  10.318  0.00  0.00     0.002 A 
HETATM    4  C   UNK N   1      20.486  12.426  11.203  0.00  0.00     0.030 A 
HETATM    5  C   UNK N   1      21.871  12.302  11.158  0.00  0.00     0.043 A 
HETATM    6  C   UNK N   1      22.630  13.034  10.293  0.00  0.00     0.000 A 
HETATM    7  C   UNK N   1      23.931  12.679  10.501  0.00  0.00    -0.007 A 
HETATM    8  C   UNK N   1      23.922  11.717  11.512  0.00  0.00     0.098 A 
HETATM    9  N   UNK N   1      22.642  11.492  11.910  0.00  0.00    -0.365 N 
HETATM   10  H   UNK N   1      22.340  10.865  12.606  0.00  0.00     0.165 HD
ENDROOT
BRANCH   7  11
HETATM   11  C   UNK N   1      25.108  13.237   9.768  0.00  0.00     0.205 C 
BRANCH  11  12
HETATM   12  O   UNK N   1      26.004  13.846  10.644  0.00  0.00    -0.396 OA
HETATM   13  H   UNK N   1      25.674  14.355  11.400  0.00  0.00     0.209 HD
ENDBRANCH  11  12
ENDBRANCH   7  11
TORSDOF 2
ENDMDL
MODEL 3
REMARK VINA RESULT:      -5.1      2.624      4.170
REMARK  2 active torsions:
REMARK  status: ('A' for Active; 'I' for Inactive)
REMARK    1  A    between atoms: C_10  and  C_7 
REMARK    2  A    between atoms: O_11  and  C_10 
ROOT
HETATM    1  C   UNK N   1      23.429  13.551   9.394  0.00  0.00     0.014 A 
HETATM    2  C   UNK N   1      24.665  13.015   9.793  0.00  0.00     0.001 A 
HETATM    3  C   UNK N   1      24.731  12.089  10.859  0.00  0.00     0.002 A 
HETATM    4  C   UNK N   1      23.560  11.692  11.534  0.00  0.00     0.030 A 
HETATM    5  C   UNK N   1      22.354  12.243  11.112  0.00  0.00     0.043 A 
HETATM    6  C   UNK N   1      22.293  13.137  10.084  0.00  0.00     0.000 A 
HETATM    7  C   UNK N   1      20.981  13.478   9.925  0.00  0.00    -0.007 A 
HETATM    8  C   UNK N   1      20.268  12.763  10.888  0.00  0.00     0.098 A 
HETATM    9  N   UNK N   1      21.127  12.003  11.616  0.00  0.00    -0.365 N 
HETATM   10  H   UNK N   1      20.900  11.399  12.359  0.00  0.00     0.165 HD
ENDROOT
BRANCH   7  11
HETATM   11  C   UNK N   1      20.454  14.436   8.907  0.00  0.00     0.205 C 
BRANCH  11  12
HETATM   12  O   UNK N   1      20.233  13.801   7.686  0.00  0.00    -0.396 OA
HETATM   13  H   UNK N   1      20.116  14.328   6.880  0.00  0.00     0.209 HD
ENDBRANCH  11  12
ENDBRANCH   7  11
TORSDOF 2
ENDMDL
MODEL 4
REMARK VINA RESULT:      -5.0      8.437      9.003
REMARK  2 active torsions:
REMARK  status: ('A' for Active; 'I' for Inactive)
REMARK    1  A    between atoms: C_10  and  C_7 
REMARK    2  A    between atoms: O_11  and  C_10 
ROOT
HETATM    1  C   UNK N   1      27.184  20.400   6.825  0.00  0.00     0.014 A 
HETATM    2  C   UNK N   1      26.625  21.085   5.733  0.00  0.00     0.001 A 
HETATM    3  C   UNK N   1      26.835  20.620   4.414  0.00  0.00     0.002 A 
HETATM    4  C   UNK N   1      27.607  19.465   4.179  0.00  0.00     0.030 A 
HETATM    5  C   UNK N   1      28.145  18.812   5.284  0.00  0.00     0.043 A 
HETATM    6  C   UNK N   1      27.940  19.263   6.554  0.00  0.00     0.000 A 
HETATM    7  C   UNK N   1      28.594  18.409   7.394  0.00  0.00    -0.007 A 
HETATM    8  C   UNK N   1      29.191  17.440   6.586  0.00  0.00     0.098 A 
HETATM    9  N   UNK N   1      28.906  17.700   5.283  0.00  0.00    -0.365 N 
HETATM   10  H   UNK N   1      29.197  17.182   4.499  0.00  0.00     0.165 HD
ENDROOT
BRANCH   7  11
HETATM   11  C   UNK N   1      28.637  18.524   8.883  0.00  0.00     0.205 C 
BRANCH  11  12
HETATM   12  O   UNK N   1      27.448  18.078   9.457  0.00  0.00    -0.396 OA
HETATM   13  H   UNK N   1      26.626  18.573   9.315  0.00  0.00     0.209 HD
ENDBRANCH  11  12
ENDBRANCH   7  11
TORSDOF 2
ENDMDL
MODEL 5
REMARK VINA RESULT:      -5.0     18.553     19.954
REMARK  2 active torsions:
REMARK  status: ('A' for Active; 'I' for Inactive)
REMARK    1  A    between atoms: C_10  and  C_7 
REMARK    2  A    between atoms: O_11  and  C_10 
ROOT
HETATM    1  C   UNK N   1      26.554  26.788  -3.482  0.00  0.00     0.014 A 
HETATM    2  C   UNK N   1      25.857  27.978  -3.749  0.00  0.00     0.001 A 
HETATM    3  C   UNK N   1      24.975  28.058  -4.852  0.00  0.00     0.002 A 
HETATM    4  C   UNK N   1      24.785  26.945  -5.695  0.00  0.00     0.030 A 
HETATM    5  C   UNK N   1      25.491  25.783  -5.400  0.00  0.00     0.043 A 
HETATM    6  C   UNK N   1      26.341  25.710  -4.336  0.00  0.00     0.000 A 
HETATM    7  C   UNK N   1      26.867  24.450  -4.328  0.00  0.00    -0.007 A 
HETATM    8  C   UNK N   1      26.305  23.781  -5.415  0.00  0.00     0.098 A 
HETATM    9  N   UNK N   1      25.456  24.615  -6.071  0.00  0.00    -0.365 N 
HETATM   10  H   UNK N   1      24.924  24.408  -6.873  0.00  0.00     0.165 HD
ENDROOT
BRANCH   7  11
HETATM   11  C   UNK N   1      27.849  23.930  -3.330  0.00  0.00     0.205 C 
BRANCH  11  12
HETATM   12  O   UNK N   1      27.221  23.595  -2.132  0.00  0.00    -0.396 OA
HETATM   13  H   UNK N   1      27.411  24.100  -1.326  0.00  0.00     0.209 HD
ENDBRANCH  11  12
ENDBRANCH   7  11
TORSDOF 2
ENDMDL
MODEL 6
REMARK VINA RESULT:      -4.9      9.254     11.031
REMARK  2 active torsions:
REMARK  status: ('A' for Active; 'I' for Inactive)
REMARK    1  A    between atoms: C_10  and  C_7 
REMARK    2  A    between atoms: O_11  and  C_10 
ROOT
HETATM    1  C   UNK N   1      23.356  20.564   2.695  0.00  0.00     0.014 A 
HETATM    2  C   UNK N   1      24.446  20.129   3.468  0.00  0.00     0.001 A 
HETATM    3  C   UNK N   1      24.291  19.067   4.388  0.00  0.00     0.002 A 
HETATM    4  C   UNK N   1      23.043  18.431   4.541  0.00  0.00     0.030 A 
HETATM    5  C   UNK N   1      21.986  18.887   3.760  0.00  0.00     0.043 A 
HETATM    6  C   UNK N   1      22.139  19.912   2.873  0.00  0.00     0.000 A 
HETATM    7  C   UNK N   1      20.928  20.110   2.275  0.00  0.00    -0.007 A 
HETATM    8  C   UNK N   1      20.055  19.174   2.832  0.00  0.00     0.098 A 
HETATM    9  N   UNK N   1      20.721  18.424   3.748  0.00  0.00    -0.365 N 
HETATM   10  H   UNK N   1      20.353  17.691   4.293  0.00  0.00     0.165 HD
ENDROOT
BRANCH   7  11
HETATM   11  C   UNK N   1      20.636  21.139   1.232  0.00  0.00     0.205 C 
BRANCH  11  12
HETATM   12  O   UNK N   1      20.632  20.576  -0.043  0.00  0.00    -0.396 OA
HETATM   13  H   UNK N   1      21.148  20.985  -0.755  0.00  0.00     0.209 HD
ENDBRANCH  11  12
ENDBRANCH   7  11
TORSDOF 2
ENDMDL
MODEL 7
REMARK VINA RESULT:      -4.8     10.669     11.699
REMARK  2 active torsions:
REMARK  status: ('A' for Active; 'I' for Inactive)
REMARK    1  A    between atoms: C_10  and  C_7 
REMARK    2  A    between atoms: O_11  and  C_10 
ROOT
HETATM    1  C   UNK N   1      33.546  17.518   5.386  0.00  0.00     0.014 A 
HETATM    2  C   UNK N   1      32.872  17.372   4.162  0.00  0.00     0.001 A 
HETATM    3  C   UNK N   1      31.470  17.194   4.135  0.00  0.00     0.002 A 
HETATM    4  C   UNK N   1      30.732  17.162   5.335  0.00  0.00     0.030 A 
HETATM    5  C   UNK N   1      31.432  17.310   6.528  0.00  0.00     0.043 A 
HETATM    6  C   UNK N   1      32.784  17.481   6.550  0.00  0.00     0.000 A 
HETATM    7  C   UNK N   1      33.154  17.593   7.860  0.00  0.00    -0.007 A 
HETATM    8  C   UNK N   1      31.983  17.484   8.611  0.00  0.00     0.098 A 
HETATM    9  N   UNK N   1      30.925  17.309   7.777  0.00  0.00    -0.365 N 
HETATM   10  H   UNK N   1      29.980  17.203   8.032  0.00  0.00     0.165 HD
ENDROOT
BRANCH   7  11
HETATM   11  C   UNK N   1      34.550  17.793   8.350  0.00  0.00     0.205 C 
BRANCH  11  12
HETATM   12  O   UNK N   1      34.910  19.139   8.311  0.00  0.00    -0.396 OA
HETATM   13  H   UNK N   1      35.357  19.499   7.530  0.00  0.00     0.209 HD
ENDBRANCH  11  12
ENDBRANCH   7  11
TORSDOF 2
ENDMDL
MODEL 8
REMARK VINA RESULT:      -4.8     10.330     11.242
REMARK  2 active torsions:
REMARK  status: ('A' for Active; 'I' for Inactive)
REMARK    1  A    between atoms: C_10  and  C_7 
REMARK    2  A    between atoms: O_11  and  C_10 
ROOT
HETATM    1  C   UNK N   1      31.458  17.859   8.591  0.00  0.00     0.014 A 
HETATM    2  C   UNK N   1      30.069  17.770   8.397  0.00  0.00     0.001 A 
HETATM    3  C   UNK N   1      29.546  17.401   7.136  0.00  0.00     0.002 A 
HETATM    4  C   UNK N   1      30.411  17.118   6.060  0.00  0.00     0.030 A 
HETATM    5  C   UNK N   1      31.780  17.216   6.288  0.00  0.00     0.043 A 
HETATM    6  C   UNK N   1      32.281  17.573   7.506  0.00  0.00     0.000 A 
HETATM    7  C   UNK N   1      33.641  17.575   7.395  0.00  0.00    -0.007 A 
HETATM    8  C   UNK N   1      33.931  17.210   6.080  0.00  0.00     0.098 A 
HETATM    9  N   UNK N   1      32.772  16.991   5.405  0.00  0.00    -0.365 N 
HETATM   10  H   UNK N   1      32.677  16.723   4.463  0.00  0.00     0.165 HD
ENDROOT
BRANCH   7  11
HETATM   11  C   UNK N   1      34.598  17.908   8.493  0.00  0.00     0.205 C 
BRANCH  11  12
HETATM   12  O   UNK N   1      35.076  19.211   8.365  0.00  0.00    -0.396 OA
HETATM   13  H   UNK N   1      35.330  19.551   7.493  0.00  0.00     0.209 HD
ENDBRANCH  11  12
ENDBRANCH   7  11
TORSDOF 2
ENDMDL
MODEL 9
REMARK VINA RESULT:      -4.8      8.832      9.918
REMARK  2 active torsions:
REMARK  status: ('A' for Active; 'I' for Inactive)
REMARK    1  A    between atoms: C_10  and  C_7 
REMARK    2  A    between atoms: O_11  and  C_10 
ROOT
HETATM    1  C   UNK N   1      31.848  17.983   8.512  0.00  0.00     0.014 A 
HETATM    2  C   UNK N   1      33.102  17.934   7.880  0.00  0.00     0.001 A 
HETATM    3  C   UNK N   1      33.212  17.483   6.545  0.00  0.00     0.002 A 
HETATM    4  C   UNK N   1      32.066  17.077   5.832  0.00  0.00     0.030 A 
HETATM    5  C   UNK N   1      30.841  17.139   6.489  0.00  0.00     0.043 A 
HETATM    6  C   UNK N   1      30.739  17.574   7.777  0.00  0.00     0.000 A 
HETATM    7  C   UNK N   1      29.419  17.512   8.118  0.00  0.00    -0.007 A 
HETATM    8  C   UNK N   1      28.743  17.028   6.997  0.00  0.00     0.098 A 
HETATM    9  N   UNK N   1      29.633  16.801   5.996  0.00  0.00    -0.365 N 
HETATM   10  H   UNK N   1      29.436  16.459   5.094  0.00  0.00     0.165 HD
ENDROOT
BRANCH   7  11
HETATM   11  C   UNK N   1      28.849  17.897   9.445  0.00  0.00     0.205 C 
BRANCH  11  12
HETATM   12  O   UNK N   1      27.474  18.107   9.361  0.00  0.00    -0.396 OA
HETATM   13  H   UNK N   1      27.068  18.856   9.824  0.00  0.00     0.209 HD
ENDBRANCH  11  12
ENDBRANCH   7  11
TORSDOF 2
ENDMDL
