MODEL 1
REMARK VINA RESULT:      -4.1      0.000      0.000
REMARK  5 active torsions:
REMARK  status: ('A' for Active; 'I' for Inactive)
REMARK    1  A    between atoms: C_2  and  C_4 
REMARK    2  A    between atoms: C_4  and  C_5 
REMARK    3  A    between atoms: C_4  and  O_10 
REMARK    4  A    between atoms: C_6  and  C_5 
REMARK    5  A    between atoms: C_5  and  O_9 
ROOT
HETATM    1  C   UNK N   1      35.603  15.696  10.307  0.00  0.00     0.180 C 
ENDROOT
BRANCH   1   2
HETATM    2  C   UNK N   1      34.673  16.881  10.083  0.00  0.00     0.176 A 
HETATM    3  C   UNK N   1      34.599  17.183   8.637  0.00  0.00     0.203 A 
HETATM    4  O   UNK N   1      35.398  17.942   9.511  0.00  0.00    -0.378 OA
ENDBRANCH   1   2
BRANCH   1   5
HETATM    5  C   UNK N   1      34.964  14.585  11.146  0.00  0.00     0.180 C 
BRANCH   5   6
HETATM    6  C   UNK N   1      35.652  14.380  12.488  0.00  0.00     0.176 A 
HETATM    7  C   UNK N   1      35.748  12.936  12.792  0.00  0.00     0.203 A 
HETATM    8  O   UNK N   1      36.848  13.663  12.289  0.00  0.00    -0.378 OA
ENDBRANCH   5   6
BRANCH   5   9
HETATM    9  O   UNK N   1      33.604  14.843  11.343  0.00  0.00    -0.390 OA
HETATM   10  H   UNK N   1      33.094  14.320  11.981  0.00  0.00     0.210 HD
ENDBRANCH   5   9
ENDBRANCH   1   5
BRANCH   1  11
HETATM   11  O   UNK N   1      36.795  16.126  10.896  0.00  0.00    -0.390 OA
HETATM   12  H   UNK N   1      37.309  15.523  11.455  0.00  0.00     0.210 HD
ENDBRANCH   1  11
TORSDOF 5
ENDMDL
MODEL 2
REMARK VINA RESULT:      -4.0      1.486      2.404
REMARK  5 active torsions:
REMARK  status: ('A' for Active; 'I' for Inactive)
REMARK    1  A    between atoms: C_2  and  C_4 
REMARK    2  A    between atoms: C_4  and  C_5 
REMARK    3  A    between atoms: C_4  and  O_10 
REMARK    4  A    between atoms: C_6  and  C_5 
REMARK    5  A    between atoms: C_5  and  O_9 
ROOT
HETATM    1  C   UNK N   1      34.584  15.520  10.580  0.00  0.00     0.180 C 
ENDROOT
BRANCH   1   2
HETATM    2  C   UNK N   1      34.902  14.718   9.325  0.00  0.00     0.176 A 
HETATM    3  C   UNK N   1      34.760  15.585   8.135  0.00  0.00     0.203 A 
HETATM    4  O   UNK N   1      33.762  14.665   8.503  0.00  0.00    -0.378 OA
ENDBRANCH   1   2
BRANCH   1   5
HETATM    5  C   UNK N   1      35.756  15.579  11.564  0.00  0.00     0.180 C 
BRANCH   5   6
HETATM    6  C   UNK N   1      36.083  14.227  12.182  0.00  0.00     0.176 A 
HETATM    7  C   UNK N   1      36.239  14.364  13.647  0.00  0.00     0.203 A 
HETATM    8  O   UNK N   1      35.053  13.863  13.070  0.00  0.00    -0.378 OA
ENDBRANCH   5   6
BRANCH   5   9
HETATM    9  O   UNK N   1      36.891  16.105  10.941  0.00  0.00    -0.390 OA
HETATM   10  H   UNK N   1      36.827  16.913  10.408  0.00  0.00     0.210 HD
ENDBRANCH   5   9
ENDBRANCH   1   5
BRANCH   1  11
HETATM   11  O   UNK N   1      33.447  15.003  11.206  0.00  0.00    -0.390 OA
HETATM   12  H   UNK N   1      33.535  14.433  11.986  0.00  0.00     0.210 HD
ENDBRANCH   1  11
TORSDOF 5
ENDMDL
MODEL 3
REMARK VINA RESULT:      -4.0      1.072      4.341
REMARK  5 active torsions:
REMARK  status: ('A' for Active; 'I' for Inactive)
REMARK    1  A    between atoms: C_2  and  C_4 
REMARK    2  A    between atoms: C_4  and  C_5 
REMARK    3  A    between atoms: C_4  and  O_10 
REMARK    4  A    between atoms: C_6  and  C_5 
REMARK    5  A    between atoms: C_5  and  O_9 
ROOT
HETATM    1  C   UNK N   1      34.935  14.641  11.144  0.00  0.00     0.180 C 
ENDROOT
BRANCH   1   2
HETATM    2  C   UNK N   1      35.632  14.539  12.494  0.00  0.00     0.176 A 
HETATM    3  C   UNK N   1      36.090  13.149  12.710  0.00  0.00     0.203 A 
HETATM    4  O   UNK N   1      34.925  13.647  13.319  0.00  0.00    -0.378 OA
ENDBRANCH   1   2
BRANCH   1   5
HETATM    5  C   UNK N   1      35.582  15.671  10.213  0.00  0.00     0.180 C 
BRANCH   5   6
HETATM    6  C   UNK N   1      34.629  16.785   9.804  0.00  0.00     0.176 A 
HETATM    7  C   UNK N   1      34.666  16.969   8.337  0.00  0.00     0.203 A 
HETATM    8  O   UNK N   1      33.628  16.254   8.969  0.00  0.00    -0.378 OA
ENDBRANCH   5   6
BRANCH   5   9
HETATM    9  O   UNK N   1      36.725  16.215  10.807  0.00  0.00    -0.390 OA
HETATM   10  H   UNK N   1      36.775  17.167  10.988  0.00  0.00     0.210 HD
ENDBRANCH   5   9
ENDBRANCH   1   5
BRANCH   1  11
HETATM   11  O   UNK N   1      33.580  14.930  11.324  0.00  0.00    -0.390 OA
HETATM   12  H   UNK N   1      33.059  14.442  11.980  0.00  0.00     0.210 HD
ENDBRANCH   1  11
TORSDOF 5
ENDMDL
MODEL 4
REMARK VINA RESULT:      -3.9     15.215     15.935
REMARK  5 active torsions:
REMARK  status: ('A' for Active; 'I' for Inactive)
REMARK    1  A    between atoms: C_2  and  C_4 
REMARK    2  A    between atoms: C_4  and  C_5 
REMARK    3  A    between atoms: C_4  and  O_10 
REMARK    4  A    between atoms: C_6  and  C_5 
REMARK    5  A    between atoms: C_5  and  O_9 
ROOT
HETATM    1  C   UNK N   1      32.409  21.631  -3.054  0.00  0.00     0.180 C 
ENDROOT
BRANCH   1   2
HETATM    2  C   UNK N   1      30.946  22.018  -2.885  0.00  0.00     0.176 A 
HETATM    3  C   UNK N   1      30.805  23.484  -3.020  0.00  0.00     0.203 A 
HETATM    4  O   UNK N   1      30.811  22.854  -1.763  0.00  0.00    -0.378 OA
ENDBRANCH   1   2
BRANCH   1   5
HETATM    5  C   UNK N   1      32.631  20.604  -4.169  0.00  0.00     0.180 C 
BRANCH   5   6
HETATM    6  C   UNK N   1      33.939  19.840  -4.024  0.00  0.00     0.176 A 
HETATM    7  C   UNK N   1      34.841  20.163  -5.151  0.00  0.00     0.203 A 
HETATM    8  O   UNK N   1      34.997  20.759  -3.882  0.00  0.00    -0.378 OA
ENDBRANCH   5   6
BRANCH   5   9
HETATM    9  O   UNK N   1      31.560  19.708  -4.227  0.00  0.00    -0.390 OA
HETATM   10  H   UNK N   1      30.991  19.574  -3.453  0.00  0.00     0.210 HD
ENDBRANCH   5   9
ENDBRANCH   1   5
BRANCH   1  11
HETATM   11  O   UNK N   1      32.922  21.155  -1.845  0.00  0.00    -0.390 OA
HETATM   12  H   UNK N   1      32.342  20.706  -1.210  0.00  0.00     0.210 HD
ENDBRANCH   1  11
TORSDOF 5
ENDMDL
MODEL 5
REMARK VINA RESULT:      -3.8      1.427      4.465
REMARK  5 active torsions:
REMARK  status: ('A' for Active; 'I' for Inactive)
REMARK    1  A    between atoms: C_2  and  C_4 
REMARK    2  A    between atoms: C_4  and  C_5 
REMARK    3  A    between atoms: C_4  and  O_10 
REMARK    4  A    between atoms: C_6  and  C_5 
REMARK    5  A    between atoms: C_5  and  O_9 
ROOT
HETATM    1  C   UNK N   1      36.436  14.204  12.913  0.00  0.00     0.180 C 
ENDROOT
BRANCH   1   2
HETATM    2  C   UNK N   1      36.012  13.228  14.002  0.00  0.00     0.176 A 
HETATM    3  C   UNK N   1      36.449  13.738  15.320  0.00  0.00     0.203 A 
HETATM    4  O   UNK N   1      37.154  12.724  14.649  0.00  0.00    -0.378 OA
ENDBRANCH   1   2
BRANCH   1   5
HETATM    5  C   UNK N   1      35.254  14.750  12.106  0.00  0.00     0.180 C 
BRANCH   5   6
HETATM    6  C   UNK N   1      35.639  15.164  10.692  0.00  0.00     0.176 A 
HETATM    7  C   UNK N   1      35.313  16.590  10.477  0.00  0.00     0.203 A 
HETATM    8  O   UNK N   1      36.628  16.164  10.757  0.00  0.00    -0.378 OA
ENDBRANCH   5   6
BRANCH   5   9
HETATM    9  O   UNK N   1      34.218  13.813  12.062  0.00  0.00    -0.390 OA
HETATM   10  H   UNK N   1      33.714  13.678  11.245  0.00  0.00     0.210 HD
ENDBRANCH   5   9
ENDBRANCH   1   5
BRANCH   1  11
HETATM   11  O   UNK N   1      37.369  13.601  12.065  0.00  0.00    -0.390 OA
HETATM   12  H   UNK N   1      37.303  12.656  11.859  0.00  0.00     0.210 HD
ENDBRANCH   1  11
TORSDOF 5
ENDMDL
MODEL 6
REMARK VINA RESULT:      -3.8     15.668     16.963
REMARK  5 active torsions:
REMARK  status: ('A' for Active; 'I' for Inactive)
REMARK    1  A    between atoms: C_2  and  C_4 
REMARK    2  A    between atoms: C_4  and  C_5 
REMARK    3  A    between atoms: C_4  and  O_10 
REMARK    4  A    between atoms: C_6  and  C_5 
REMARK    5  A    between atoms: C_5  and  O_9 
ROOT
HETATM    1  C   UNK N   1      21.007  19.785   3.261  0.00  0.00     0.180 C 
ENDROOT
BRANCH   1   2
HETATM    2  C   UNK N   1      22.022  20.419   2.319  0.00  0.00     0.176 A 
HETATM    3  C   UNK N   1      23.365  20.372   2.937  0.00  0.00     0.203 A 
HETATM    4  O   UNK N   1      22.592  21.547   2.938  0.00  0.00    -0.378 OA
ENDBRANCH   1   2
BRANCH   1   5
HETATM    5  C   UNK N   1      20.148  18.715   2.579  0.00  0.00     0.180 C 
BRANCH   5   6
HETATM    6  C   UNK N   1      20.208  17.366   3.283  0.00  0.00     0.176 A 
HETATM    7  C   UNK N   1      20.717  16.334   2.355  0.00  0.00     0.203 A 
HETATM    8  O   UNK N   1      21.545  16.929   3.330  0.00  0.00    -0.378 OA
ENDBRANCH   5   6
BRANCH   5   9
HETATM    9  O   UNK N   1      18.821  19.143   2.482  0.00  0.00    -0.390 OA
HETATM   10  H   UNK N   1      18.489  19.842   3.066  0.00  0.00     0.210 HD
ENDBRANCH   5   9
ENDBRANCH   1   5
BRANCH   1  11
HETATM   11  O   UNK N   1      20.197  20.771   3.829  0.00  0.00    -0.390 OA
HETATM   12  H   UNK N   1      19.604  21.299   3.270  0.00  0.00     0.210 HD
ENDBRANCH   1  11
TORSDOF 5
ENDMDL
MODEL 7
REMARK VINA RESULT:      -3.8      1.730      2.315
REMARK  5 active torsions:
REMARK  status: ('A' for Active; 'I' for Inactive)
REMARK    1  A    between atoms: C_2  and  C_4 
REMARK    2  A    between atoms: C_4  and  C_5 
REMARK    3  A    between atoms: C_4  and  O_10 
REMARK    4  A    between atoms: C_6  and  C_5 
REMARK    5  A    between atoms: C_5  and  O_9 
ROOT
HETATM    1  C   UNK N   1      34.335  16.066   8.645  0.00  0.00     0.180 C 
ENDROOT
BRANCH   1   2
HETATM    2  C   UNK N   1      34.436  17.586   8.631  0.00  0.00     0.176 A 
HETATM    3  C   UNK N   1      33.302  18.149   7.865  0.00  0.00     0.203 A 
HETATM    4  O   UNK N   1      34.587  18.032   7.306  0.00  0.00    -0.378 OA
ENDBRANCH   1   2
BRANCH   1   5
HETATM    5  C   UNK N   1      34.389  15.477  10.058  0.00  0.00     0.180 C 
BRANCH   5   6
HETATM    6  C   UNK N   1      35.199  16.327  11.027  0.00  0.00     0.176 A 
HETATM    7  C   UNK N   1      36.092  15.465  11.831  0.00  0.00     0.203 A 
HETATM    8  O   UNK N   1      36.568  16.197  10.723  0.00  0.00    -0.378 OA
ENDBRANCH   5   6
BRANCH   5   9
HETATM    9  O   UNK N   1      33.097  15.287  10.557  0.00  0.00    -0.390 OA
HETATM   10  H   UNK N   1      32.356  15.802  10.204  0.00  0.00     0.210 HD
ENDBRANCH   5   9
ENDBRANCH   1   5
BRANCH   1  11
HETATM   11  O   UNK N   1      35.339  15.511   7.848  0.00  0.00    -0.390 OA
HETATM   12  H   UNK N   1      36.194  15.960   7.755  0.00  0.00     0.210 HD
ENDBRANCH   1  11
TORSDOF 5
ENDMDL
MODEL 8
REMARK VINA RESULT:      -3.8     16.977     18.029
REMARK  5 active torsions:
REMARK  status: ('A' for Active; 'I' for Inactive)
REMARK    1  A    between atoms: C_2  and  C_4 
REMARK    2  A    between atoms: C_4  and  C_5 
REMARK    3  A    between atoms: C_4  and  O_10 
REMARK    4  A    between atoms: C_6  and  C_5 
REMARK    5  A    between atoms: C_5  and  O_9 
ROOT
HETATM    1  C   UNK N   1      20.034  18.460   2.503  0.00  0.00     0.180 C 
ENDROOT
BRANCH   1   2
HETATM    2  C   UNK N   1      20.370  19.945   2.492  0.00  0.00     0.176 A 
HETATM    3  C   UNK N   1      21.640  20.170   3.215  0.00  0.00     0.203 A 
HETATM    4  O   UNK N   1      20.394  20.428   3.813  0.00  0.00    -0.378 OA
ENDBRANCH   1   2
BRANCH   1   5
HETATM    5  C   UNK N   1      20.457  17.743   1.217  0.00  0.00     0.180 C 
BRANCH   5   6
HETATM    6  C   UNK N   1      19.693  16.448   0.977  0.00  0.00     0.176 A 
HETATM    7  C   UNK N   1      20.629  15.303   0.963  0.00  0.00     0.203 A 
HETATM    8  O   UNK N   1      19.846  15.608   2.097  0.00  0.00    -0.378 OA
ENDBRANCH   5   6
BRANCH   5   9
HETATM    9  O   UNK N   1      20.314  18.591   0.115  0.00  0.00    -0.390 OA
HETATM   10  H   UNK N   1      19.812  18.302  -0.663  0.00  0.00     0.210 HD
ENDBRANCH   5   9
ENDBRANCH   1   5
BRANCH   1  11
HETATM   11  O   UNK N   1      18.669  18.277   2.736  0.00  0.00    -0.390 OA
HETATM   12  H   UNK N   1      18.071  19.040   2.763  0.00  0.00     0.210 HD
ENDBRANCH   1  11
TORSDOF 5
ENDMDL
MODEL 9
REMARK VINA RESULT:      -3.6     12.132     13.379
REMARK  5 active torsions:
REMARK  status: ('A' for Active; 'I' for Inactive)
REMARK    1  A    between atoms: C_2  and  C_4 
REMARK    2  A    between atoms: C_4  and  C_5 
REMARK    3  A    between atoms: C_4  and  O_10 
REMARK    4  A    between atoms: C_6  and  C_5 
REMARK    5  A    between atoms: C_5  and  O_9 
ROOT
HETATM    1  C   UNK N   1      43.261  22.695   3.408  0.00  0.00     0.180 C 
ENDROOT
BRANCH   1   2
HETATM    2  C   UNK N   1      44.655  22.228   3.011  0.00  0.00     0.176 A 
HETATM    3  C   UNK N   1      44.971  20.964   3.711  0.00  0.00     0.203 A 
HETATM    4  O   UNK N   1      45.480  22.199   4.149  0.00  0.00    -0.378 OA
ENDBRANCH   1   2
BRANCH   1   5
HETATM    5  C   UNK N   1      42.294  22.768   2.222  0.00  0.00     0.180 C 
BRANCH   5   6
HETATM    6  C   UNK N   1      41.153  21.765   2.321  0.00  0.00     0.176 A 
HETATM    7  C   UNK N   1      41.337  20.690   1.321  0.00  0.00     0.203 A 
HETATM    8  O   UNK N   1      41.674  20.506   2.679  0.00  0.00    -0.378 OA
ENDBRANCH   5   6
BRANCH   5   9
HETATM    9  O   UNK N   1      41.781  24.061   2.089  0.00  0.00    -0.390 OA
HETATM   10  H   UNK N   1      41.101  24.383   2.701  0.00  0.00     0.210 HD
ENDBRANCH   5   9
ENDBRANCH   1   5
BRANCH   1  11
HETATM   11  O   UNK N   1      43.334  23.931   4.054  0.00  0.00    -0.390 OA
HETATM   12  H   UNK N   1      43.996  24.586   3.782  0.00  0.00     0.210 HD
ENDBRANCH   1  11
TORSDOF 5
ENDMDL
