MODEL 1
REMARK VINA RESULT:      -6.0      0.000      0.000
REMARK  17 active torsions:
REMARK  status: ('A' for Active; 'I' for Inactive)
REMARK    1  A    between atoms: C_4  and  C_1 
REMARK    2  A    between atoms: O_13  and  C_1 
REMARK    3  A    between atoms: C_5  and  C_2 
REMARK    4  A    between atoms: O_14  and  C_2 
REMARK    5  A    between atoms: C_6  and  C_3 
REMARK    6  A    between atoms: O_15  and  C_3 
REMARK    7  A    between atoms: C_7  and  C_4 
REMARK    8  A    between atoms: C_4  and  O_16 
REMARK    9  A    between atoms: C_11  and  C_5 
REMARK   10  A    between atoms: C_5  and  O_17 
REMARK   11  A    between atoms: C_11  and  C_7 
REMARK   12  A    between atoms: C_7  and  O_18 
REMARK   13  A    between atoms: C_8  and  O_19 
REMARK   14  A    between atoms: C_9  and  O_20 
REMARK   15  A    between atoms: C_10  and  O_21 
REMARK   16  A    between atoms: C_11  and  O_23 
REMARK   17  A    between atoms: C_12  and  O_23 
ROOT
HETATM    1  C   UNK N   1      33.157  16.274   7.719  0.00  0.00     0.186 C 
ENDROOT
BRANCH   1   2
HETATM    2  C   UNK N   1      34.069  17.416   7.214  0.00  0.00     0.173 C 
BRANCH   2   3
HETATM    3  C   UNK N   1      33.976  18.659   8.094  0.00  0.00     0.198 C 
BRANCH   3   4
HETATM    4  O   UNK N   1      35.249  19.073   8.493  0.00  0.00    -0.398 OA
HETATM    5  H   UNK N   1      35.608  18.962   9.387  0.00  0.00     0.209 HD
ENDBRANCH   3   4
ENDBRANCH   2   3
BRANCH   2   6
HETATM    6  O   UNK N   1      33.681  17.776   5.921  0.00  0.00    -0.391 OA
HETATM    7  H   UNK N   1      32.776  17.636   5.604  0.00  0.00     0.210 HD
ENDBRANCH   2   6
ENDBRANCH   1   2
BRANCH   1   8
HETATM    8  C   UNK N   1      33.902  15.021   8.297  0.00  0.00     0.180 C 
BRANCH   8   9
HETATM    9  C   UNK N   1      34.240  14.963   9.802  0.00  0.00     0.173 C 
BRANCH   9  10
HETATM   10  C   UNK N   1      35.367  15.921  10.184  0.00  0.00     0.198 C 
BRANCH  10  11
HETATM   11  O   UNK N   1      34.859  17.042  10.841  0.00  0.00    -0.398 OA
HETATM   12  H   UNK N   1      34.264  17.724  10.495  0.00  0.00     0.209 HD
ENDBRANCH  10  11
ENDBRANCH   9  10
BRANCH   9  13
HETATM   13  O   UNK N   1      33.104  15.195  10.579  0.00  0.00    -0.391 OA
HETATM   14  H   UNK N   1      32.178  15.101  10.854  0.00  0.00     0.210 HD
ENDBRANCH   9  13
ENDBRANCH   8   9
BRANCH   8  15
HETATM   15  O   UNK N   1      35.077  14.808   7.569  0.00  0.00    -0.390 OA
HETATM   16  H   UNK N   1      36.004  14.573   7.402  0.00  0.00     0.210 HD
ENDBRANCH   8  15
ENDBRANCH   1   8
BRANCH   1  17
HETATM   17  O   UNK N   1      32.210  16.803   8.648  0.00  0.00    -0.348 OA
BRANCH  17  18
HETATM   18  C   UNK N   1      30.863  16.836   8.163  0.00  0.00     0.292 C 
HETATM   19  C   UNK N   1      29.896  17.551   9.147  0.00  0.00     0.204 C 
HETATM   20  C   UNK N   1      28.470  17.484   8.571  0.00  0.00     0.183 C 
HETATM   21  C   UNK N   1      28.461  18.050   7.143  0.00  0.00     0.180 C 
HETATM   22  C   UNK N   1      29.495  17.272   6.304  0.00  0.00     0.179 C 
HETATM   23  O   UNK N   1      30.788  17.411   6.864  0.00  0.00    -0.348 OA
BRANCH  19  24
HETATM   24  O   UNK N   1      30.262  18.888   9.325  0.00  0.00    -0.388 OA
HETATM   25  H   UNK N   1      30.610  19.792   9.270  0.00  0.00     0.210 HD
ENDBRANCH  19  24
BRANCH  20  26
HETATM   26  O   UNK N   1      27.582  18.196   9.381  0.00  0.00    -0.390 OA
HETATM   27  H   UNK N   1      27.589  19.154   9.533  0.00  0.00     0.210 HD
ENDBRANCH  20  26
BRANCH  21  28
HETATM   28  O   UNK N   1      27.186  17.913   6.586  0.00  0.00    -0.390 OA
HETATM   29  H   UNK N   1      26.846  17.046   6.313  0.00  0.00     0.210 HD
ENDBRANCH  21  28
BRANCH  22  30
HETATM   30  C   UNK N   1      29.539  17.782   4.866  0.00  0.00     0.198 C 
BRANCH  30  31
HETATM   31  O   UNK N   1      30.856  17.863   4.405  0.00  0.00    -0.398 OA
HETATM   32  H   UNK N   1      31.815  17.936   4.290  0.00  0.00     0.209 HD
ENDBRANCH  30  31
ENDBRANCH  22  30
ENDBRANCH  17  18
ENDBRANCH   1  17
TORSDOF 17
ENDMDL
MODEL 2
REMARK VINA RESULT:      -5.8      1.091      1.671
REMARK  17 active torsions:
REMARK  status: ('A' for Active; 'I' for Inactive)
REMARK    1  A    between atoms: C_4  and  C_1 
REMARK    2  A    between atoms: O_13  and  C_1 
REMARK    3  A    between atoms: C_5  and  C_2 
REMARK    4  A    between atoms: O_14  and  C_2 
REMARK    5  A    between atoms: C_6  and  C_3 
REMARK    6  A    between atoms: O_15  and  C_3 
REMARK    7  A    between atoms: C_7  and  C_4 
REMARK    8  A    between atoms: C_4  and  O_16 
REMARK    9  A    between atoms: C_11  and  C_5 
REMARK   10  A    between atoms: C_5  and  O_17 
REMARK   11  A    between atoms: C_11  and  C_7 
REMARK   12  A    between atoms: C_7  and  O_18 
REMARK   13  A    between atoms: C_8  and  O_19 
REMARK   14  A    between atoms: C_9  and  O_20 
REMARK   15  A    between atoms: C_10  and  O_21 
REMARK   16  A    between atoms: C_11  and  O_23 
REMARK   17  A    between atoms: C_12  and  O_23 
ROOT
HETATM    1  C   UNK N   1      33.294  16.359   8.269  0.00  0.00     0.186 C 
ENDROOT
BRANCH   1   2
HETATM    2  C   UNK N   1      33.585  16.571   6.765  0.00  0.00     0.173 C 
BRANCH   2   3
HETATM    3  C   UNK N   1      34.259  15.356   6.132  0.00  0.00     0.198 C 
BRANCH   3   4
HETATM    4  O   UNK N   1      35.612  15.610   5.903  0.00  0.00    -0.398 OA
HETATM    5  H   UNK N   1      36.084  16.398   6.215  0.00  0.00     0.209 HD
ENDBRANCH   3   4
ENDBRANCH   2   3
BRANCH   2   6
HETATM    6  O   UNK N   1      34.441  17.664   6.611  0.00  0.00    -0.391 OA
HETATM    7  H   UNK N   1      35.199  17.803   7.199  0.00  0.00     0.210 HD
ENDBRANCH   2   6
ENDBRANCH   1   2
BRANCH   1   8
HETATM    8  C   UNK N   1      34.555  16.314   9.200  0.00  0.00     0.180 C 
BRANCH   8   9
HETATM    9  C   UNK N   1      34.561  15.381  10.429  0.00  0.00     0.173 C 
BRANCH   9  10
HETATM   10  C   UNK N   1      35.548  15.835  11.502  0.00  0.00     0.198 C 
BRANCH  10  11
HETATM   11  O   UNK N   1      36.809  16.056  10.949  0.00  0.00    -0.398 OA
HETATM   12  H   UNK N   1      37.469  15.401  10.674  0.00  0.00     0.209 HD
ENDBRANCH  10  11
ENDBRANCH   9  10
BRANCH   9  13
HETATM   13  O   UNK N   1      33.276  15.243  10.959  0.00  0.00    -0.391 OA
HETATM   14  H   UNK N   1      32.565  15.348  11.610  0.00  0.00     0.210 HD
ENDBRANCH   9  13
ENDBRANCH   8   9
BRANCH   8  15
HETATM   15  O   UNK N   1      34.859  17.611   9.625  0.00  0.00    -0.390 OA
HETATM   16  H   UNK N   1      34.817  18.580   9.664  0.00  0.00     0.210 HD
ENDBRANCH   8  15
ENDBRANCH   1   8
BRANCH   1  17
HETATM   17  O   UNK N   1      32.345  17.332   8.707  0.00  0.00    -0.348 OA
BRANCH  17  18
HETATM   18  C   UNK N   1      31.005  17.089   8.267  0.00  0.00     0.292 C 
HETATM   19  C   UNK N   1      29.948  17.762   9.185  0.00  0.00     0.204 C 
HETATM   20  C   UNK N   1      28.544  17.396   8.669  0.00  0.00     0.183 C 
HETATM   21  C   UNK N   1      28.425  17.764   7.183  0.00  0.00     0.180 C 
HETATM   22  C   UNK N   1      29.560  17.060   6.415  0.00  0.00     0.179 C 
HETATM   23  O   UNK N   1      30.821  17.472   6.909  0.00  0.00    -0.348 OA
BRANCH  19  24
HETATM   24  O   UNK N   1      30.095  19.152   9.182  0.00  0.00    -0.388 OA
HETATM   25  H   UNK N   1      30.234  20.090   8.983  0.00  0.00     0.210 HD
ENDBRANCH  19  24
BRANCH  20  26
HETATM   26  O   UNK N   1      27.562  18.056   9.414  0.00  0.00    -0.390 OA
HETATM   27  H   UNK N   1      27.463  19.017   9.503  0.00  0.00     0.210 HD
ENDBRANCH  20  26
BRANCH  21  28
HETATM   28  O   UNK N   1      27.182  17.357   6.690  0.00  0.00    -0.390 OA
HETATM   29  H   UNK N   1      26.971  16.417   6.571  0.00  0.00     0.210 HD
ENDBRANCH  21  28
BRANCH  22  30
HETATM   30  C   UNK N   1      29.503  17.381   4.923  0.00  0.00     0.198 C 
BRANCH  30  31
HETATM   31  O   UNK N   1      28.958  18.649   4.706  0.00  0.00    -0.398 OA
HETATM   32  H   UNK N   1      28.427  19.422   4.460  0.00  0.00     0.209 HD
ENDBRANCH  30  31
ENDBRANCH  22  30
ENDBRANCH  17  18
ENDBRANCH   1  17
TORSDOF 17
ENDMDL
MODEL 3
REMARK VINA RESULT:      -5.7      9.917     12.963
REMARK  17 active torsions:
REMARK  status: ('A' for Active; 'I' for Inactive)
REMARK    1  A    between atoms: C_4  and  C_1 
REMARK    2  A    between atoms: O_13  and  C_1 
REMARK    3  A    between atoms: C_5  and  C_2 
REMARK    4  A    between atoms: O_14  and  C_2 
REMARK    5  A    between atoms: C_6  and  C_3 
REMARK    6  A    between atoms: O_15  and  C_3 
REMARK    7  A    between atoms: C_7  and  C_4 
REMARK    8  A    between atoms: C_4  and  O_16 
REMARK    9  A    between atoms: C_11  and  C_5 
REMARK   10  A    between atoms: C_5  and  O_17 
REMARK   11  A    between atoms: C_11  and  C_7 
REMARK   12  A    between atoms: C_7  and  O_18 
REMARK   13  A    between atoms: C_8  and  O_19 
REMARK   14  A    between atoms: C_9  and  O_20 
REMARK   15  A    between atoms: C_10  and  O_21 
REMARK   16  A    between atoms: C_11  and  O_23 
REMARK   17  A    between atoms: C_12  and  O_23 
ROOT
HETATM    1  C   UNK N   1      21.222  18.051   3.230  0.00  0.00     0.186 C 
ENDROOT
BRANCH   1   2
HETATM    2  C   UNK N   1      20.133  16.972   3.031  0.00  0.00     0.173 C 
BRANCH   2   3
HETATM    3  C   UNK N   1      20.110  16.431   1.604  0.00  0.00     0.198 C 
BRANCH   3   4
HETATM    4  O   UNK N   1      19.213  17.157   0.819  0.00  0.00    -0.398 OA
HETATM    5  H   UNK N   1      19.161  17.102  -0.149  0.00  0.00     0.209 HD
ENDBRANCH   3   4
ENDBRANCH   2   3
BRANCH   2   6
HETATM    6  O   UNK N   1      18.879  17.529   3.298  0.00  0.00    -0.391 OA
HETATM    7  H   UNK N   1      18.067  17.004   3.240  0.00  0.00     0.210 HD
ENDBRANCH   2   6
ENDBRANCH   1   2
BRANCH   1   8
HETATM    8  C   UNK N   1      20.745  19.534   3.047  0.00  0.00     0.180 C 
BRANCH   8   9
HETATM    9  C   UNK N   1      21.545  20.482   2.129  0.00  0.00     0.173 C 
BRANCH   9  10
HETATM   10  C   UNK N   1      20.794  20.818   0.841  0.00  0.00     0.198 C 
BRANCH  10  11
HETATM   11  O   UNK N   1      20.584  19.668   0.080  0.00  0.00    -0.398 OA
HETATM   12  H   UNK N   1      20.791  19.519  -0.856  0.00  0.00     0.209 HD
ENDBRANCH  10  11
ENDBRANCH   9  10
BRANCH   9  13
HETATM   13  O   UNK N   1      21.915  21.644   2.808  0.00  0.00    -0.391 OA
HETATM   14  H   UNK N   1      21.795  22.523   3.200  0.00  0.00     0.210 HD
ENDBRANCH   9  13
ENDBRANCH   8   9
BRANCH   8  15
HETATM   15  O   UNK N   1      20.617  20.134   4.303  0.00  0.00    -0.390 OA
HETATM   16  H   UNK N   1      20.575  20.200   5.270  0.00  0.00     0.210 HD
ENDBRANCH   8  15
ENDBRANCH   1   8
BRANCH   1  17
HETATM   17  O   UNK N   1      21.860  17.850   4.491  0.00  0.00    -0.348 OA
BRANCH  17  18
HETATM   18  C   UNK N   1      21.284  16.808   5.285  0.00  0.00     0.292 C 
HETATM   19  C   UNK N   1      22.298  15.674   5.603  0.00  0.00     0.204 C 
HETATM   20  C   UNK N   1      21.574  14.577   6.405  0.00  0.00     0.183 C 
HETATM   21  C   UNK N   1      20.901  15.196   7.639  0.00  0.00     0.180 C 
HETATM   22  C   UNK N   1      19.964  16.326   7.168  0.00  0.00     0.179 C 
HETATM   23  O   UNK N   1      20.699  17.320   6.477  0.00  0.00    -0.348 OA
BRANCH  19  24
HETATM   24  O   UNK N   1      23.374  16.161   6.351  0.00  0.00    -0.388 OA
HETATM   25  H   UNK N   1      24.125  16.645   6.728  0.00  0.00     0.210 HD
ENDBRANCH  19  24
BRANCH  20  26
HETATM   26  O   UNK N   1      22.474  13.580   6.790  0.00  0.00    -0.390 OA
HETATM   27  H   UNK N   1      22.582  12.714   6.366  0.00  0.00     0.210 HD
ENDBRANCH  20  26
BRANCH  21  28
HETATM   28  O   UNK N   1      20.173  14.218   8.324  0.00  0.00    -0.390 OA
HETATM   29  H   UNK N   1      19.372  13.826   7.940  0.00  0.00     0.210 HD
ENDBRANCH  21  28
BRANCH  22  30
HETATM   30  C   UNK N   1      19.256  16.988   8.348  0.00  0.00     0.198 C 
BRANCH  30  31
HETATM   31  O   UNK N   1      18.135  16.249   8.735  0.00  0.00    -0.398 OA
HETATM   32  H   UNK N   1      17.256  15.864   8.869  0.00  0.00     0.209 HD
ENDBRANCH  30  31
ENDBRANCH  22  30
ENDBRANCH  17  18
ENDBRANCH   1  17
TORSDOF 17
ENDMDL
MODEL 4
REMARK VINA RESULT:      -5.6      6.585     10.991
REMARK  17 active torsions:
REMARK  status: ('A' for Active; 'I' for Inactive)
REMARK    1  A    between atoms: C_4  and  C_1 
REMARK    2  A    between atoms: O_13  and  C_1 
REMARK    3  A    between atoms: C_5  and  C_2 
REMARK    4  A    between atoms: O_14  and  C_2 
REMARK    5  A    between atoms: C_6  and  C_3 
REMARK    6  A    between atoms: O_15  and  C_3 
REMARK    7  A    between atoms: C_7  and  C_4 
REMARK    8  A    between atoms: C_4  and  O_16 
REMARK    9  A    between atoms: C_11  and  C_5 
REMARK   10  A    between atoms: C_5  and  O_17 
REMARK   11  A    between atoms: C_11  and  C_7 
REMARK   12  A    between atoms: C_7  and  O_18 
REMARK   13  A    between atoms: C_8  and  O_19 
REMARK   14  A    between atoms: C_9  and  O_20 
REMARK   15  A    between atoms: C_10  and  O_21 
REMARK   16  A    between atoms: C_11  and  O_23 
REMARK   17  A    between atoms: C_12  and  O_23 
ROOT
HETATM    1  C   UNK N   1      22.330  18.419   3.727  0.00  0.00     0.186 C 
ENDROOT
BRANCH   1   2
HETATM    2  C   UNK N   1      21.786  17.291   4.635  0.00  0.00     0.173 C 
BRANCH   2   3
HETATM    3  C   UNK N   1      22.140  17.512   6.103  0.00  0.00     0.198 C 
BRANCH   3   4
HETATM    4  O   UNK N   1      21.396  18.567   6.634  0.00  0.00    -0.398 OA
HETATM    5  H   UNK N   1      21.299  18.750   7.582  0.00  0.00     0.209 HD
ENDBRANCH   3   4
ENDBRANCH   2   3
BRANCH   2   6
HETATM    6  O   UNK N   1      22.343  16.072   4.239  0.00  0.00    -0.391 OA
HETATM    7  H   UNK N   1      22.732  15.953   3.359  0.00  0.00     0.210 HD
ENDBRANCH   2   6
ENDBRANCH   1   2
BRANCH   1   8
HETATM    8  C   UNK N   1      21.257  19.431   3.194  0.00  0.00     0.180 C 
BRANCH   8   9
HETATM    9  C   UNK N   1      21.672  20.510   2.172  0.00  0.00     0.173 C 
BRANCH   9  10
HETATM   10  C   UNK N   1      20.513  20.942   1.276  0.00  0.00     0.198 C 
BRANCH  10  11
HETATM   11  O   UNK N   1      20.870  20.849  -0.070  0.00  0.00    -0.398 OA
HETATM   12  H   UNK N   1      21.371  20.147  -0.512  0.00  0.00     0.209 HD
ENDBRANCH  10  11
ENDBRANCH   9  10
BRANCH   9  13
HETATM   13  O   UNK N   1      22.247  21.611   2.811  0.00  0.00    -0.391 OA
HETATM   14  H   UNK N   1      22.623  22.502   2.884  0.00  0.00     0.210 HD
ENDBRANCH   9  13
ENDBRANCH   8   9
BRANCH   8  15
HETATM   15  O   UNK N   1      20.638  20.060   4.278  0.00  0.00    -0.390 OA
HETATM   16  H   UNK N   1      20.548  20.453   5.161  0.00  0.00     0.210 HD
ENDBRANCH   8  15
ENDBRANCH   1   8
BRANCH   1  17
HETATM   17  O   UNK N   1      23.403  19.084   4.394  0.00  0.00    -0.348 OA
BRANCH  17  18
HETATM   18  C   UNK N   1      24.702  18.771   3.880  0.00  0.00     0.292 C 
HETATM   19  C   UNK N   1      25.811  19.681   4.477  0.00  0.00     0.204 C 
HETATM   20  C   UNK N   1      27.155  19.311   3.824  0.00  0.00     0.183 C 
HETATM   21  C   UNK N   1      27.411  17.805   3.982  0.00  0.00     0.180 C 
HETATM   22  C   UNK N   1      26.212  17.041   3.386  0.00  0.00     0.179 C 
HETATM   23  O   UNK N   1      25.018  17.395   4.059  0.00  0.00    -0.348 OA
BRANCH  19  24
HETATM   24  O   UNK N   1      25.906  19.512   5.861  0.00  0.00    -0.388 OA
HETATM   25  H   UNK N   1      26.083  19.231   6.772  0.00  0.00     0.210 HD
ENDBRANCH  19  24
BRANCH  20  26
HETATM   26  O   UNK N   1      28.196  20.045   4.398  0.00  0.00    -0.390 OA
HETATM   27  H   UNK N   1      28.998  20.349   3.944  0.00  0.00     0.210 HD
ENDBRANCH  20  26
BRANCH  21  28
HETATM   28  O   UNK N   1      28.589  17.451   3.318  0.00  0.00    -0.390 OA
HETATM   29  H   UNK N   1      29.459  17.697   3.670  0.00  0.00     0.210 HD
ENDBRANCH  21  28
BRANCH  22  30
HETATM   30  C   UNK N   1      26.400  15.531   3.508  0.00  0.00     0.198 C 
BRANCH  30  31
HETATM   31  O   UNK N   1      25.171  14.869   3.449  0.00  0.00    -0.398 OA
HETATM   32  H   UNK N   1      24.245  14.599   3.354  0.00  0.00     0.209 HD
ENDBRANCH  30  31
ENDBRANCH  22  30
ENDBRANCH  17  18
ENDBRANCH   1  17
TORSDOF 17
ENDMDL
MODEL 5
REMARK VINA RESULT:      -5.5      2.238      4.578
REMARK  17 active torsions:
REMARK  status: ('A' for Active; 'I' for Inactive)
REMARK    1  A    between atoms: C_4  and  C_1 
REMARK    2  A    between atoms: O_13  and  C_1 
REMARK    3  A    between atoms: C_5  and  C_2 
REMARK    4  A    between atoms: O_14  and  C_2 
REMARK    5  A    between atoms: C_6  and  C_3 
REMARK    6  A    between atoms: O_15  and  C_3 
REMARK    7  A    between atoms: C_7  and  C_4 
REMARK    8  A    between atoms: C_4  and  O_16 
REMARK    9  A    between atoms: C_11  and  C_5 
REMARK   10  A    between atoms: C_5  and  O_17 
REMARK   11  A    between atoms: C_11  and  C_7 
REMARK   12  A    between atoms: C_7  and  O_18 
REMARK   13  A    between atoms: C_8  and  O_19 
REMARK   14  A    between atoms: C_9  and  O_20 
REMARK   15  A    between atoms: C_10  and  O_21 
REMARK   16  A    between atoms: C_11  and  O_23 
REMARK   17  A    between atoms: C_12  and  O_23 
ROOT
HETATM    1  C   UNK N   1      30.167  17.880   8.131  0.00  0.00     0.186 C 
ENDROOT
BRANCH   1   2
HETATM    2  C   UNK N   1      29.746  17.578   9.588  0.00  0.00     0.173 C 
BRANCH   2   3
HETATM    3  C   UNK N   1      28.309  17.073   9.680  0.00  0.00     0.198 C 
BRANCH   3   4
HETATM    4  O   UNK N   1      27.409  18.093   9.363  0.00  0.00    -0.398 OA
HETATM    5  H   UNK N   1      26.625  18.317   9.890  0.00  0.00     0.209 HD
ENDBRANCH   3   4
ENDBRANCH   2   3
BRANCH   2   6
HETATM    6  O   UNK N   1      29.838  18.748  10.346  0.00  0.00    -0.391 OA
HETATM    7  H   UNK N   1      30.531  19.406  10.183  0.00  0.00     0.210 HD
ENDBRANCH   2   6
ENDBRANCH   1   2
BRANCH   1   8
HETATM    8  C   UNK N   1      31.708  17.813   7.847  0.00  0.00     0.180 C 
BRANCH   8   9
HETATM    9  C   UNK N   1      32.231  16.935   6.691  0.00  0.00     0.173 C 
BRANCH   9  10
HETATM   10  C   UNK N   1      33.489  17.510   6.044  0.00  0.00     0.198 C 
BRANCH  10  11
HETATM   11  O   UNK N   1      34.390  17.942   7.018  0.00  0.00    -0.398 OA
HETATM   12  H   UNK N   1      34.690  17.472   7.811  0.00  0.00     0.209 HD
ENDBRANCH  10  11
ENDBRANCH   9  10
BRANCH   9  13
HETATM   13  O   UNK N   1      32.444  15.622   7.116  0.00  0.00    -0.391 OA
HETATM   14  H   UNK N   1      32.738  14.915   7.711  0.00  0.00     0.210 HD
ENDBRANCH   9  13
ENDBRANCH   8   9
BRANCH   8  15
HETATM   15  O   UNK N   1      32.377  17.450   9.020  0.00  0.00    -0.390 OA
HETATM   16  H   UNK N   1      32.527  17.326   9.970  0.00  0.00     0.210 HD
ENDBRANCH   8  15
ENDBRANCH   1   8
BRANCH   1  17
HETATM   17  O   UNK N   1      29.426  17.042   7.243  0.00  0.00    -0.348 OA
BRANCH  17  18
HETATM   18  C   UNK N   1      28.639  17.751   6.281  0.00  0.00     0.292 C 
HETATM   19  C   UNK N   1      27.446  16.907   5.753  0.00  0.00     0.204 C 
HETATM   20  C   UNK N   1      26.698  17.727   4.686  0.00  0.00     0.183 C 
HETATM   21  C   UNK N   1      26.306  19.095   5.264  0.00  0.00     0.180 C 
HETATM   22  C   UNK N   1      27.581  19.788   5.783  0.00  0.00     0.179 C 
HETATM   23  O   UNK N   1      28.194  19.004   6.789  0.00  0.00    -0.348 OA
BRANCH  19  24
HETATM   24  O   UNK N   1      26.566  16.582   6.789  0.00  0.00    -0.388 OA
HETATM   25  H   UNK N   1      25.813  16.374   7.364  0.00  0.00     0.210 HD
ENDBRANCH  19  24
BRANCH  20  26
HETATM   26  O   UNK N   1      25.562  17.040   4.249  0.00  0.00    -0.390 OA
HETATM   27  H   UNK N   1      24.682  17.075   4.656  0.00  0.00     0.210 HD
ENDBRANCH  20  26
BRANCH  21  28
HETATM   28  O   UNK N   1      25.701  19.874   4.273  0.00  0.00    -0.390 OA
HETATM   29  H   UNK N   1      25.062  19.490   3.651  0.00  0.00     0.210 HD
ENDBRANCH  21  28
BRANCH  22  30
HETATM   30  C   UNK N   1      27.266  21.161   6.372  0.00  0.00     0.198 C 
BRANCH  30  31
HETATM   31  O   UNK N   1      26.120  21.110   7.172  0.00  0.00    -0.398 OA
HETATM   32  H   UNK N   1      25.465  21.068   7.884  0.00  0.00     0.209 HD
ENDBRANCH  30  31
ENDBRANCH  22  30
ENDBRANCH  17  18
ENDBRANCH   1  17
TORSDOF 17
ENDMDL
MODEL 6
REMARK VINA RESULT:      -5.5      8.363     11.371
REMARK  17 active torsions:
REMARK  status: ('A' for Active; 'I' for Inactive)
REMARK    1  A    between atoms: C_4  and  C_1 
REMARK    2  A    between atoms: O_13  and  C_1 
REMARK    3  A    between atoms: C_5  and  C_2 
REMARK    4  A    between atoms: O_14  and  C_2 
REMARK    5  A    between atoms: C_6  and  C_3 
REMARK    6  A    between atoms: O_15  and  C_3 
REMARK    7  A    between atoms: C_7  and  C_4 
REMARK    8  A    between atoms: C_4  and  O_16 
REMARK    9  A    between atoms: C_11  and  C_5 
REMARK   10  A    between atoms: C_5  and  O_17 
REMARK   11  A    between atoms: C_11  and  C_7 
REMARK   12  A    between atoms: C_7  and  O_18 
REMARK   13  A    between atoms: C_8  and  O_19 
REMARK   14  A    between atoms: C_9  and  O_20 
REMARK   15  A    between atoms: C_10  and  O_21 
REMARK   16  A    between atoms: C_11  and  O_23 
REMARK   17  A    between atoms: C_12  and  O_23 
ROOT
HETATM    1  C   UNK N   1      22.172  19.339   3.450  0.00  0.00     0.186 C 
ENDROOT
BRANCH   1   2
HETATM    2  C   UNK N   1      20.843  19.901   2.892  0.00  0.00     0.173 C 
BRANCH   2   3
HETATM    3  C   UNK N   1      20.780  19.827   1.369  0.00  0.00     0.198 C 
BRANCH   3   4
HETATM    4  O   UNK N   1      20.360  21.047   0.836  0.00  0.00    -0.398 OA
HETATM    5  H   UNK N   1      19.478  21.210   0.467  0.00  0.00     0.209 HD
ENDBRANCH   3   4
ENDBRANCH   2   3
BRANCH   2   6
HETATM    6  O   UNK N   1      20.720  21.243   3.262  0.00  0.00    -0.391 OA
HETATM    7  H   UNK N   1      20.127  21.520   3.977  0.00  0.00     0.210 HD
ENDBRANCH   2   6
ENDBRANCH   1   2
BRANCH   1   8
HETATM    8  C   UNK N   1      23.475  20.012   2.894  0.00  0.00     0.180 C 
BRANCH   8   9
HETATM    9  C   UNK N   1      24.854  19.490   3.349  0.00  0.00     0.173 C 
BRANCH   9  10
HETATM   10  C   UNK N   1      25.383  20.232   4.574  0.00  0.00     0.198 C 
BRANCH  10  11
HETATM   11  O   UNK N   1      25.216  19.461   5.726  0.00  0.00    -0.398 OA
HETATM   12  H   UNK N   1      25.300  19.736   6.652  0.00  0.00     0.209 HD
ENDBRANCH  10  11
ENDBRANCH   9  10
BRANCH   9  13
HETATM   13  O   UNK N   1      24.818  18.113   3.575  0.00  0.00    -0.391 OA
HETATM   14  H   UNK N   1      25.094  17.187   3.483  0.00  0.00     0.210 HD
ENDBRANCH   9  13
ENDBRANCH   8   9
BRANCH   8  15
HETATM   15  O   UNK N   1      23.419  21.389   3.132  0.00  0.00    -0.390 OA
HETATM   16  H   UNK N   1      23.212  22.323   2.973  0.00  0.00     0.210 HD
ENDBRANCH   8  15
ENDBRANCH   1   8
BRANCH   1  17
HETATM   17  O   UNK N   1      22.130  19.361   4.877  0.00  0.00    -0.348 OA
BRANCH  17  18
HETATM   18  C   UNK N   1      21.434  18.257   5.465  0.00  0.00     0.292 C 
HETATM   19  C   UNK N   1      22.212  16.920   5.323  0.00  0.00     0.204 C 
HETATM   20  C   UNK N   1      21.361  15.789   5.928  0.00  0.00     0.183 C 
HETATM   21  C   UNK N   1      20.968  16.150   7.368  0.00  0.00     0.180 C 
HETATM   22  C   UNK N   1      20.248  17.512   7.350  0.00  0.00     0.179 C 
HETATM   23  O   UNK N   1      21.099  18.513   6.824  0.00  0.00    -0.348 OA
BRANCH  19  24
HETATM   24  O   UNK N   1      23.440  16.984   5.989  0.00  0.00    -0.388 OA
HETATM   25  H   UNK N   1      24.356  16.910   6.299  0.00  0.00     0.210 HD
ENDBRANCH  19  24
BRANCH  20  26
HETATM   26  O   UNK N   1      22.065  14.582   5.904  0.00  0.00    -0.390 OA
HETATM   27  H   UNK N   1      22.417  14.111   6.675  0.00  0.00     0.210 HD
ENDBRANCH  20  26
BRANCH  21  28
HETATM   28  O   UNK N   1      20.126  15.164   7.892  0.00  0.00    -0.390 OA
HETATM   29  H   UNK N   1      19.499  14.685   7.326  0.00  0.00     0.210 HD
ENDBRANCH  21  28
BRANCH  22  30
HETATM   30  C   UNK N   1      19.824  17.935   8.755  0.00  0.00     0.198 C 
BRANCH  30  31
HETATM   31  O   UNK N   1      20.088  19.290   8.970  0.00  0.00    -0.398 OA
HETATM   32  H   UNK N   1      20.064  20.251   9.088  0.00  0.00     0.209 HD
ENDBRANCH  30  31
ENDBRANCH  22  30
ENDBRANCH  17  18
ENDBRANCH   1  17
TORSDOF 17
ENDMDL
MODEL 7
REMARK VINA RESULT:      -5.4      1.877      5.775
REMARK  17 active torsions:
REMARK  status: ('A' for Active; 'I' for Inactive)
REMARK    1  A    between atoms: C_4  and  C_1 
REMARK    2  A    between atoms: O_13  and  C_1 
REMARK    3  A    between atoms: C_5  and  C_2 
REMARK    4  A    between atoms: O_14  and  C_2 
REMARK    5  A    between atoms: C_6  and  C_3 
REMARK    6  A    between atoms: O_15  and  C_3 
REMARK    7  A    between atoms: C_7  and  C_4 
REMARK    8  A    between atoms: C_4  and  O_16 
REMARK    9  A    between atoms: C_11  and  C_5 
REMARK   10  A    between atoms: C_5  and  O_17 
REMARK   11  A    between atoms: C_11  and  C_7 
REMARK   12  A    between atoms: C_7  and  O_18 
REMARK   13  A    between atoms: C_8  and  O_19 
REMARK   14  A    between atoms: C_9  and  O_20 
REMARK   15  A    between atoms: C_10  and  O_21 
REMARK   16  A    between atoms: C_11  and  O_23 
REMARK   17  A    between atoms: C_12  and  O_23 
ROOT
HETATM    1  C   UNK N   1      28.733  18.253   7.268  0.00  0.00     0.186 C 
ENDROOT
BRANCH   1   2
HETATM    2  C   UNK N   1      27.839  19.023   6.269  0.00  0.00     0.173 C 
BRANCH   2   3
HETATM    3  C   UNK N   1      27.513  20.433   6.753  0.00  0.00     0.198 C 
BRANCH   3   4
HETATM    4  O   UNK N   1      26.151  20.553   7.033  0.00  0.00    -0.398 OA
HETATM    5  H   UNK N   1      25.787  20.801   7.898  0.00  0.00     0.209 HD
ENDBRANCH   3   4
ENDBRANCH   2   3
BRANCH   2   6
HETATM    6  O   UNK N   1      26.633  18.336   6.107  0.00  0.00    -0.391 OA
HETATM    7  H   UNK N   1      25.777  18.778   6.218  0.00  0.00     0.210 HD
ENDBRANCH   2   6
ENDBRANCH   1   2
BRANCH   1   8
HETATM    8  C   UNK N   1      28.223  18.230   8.751  0.00  0.00     0.180 C 
BRANCH   8   9
HETATM    9  C   UNK N   1      29.245  18.195   9.906  0.00  0.00     0.173 C 
BRANCH   9  10
HETATM   10  C   UNK N   1      29.506  16.777  10.411  0.00  0.00     0.198 C 
BRANCH  10  11
HETATM   11  O   UNK N   1      30.740  16.311   9.954  0.00  0.00    -0.398 OA
HETATM   12  H   UNK N   1      30.952  15.448   9.566  0.00  0.00     0.209 HD
ENDBRANCH  10  11
ENDBRANCH   9  10
BRANCH   9  13
HETATM   13  O   UNK N   1      30.438  18.822   9.539  0.00  0.00    -0.391 OA
HETATM   14  H   UNK N   1      31.000  19.522   9.173  0.00  0.00     0.210 HD
ENDBRANCH   9  13
ENDBRANCH   8   9
BRANCH   8  15
HETATM   15  O   UNK N   1      27.330  17.166   8.914  0.00  0.00    -0.390 OA
HETATM   16  H   UNK N   1      26.580  16.581   8.720  0.00  0.00     0.210 HD
ENDBRANCH   8  15
ENDBRANCH   1   8
BRANCH   1  17
HETATM   17  O   UNK N   1      28.973  16.937   6.768  0.00  0.00    -0.348 OA
BRANCH  17  18
HETATM   18  C   UNK N   1      30.351  16.645   6.511  0.00  0.00     0.292 C 
HETATM   19  C   UNK N   1      30.678  16.615   4.993  0.00  0.00     0.204 C 
HETATM   20  C   UNK N   1      32.160  16.237   4.816  0.00  0.00     0.183 C 
HETATM   21  C   UNK N   1      33.040  17.188   5.640  0.00  0.00     0.180 C 
HETATM   22  C   UNK N   1      32.569  17.140   7.107  0.00  0.00     0.179 C 
HETATM   23  O   UNK N   1      31.214  17.540   7.203  0.00  0.00    -0.348 OA
BRANCH  19  24
HETATM   24  O   UNK N   1      30.445  17.863   4.406  0.00  0.00    -0.388 OA
HETATM   25  H   UNK N   1      30.094  18.659   3.980  0.00  0.00     0.210 HD
ENDBRANCH  19  24
BRANCH  20  26
HETATM   26  O   UNK N   1      32.519  16.287   3.467  0.00  0.00    -0.390 OA
HETATM   27  H   UNK N   1      33.422  16.362   3.119  0.00  0.00     0.210 HD
ENDBRANCH  20  26
BRANCH  21  28
HETATM   28  O   UNK N   1      34.379  16.795   5.549  0.00  0.00    -0.390 OA
HETATM   29  H   UNK N   1      35.032  17.340   5.081  0.00  0.00     0.210 HD
ENDBRANCH  21  28
BRANCH  22  30
HETATM   30  C   UNK N   1      33.405  18.065   7.989  0.00  0.00     0.198 C 
BRANCH  30  31
HETATM   31  O   UNK N   1      33.342  17.669   9.327  0.00  0.00    -0.398 OA
HETATM   32  H   UNK N   1      33.381  17.584  10.292  0.00  0.00     0.209 HD
ENDBRANCH  30  31
ENDBRANCH  22  30
ENDBRANCH  17  18
ENDBRANCH   1  17
TORSDOF 17
ENDMDL
MODEL 8
REMARK VINA RESULT:      -5.4      1.360      3.474
REMARK  17 active torsions:
REMARK  status: ('A' for Active; 'I' for Inactive)
REMARK    1  A    between atoms: C_4  and  C_1 
REMARK    2  A    between atoms: O_13  and  C_1 
REMARK    3  A    between atoms: C_5  and  C_2 
REMARK    4  A    between atoms: O_14  and  C_2 
REMARK    5  A    between atoms: C_6  and  C_3 
REMARK    6  A    between atoms: O_15  and  C_3 
REMARK    7  A    between atoms: C_7  and  C_4 
REMARK    8  A    between atoms: C_4  and  O_16 
REMARK    9  A    between atoms: C_11  and  C_5 
REMARK   10  A    between atoms: C_5  and  O_17 
REMARK   11  A    between atoms: C_11  and  C_7 
REMARK   12  A    between atoms: C_7  and  O_18 
REMARK   13  A    between atoms: C_8  and  O_19 
REMARK   14  A    between atoms: C_9  and  O_20 
REMARK   15  A    between atoms: C_10  and  O_21 
REMARK   16  A    between atoms: C_11  and  O_23 
REMARK   17  A    between atoms: C_12  and  O_23 
ROOT
HETATM    1  C   UNK N   1      32.850  16.183   7.072  0.00  0.00     0.186 C 
ENDROOT
BRANCH   1   2
HETATM    2  C   UNK N   1      33.075  14.782   6.458  0.00  0.00     0.173 C 
BRANCH   2   3
HETATM    3  C   UNK N   1      33.141  13.690   7.523  0.00  0.00     0.198 C 
BRANCH   3   4
HETATM    4  O   UNK N   1      32.278  13.983   8.580  0.00  0.00    -0.398 OA
HETATM    5  H   UNK N   1      32.395  13.664   9.489  0.00  0.00     0.209 HD
ENDBRANCH   3   4
ENDBRANCH   2   3
BRANCH   2   6
HETATM    6  O   UNK N   1      34.285  14.774   5.760  0.00  0.00    -0.391 OA
HETATM    7  H   UNK N   1      34.321  14.921   4.803  0.00  0.00     0.210 HD
ENDBRANCH   2   6
ENDBRANCH   1   2
BRANCH   1   8
HETATM    8  C   UNK N   1      34.139  17.060   7.244  0.00  0.00     0.180 C 
BRANCH   8   9
HETATM    9  C   UNK N   1      34.354  17.848   8.553  0.00  0.00     0.173 C 
BRANCH   9  10
HETATM   10  C   UNK N   1      34.837  16.958   9.697  0.00  0.00     0.198 C 
BRANCH  10  11
HETATM   11  O   UNK N   1      33.783  16.206  10.215  0.00  0.00    -0.398 OA
HETATM   12  H   UNK N   1      32.911  16.043   9.824  0.00  0.00     0.209 HD
ENDBRANCH  10  11
ENDBRANCH   9  10
BRANCH   9  13
HETATM   13  O   UNK N   1      35.223  18.922   8.355  0.00  0.00    -0.391 OA
HETATM   14  H   UNK N   1      35.980  19.501   8.536  0.00  0.00     0.210 HD
ENDBRANCH   9  13
ENDBRANCH   8   9
BRANCH   8  15
HETATM   15  O   UNK N   1      34.238  17.948   6.169  0.00  0.00    -0.390 OA
HETATM   16  H   UNK N   1      34.492  18.276   5.291  0.00  0.00     0.210 HD
ENDBRANCH   8  15
ENDBRANCH   1   8
BRANCH   1  17
HETATM   17  O   UNK N   1      31.838  16.866   6.330  0.00  0.00    -0.348 OA
BRANCH  17  18
HETATM   18  C   UNK N   1      30.781  17.406   7.130  0.00  0.00     0.292 C 
HETATM   19  C   UNK N   1      29.449  17.537   6.343  0.00  0.00     0.204 C 
HETATM   20  C   UNK N   1      28.394  18.178   7.263  0.00  0.00     0.183 C 
HETATM   21  C   UNK N   1      28.289  17.375   8.569  0.00  0.00     0.180 C 
HETATM   22  C   UNK N   1      29.689  17.297   9.207  0.00  0.00     0.179 C 
HETATM   23  O   UNK N   1      30.597  16.659   8.328  0.00  0.00    -0.348 OA
BRANCH  19  24
HETATM   24  O   UNK N   1      28.993  16.285   5.918  0.00  0.00    -0.388 OA
HETATM   25  H   UNK N   1      28.571  15.421   5.797  0.00  0.00     0.210 HD
ENDBRANCH  19  24
BRANCH  20  26
HETATM   26  O   UNK N   1      27.154  18.231   6.623  0.00  0.00    -0.390 OA
HETATM   27  H   UNK N   1      26.687  19.036   6.349  0.00  0.00     0.210 HD
ENDBRANCH  20  26
BRANCH  21  28
HETATM   28  O   UNK N   1      27.394  18.003   9.441  0.00  0.00    -0.390 OA
HETATM   29  H   UNK N   1      27.621  18.838   9.880  0.00  0.00     0.210 HD
ENDBRANCH  21  28
BRANCH  22  30
HETATM   30  C   UNK N   1      29.659  16.511  10.516  0.00  0.00     0.198 C 
BRANCH  30  31
HETATM   31  O   UNK N   1      30.740  15.629  10.593  0.00  0.00    -0.398 OA
HETATM   32  H   UNK N   1      31.397  14.955  10.825  0.00  0.00     0.209 HD
ENDBRANCH  30  31
ENDBRANCH  22  30
ENDBRANCH  17  18
ENDBRANCH   1  17
TORSDOF 17
ENDMDL
MODEL 9
REMARK VINA RESULT:      -5.4      1.654      3.376
REMARK  17 active torsions:
REMARK  status: ('A' for Active; 'I' for Inactive)
REMARK    1  A    between atoms: C_4  and  C_1 
REMARK    2  A    between atoms: O_13  and  C_1 
REMARK    3  A    between atoms: C_5  and  C_2 
REMARK    4  A    between atoms: O_14  and  C_2 
REMARK    5  A    between atoms: C_6  and  C_3 
REMARK    6  A    between atoms: O_15  and  C_3 
REMARK    7  A    between atoms: C_7  and  C_4 
REMARK    8  A    between atoms: C_4  and  O_16 
REMARK    9  A    between atoms: C_11  and  C_5 
REMARK   10  A    between atoms: C_5  and  O_17 
REMARK   11  A    between atoms: C_11  and  C_7 
REMARK   12  A    between atoms: C_7  and  O_18 
REMARK   13  A    between atoms: C_8  and  O_19 
REMARK   14  A    between atoms: C_9  and  O_20 
REMARK   15  A    between atoms: C_10  and  O_21 
REMARK   16  A    between atoms: C_11  and  O_23 
REMARK   17  A    between atoms: C_12  and  O_23 
ROOT
HETATM    1  C   UNK N   1      32.754  15.737   7.838  0.00  0.00     0.186 C 
ENDROOT
BRANCH   1   2
HETATM    2  C   UNK N   1      33.189  14.349   7.312  0.00  0.00     0.173 C 
BRANCH   2   3
HETATM    3  C   UNK N   1      33.984  14.449   6.012  0.00  0.00     0.198 C 
BRANCH   3   4
HETATM    4  O   UNK N   1      33.130  14.394   4.910  0.00  0.00    -0.398 OA
HETATM    5  H   UNK N   1      32.651  15.156   4.547  0.00  0.00     0.209 HD
ENDBRANCH   3   4
ENDBRANCH   2   3
BRANCH   2   6
HETATM    6  O   UNK N   1      32.054  13.575   7.062  0.00  0.00    -0.391 OA
HETATM    7  H   UNK N   1      31.777  13.354   6.159  0.00  0.00     0.210 HD
ENDBRANCH   2   6
ENDBRANCH   1   2
BRANCH   1   8
HETATM    8  C   UNK N   1      33.700  16.378   8.912  0.00  0.00     0.180 C 
BRANCH   8   9
HETATM    9  C   UNK N   1      34.210  15.518  10.086  0.00  0.00     0.173 C 
BRANCH   9  10
HETATM   10  C   UNK N   1      35.387  16.164  10.815  0.00  0.00     0.198 C 
BRANCH  10  11
HETATM   11  O   UNK N   1      35.645  17.436  10.302  0.00  0.00    -0.398 OA
HETATM   12  H   UNK N   1      36.304  17.696   9.640  0.00  0.00     0.209 HD
ENDBRANCH  10  11
ENDBRANCH   9  10
BRANCH   9  13
HETATM   13  O   UNK N   1      33.176  15.219  10.976  0.00  0.00    -0.391 OA
HETATM   14  H   UNK N   1      32.752  15.094  11.839  0.00  0.00     0.210 HD
ENDBRANCH   9  13
ENDBRANCH   8   9
BRANCH   8  15
HETATM   15  O   UNK N   1      33.093  17.526   9.432  0.00  0.00    -0.390 OA
HETATM   16  H   UNK N   1      32.384  18.097   9.768  0.00  0.00     0.210 HD
ENDBRANCH   8  15
ENDBRANCH   1   8
BRANCH   1  17
HETATM   17  O   UNK N   1      32.536  16.613   6.731  0.00  0.00    -0.348 OA
BRANCH  17  18
HETATM   18  C   UNK N   1      31.211  17.146   6.652  0.00  0.00     0.292 C 
HETATM   19  C   UNK N   1      30.437  16.630   5.407  0.00  0.00     0.204 C 
HETATM   20  C   UNK N   1      29.051  17.302   5.377  0.00  0.00     0.183 C 
HETATM   21  C   UNK N   1      28.334  17.072   6.715  0.00  0.00     0.180 C 
HETATM   22  C   UNK N   1      29.239  17.593   7.849  0.00  0.00     0.179 C 
HETATM   23  O   UNK N   1      30.477  16.906   7.847  0.00  0.00    -0.348 OA
BRANCH  19  24
HETATM   24  O   UNK N   1      30.278  15.242   5.457  0.00  0.00    -0.388 OA
HETATM   25  H   UNK N   1      30.172  14.294   5.289  0.00  0.00     0.210 HD
ENDBRANCH  19  24
BRANCH  20  26
HETATM   26  O   UNK N   1      28.287  16.796   4.322  0.00  0.00    -0.390 OA
HETATM   27  H   UNK N   1      28.617  16.559   3.440  0.00  0.00     0.210 HD
ENDBRANCH  20  26
BRANCH  21  28
HETATM   28  O   UNK N   1      27.112  17.751   6.721  0.00  0.00    -0.390 OA
HETATM   29  H   UNK N   1      26.897  18.396   7.415  0.00  0.00     0.210 HD
ENDBRANCH  21  28
BRANCH  22  30
HETATM   30  C   UNK N   1      28.585  17.398   9.215  0.00  0.00     0.198 C 
BRANCH  30  31
HETATM   31  O   UNK N   1      27.492  18.254   9.371  0.00  0.00    -0.398 OA
HETATM   32  H   UNK N   1      26.668  18.702   9.617  0.00  0.00     0.209 HD
ENDBRANCH  30  31
ENDBRANCH  22  30
ENDBRANCH  17  18
ENDBRANCH   1  17
TORSDOF 17
ENDMDL
