MODEL 1
REMARK VINA RESULT:      -4.3      0.000      0.000
REMARK  7 active torsions:
REMARK  status: ('A' for Active; 'I' for Inactive)
REMARK    1  A    between atoms: C_6  and  C_2 
REMARK    2  A    between atoms: C_7  and  C_3 
REMARK    3  A    between atoms: C_8  and  C_4 
REMARK    4  A    between atoms: N_13  and  C_6 
REMARK    5  A    between atoms: N_14  and  C_7 
REMARK    6  A    between atoms: N_14  and  C_8 
REMARK    7  A    between atoms: P_17  and  N_14 
ROOT
HETATM    1  C   UNK N   1      25.132  27.358  -5.257  0.00  0.00     0.042 C 
HETATM    2  C   UNK N   1      25.521  27.696  -3.800  0.00  0.00     0.103 C 
HETATM    3  C   UNK N   1      26.327  26.906  -6.099  0.00  0.00     0.180 C 
HETATM    4  N   UNK N   1      26.828  27.187  -3.352  0.00  0.00    -0.226 NA
HETATM    5  O   UNK N   1      26.231  24.576  -3.405  0.00  0.00    -0.254 OA
HETATM    6  O   UNK N   1      26.702  25.588  -5.794  0.00  0.00    -0.311 OA
HETATM    7  P   UNK N   1      27.175  25.582  -4.115  0.00  0.00     0.347 P 
ENDROOT
BRANCH   7   8
HETATM    8  N   UNK N   1      28.860  24.993  -3.841  0.00  0.00    -0.225 NA
BRANCH   8   9
HETATM    9  C   UNK N   1      28.766  23.559  -3.599  0.00  0.00     0.115 C 
BRANCH   9  10
HETATM   10  C   UNK N   1      29.439  23.191  -2.290  0.00  0.00     0.129 C 
HETATM   11 Cl   UNK N   1      31.038  22.490  -2.630  0.00  0.00    -0.129 Cl
ENDBRANCH   9  10
ENDBRANCH   8   9
BRANCH   8  12
HETATM   12  C   UNK N   1      29.638  25.191  -5.055  0.00  0.00     0.115 C 
BRANCH  12  13
HETATM   13  C   UNK N   1      31.063  25.552  -4.677  0.00  0.00     0.129 C 
HETATM   14 Cl   UNK N   1      31.063  26.642  -3.274  0.00  0.00    -0.129 Cl
ENDBRANCH  12  13
ENDBRANCH   8  12
ENDBRANCH   7   8
BRANCH   4  15
HETATM   15  C   UNK N   1      27.852  28.158  -3.705  0.00  0.00     0.115 C 
BRANCH  15  16
HETATM   16  C   UNK N   1      27.461  29.514  -3.147  0.00  0.00     0.129 C 
HETATM   17 Cl   UNK N   1      28.100  29.707  -1.500  0.00  0.00    -0.129 Cl
ENDBRANCH  15  16
ENDBRANCH   4  15
TORSDOF 7
ENDMDL
MODEL 2
REMARK VINA RESULT:      -4.2     13.870     15.702
REMARK  7 active torsions:
REMARK  status: ('A' for Active; 'I' for Inactive)
REMARK    1  A    between atoms: C_6  and  C_2 
REMARK    2  A    between atoms: C_7  and  C_3 
REMARK    3  A    between atoms: C_8  and  C_4 
REMARK    4  A    between atoms: N_13  and  C_6 
REMARK    5  A    between atoms: N_14  and  C_7 
REMARK    6  A    between atoms: N_14  and  C_8 
REMARK    7  A    between atoms: P_17  and  N_14 
ROOT
HETATM    1  C   UNK N   1      33.116  16.393   3.443  0.00  0.00     0.042 C 
HETATM    2  C   UNK N   1      33.012  15.026   4.155  0.00  0.00     0.103 C 
HETATM    3  C   UNK N   1      32.591  17.548   4.299  0.00  0.00     0.180 C 
HETATM    4  N   UNK N   1      32.806  15.077   5.613  0.00  0.00    -0.226 NA
HETATM    5  O   UNK N   1      35.188  16.113   6.272  0.00  0.00    -0.254 OA
HETATM    6  O   UNK N   1      33.504  17.897   5.306  0.00  0.00    -0.311 OA
HETATM    7  P   UNK N   1      33.684  16.492   6.323  0.00  0.00     0.347 P 
ENDROOT
BRANCH   7   8
HETATM    8  N   UNK N   1      33.287  16.801   8.058  0.00  0.00    -0.225 NA
BRANCH   8   9
HETATM    9  C   UNK N   1      34.538  17.158   8.715  0.00  0.00     0.115 C 
BRANCH   9  10
HETATM   10  C   UNK N   1      34.792  16.259   9.911  0.00  0.00     0.129 C 
HETATM   11 Cl   UNK N   1      33.512  15.027  10.000  0.00  0.00    -0.129 Cl
ENDBRANCH   9  10
ENDBRANCH   8   9
BRANCH   8  12
HETATM   12  C   UNK N   1      32.394  17.945   8.147  0.00  0.00     0.115 C 
BRANCH  12  13
HETATM   13  C   UNK N   1      31.036  17.478   8.638  0.00  0.00     0.129 C 
HETATM   14 Cl   UNK N   1      30.157  18.834   9.378  0.00  0.00    -0.129 Cl
ENDBRANCH  12  13
ENDBRANCH   8  12
ENDBRANCH   7   8
BRANCH   4  15
HETATM   15  C   UNK N   1      31.380  15.169   5.879  0.00  0.00     0.115 C 
BRANCH  15  16
HETATM   16  C   UNK N   1      30.663  14.073   5.113  0.00  0.00     0.129 C 
HETATM   17 Cl   UNK N   1      29.359  14.767   4.124  0.00  0.00    -0.129 Cl
ENDBRANCH  15  16
ENDBRANCH   4  15
TORSDOF 7
ENDMDL
MODEL 3
REMARK VINA RESULT:      -4.2     13.073     14.989
REMARK  7 active torsions:
REMARK  status: ('A' for Active; 'I' for Inactive)
REMARK    1  A    between atoms: C_6  and  C_2 
REMARK    2  A    between atoms: C_7  and  C_3 
REMARK    3  A    between atoms: C_8  and  C_4 
REMARK    4  A    between atoms: N_13  and  C_6 
REMARK    5  A    between atoms: N_14  and  C_7 
REMARK    6  A    between atoms: N_14  and  C_8 
REMARK    7  A    between atoms: P_17  and  N_14 
ROOT
HETATM    1  C   UNK N   1      34.018  15.706   8.701  0.00  0.00     0.042 C 
HETATM    2  C   UNK N   1      33.555  17.151   8.994  0.00  0.00     0.103 C 
HETATM    3  C   UNK N   1      33.063  14.958   7.768  0.00  0.00     0.180 C 
HETATM    4  N   UNK N   1      32.541  17.698   8.077  0.00  0.00    -0.226 NA
HETATM    5  O   UNK N   1      34.070  17.807   5.880  0.00  0.00    -0.254 OA
HETATM    6  O   UNK N   1      33.214  15.376   6.436  0.00  0.00    -0.311 OA
HETATM    7  P   UNK N   1      32.807  17.072   6.399  0.00  0.00     0.347 P 
ENDROOT
BRANCH   7   8
HETATM    8  N   UNK N   1      31.469  17.468   5.252  0.00  0.00    -0.225 NA
BRANCH   8   9
HETATM    9  C   UNK N   1      32.084  17.658   3.945  0.00  0.00     0.115 C 
BRANCH   9  10
HETATM   10  C   UNK N   1      31.977  16.395   3.112  0.00  0.00     0.129 C 
HETATM   11 Cl   UNK N   1      33.603  15.724   2.853  0.00  0.00    -0.129 Cl
ENDBRANCH   9  10
ENDBRANCH   8   9
BRANCH   8  12
HETATM   12  C   UNK N   1      30.566  16.331   5.160  0.00  0.00     0.115 C 
BRANCH  12  13
HETATM   13  C   UNK N   1      29.149  16.799   5.434  0.00  0.00     0.129 C 
HETATM   14 Cl   UNK N   1      28.417  17.430   3.943  0.00  0.00    -0.129 Cl
ENDBRANCH  12  13
ENDBRANCH   8  12
ENDBRANCH   7   8
BRANCH   4  15
HETATM   15  C   UNK N   1      31.222  17.324   8.564  0.00  0.00     0.115 C 
BRANCH  15  16
HETATM   16  C   UNK N   1      30.481  18.576   8.994  0.00  0.00     0.129 C 
HETATM   17 Cl   UNK N   1      28.816  18.172   9.465  0.00  0.00    -0.129 Cl
ENDBRANCH  15  16
ENDBRANCH   4  15
TORSDOF 7
ENDMDL
MODEL 4
REMARK VINA RESULT:      -4.1      3.237      6.013
REMARK  7 active torsions:
REMARK  status: ('A' for Active; 'I' for Inactive)
REMARK    1  A    between atoms: C_6  and  C_2 
REMARK    2  A    between atoms: C_7  and  C_3 
REMARK    3  A    between atoms: C_8  and  C_4 
REMARK    4  A    between atoms: N_13  and  C_6 
REMARK    5  A    between atoms: N_14  and  C_7 
REMARK    6  A    between atoms: N_14  and  C_8 
REMARK    7  A    between atoms: P_17  and  N_14 
ROOT
HETATM    1  C   UNK N   1      31.320  22.576  -2.908  0.00  0.00     0.042 C 
HETATM    2  C   UNK N   1      30.311  21.671  -3.649  0.00  0.00     0.103 C 
HETATM    3  C   UNK N   1      31.309  24.018  -3.420  0.00  0.00     0.180 C 
HETATM    4  N   UNK N   1      29.268  22.370  -4.418  0.00  0.00    -0.226 NA
HETATM    5  O   UNK N   1      27.960  23.450  -2.344  0.00  0.00    -0.254 OA
HETATM    6  O   UNK N   1      30.189  24.721  -2.949  0.00  0.00    -0.311 OA
HETATM    7  P   UNK N   1      28.785  23.900  -3.578  0.00  0.00     0.347 P 
ENDROOT
BRANCH   7   8
HETATM    8  N   UNK N   1      27.707  24.963  -4.562  0.00  0.00    -0.225 NA
BRANCH   8   9
HETATM    9  C   UNK N   1      26.360  24.423  -4.435  0.00  0.00     0.115 C 
BRANCH   9  10
HETATM   10  C   UNK N   1      25.882  23.856  -5.758  0.00  0.00     0.129 C 
HETATM   11 Cl   UNK N   1      25.653  25.185  -6.917  0.00  0.00    -0.129 Cl
ENDBRANCH   9  10
ENDBRANCH   8   9
BRANCH   8  12
HETATM   12  C   UNK N   1      27.707  26.302  -3.992  0.00  0.00     0.115 C 
BRANCH  12  13
HETATM   13  C   UNK N   1      26.380  26.546  -3.298  0.00  0.00     0.129 C 
HETATM   14 Cl   UNK N   1      25.555  27.938  -4.032  0.00  0.00    -0.129 Cl
ENDBRANCH  12  13
ENDBRANCH   8  12
ENDBRANCH   7   8
BRANCH   4  15
HETATM   15  C   UNK N   1      29.781  22.653  -5.749  0.00  0.00     0.115 C 
BRANCH  15  16
HETATM   16  C   UNK N   1      28.961  21.883  -6.768  0.00  0.00     0.129 C 
HETATM   17 Cl   UNK N   1      29.619  20.245  -6.974  0.00  0.00    -0.129 Cl
ENDBRANCH  15  16
ENDBRANCH   4  15
TORSDOF 7
ENDMDL
MODEL 5
REMARK VINA RESULT:      -4.1     15.186     17.669
REMARK  7 active torsions:
REMARK  status: ('A' for Active; 'I' for Inactive)
REMARK    1  A    between atoms: C_6  and  C_2 
REMARK    2  A    between atoms: C_7  and  C_3 
REMARK    3  A    between atoms: C_8  and  C_4 
REMARK    4  A    between atoms: N_13  and  C_6 
REMARK    5  A    between atoms: N_14  and  C_7 
REMARK    6  A    between atoms: N_14  and  C_8 
REMARK    7  A    between atoms: P_17  and  N_14 
ROOT
HETATM    1  C   UNK N   1      31.996  17.486   8.629  0.00  0.00     0.042 C 
HETATM    2  C   UNK N   1      33.198  18.149   7.918  0.00  0.00     0.103 C 
HETATM    3  C   UNK N   1      32.109  15.961   8.685  0.00  0.00     0.180 C 
HETATM    4  N   UNK N   1      34.394  17.304   7.761  0.00  0.00    -0.226 NA
HETATM    5  O   UNK N   1      35.039  17.113  10.354  0.00  0.00    -0.254 OA
HETATM    6  O   UNK N   1      33.032  15.550   9.660  0.00  0.00    -0.311 OA
HETATM    7  P   UNK N   1      34.579  16.202   9.186  0.00  0.00     0.347 P 
ENDROOT
BRANCH   7   8
HETATM    8  N   UNK N   1      35.858  14.945   8.975  0.00  0.00    -0.225 NA
BRANCH   8   9
HETATM    9  C   UNK N   1      36.629  14.923  10.211  0.00  0.00     0.115 C 
BRANCH   9  10
HETATM   10  C   UNK N   1      36.252  13.722  11.058  0.00  0.00     0.129 C 
HETATM   11 Cl   UNK N   1      35.343  14.273  12.484  0.00  0.00    -0.129 Cl
ENDBRANCH   9  10
ENDBRANCH   8   9
BRANCH   8  12
HETATM   12  C   UNK N   1      35.228  13.643   8.819  0.00  0.00     0.115 C 
BRANCH  12  13
HETATM   13  C   UNK N   1      35.552  13.096   7.441  0.00  0.00     0.129 C 
HETATM   14 Cl   UNK N   1      36.873  14.033   6.710  0.00  0.00    -0.129 Cl
ENDBRANCH  12  13
ENDBRANCH   8  12
ENDBRANCH   7   8
BRANCH   4  15
HETATM   15  C   UNK N   1      34.265  16.539   6.531  0.00  0.00     0.115 C 
BRANCH  15  16
HETATM   16  C   UNK N   1      33.588  17.401   5.482  0.00  0.00     0.129 C 
HETATM   17 Cl   UNK N   1      32.146  16.577   4.849  0.00  0.00    -0.129 Cl
ENDBRANCH  15  16
ENDBRANCH   4  15
TORSDOF 7
ENDMDL
MODEL 6
REMARK VINA RESULT:      -4.1      1.769      2.087
REMARK  7 active torsions:
REMARK  status: ('A' for Active; 'I' for Inactive)
REMARK    1  A    between atoms: C_6  and  C_2 
REMARK    2  A    between atoms: C_7  and  C_3 
REMARK    3  A    between atoms: C_8  and  C_4 
REMARK    4  A    between atoms: N_13  and  C_6 
REMARK    5  A    between atoms: N_14  and  C_7 
REMARK    6  A    between atoms: N_14  and  C_8 
REMARK    7  A    between atoms: P_17  and  N_14 
ROOT
HETATM    1  C   UNK N   1      25.067  27.312  -5.221  0.00  0.00     0.042 C 
HETATM    2  C   UNK N   1      25.713  27.620  -3.851  0.00  0.00     0.103 C 
HETATM    3  C   UNK N   1      26.071  26.767  -6.239  0.00  0.00     0.180 C 
HETATM    4  N   UNK N   1      27.032  27.011  -3.613  0.00  0.00    -0.226 NA
HETATM    5  O   UNK N   1      26.234  24.455  -3.533  0.00  0.00    -0.254 OA
HETATM    6  O   UNK N   1      26.388  25.424  -5.980  0.00  0.00    -0.311 OA
HETATM    7  P   UNK N   1      27.125  25.383  -4.400  0.00  0.00     0.347 P 
ENDROOT
BRANCH   7   8
HETATM    8  N   UNK N   1      28.781  24.663  -4.394  0.00  0.00    -0.225 NA
BRANCH   8   9
HETATM    9  C   UNK N   1      28.714  23.469  -3.562  0.00  0.00     0.115 C 
BRANCH   9  10
HETATM   10  C   UNK N   1      29.773  23.512  -2.475  0.00  0.00     0.129 C 
HETATM   11 Cl   UNK N   1      31.028  22.304  -2.832  0.00  0.00    -0.129 Cl
ENDBRANCH   9  10
ENDBRANCH   8   9
BRANCH   8  12
HETATM   12  C   UNK N   1      29.126  24.247  -5.745  0.00  0.00     0.115 C 
BRANCH  12  13
HETATM   13  C   UNK N   1      28.914  22.749  -5.872  0.00  0.00     0.129 C 
HETATM   14 Cl   UNK N   1      27.585  22.417  -7.003  0.00  0.00    -0.129 Cl
ENDBRANCH  12  13
ENDBRANCH   8  12
ENDBRANCH   7   8
BRANCH   4  15
HETATM   15  C   UNK N   1      28.057  27.898  -4.141  0.00  0.00     0.115 C 
BRANCH  15  16
HETATM   16  C   UNK N   1      27.823  29.297  -3.603  0.00  0.00     0.129 C 
HETATM   17 Cl   UNK N   1      27.656  30.450  -4.945  0.00  0.00    -0.129 Cl
ENDBRANCH  15  16
ENDBRANCH   4  15
TORSDOF 7
ENDMDL
MODEL 7
REMARK VINA RESULT:      -4.0     16.169     17.909
REMARK  7 active torsions:
REMARK  status: ('A' for Active; 'I' for Inactive)
REMARK    1  A    between atoms: C_6  and  C_2 
REMARK    2  A    between atoms: C_7  and  C_3 
REMARK    3  A    between atoms: C_8  and  C_4 
REMARK    4  A    between atoms: N_13  and  C_6 
REMARK    5  A    between atoms: N_14  and  C_7 
REMARK    6  A    between atoms: N_14  and  C_8 
REMARK    7  A    between atoms: P_17  and  N_14 
ROOT
HETATM    1  C   UNK N   1      19.272  15.694   5.770  0.00  0.00     0.042 C 
HETATM    2  C   UNK N   1      20.112  16.626   6.671  0.00  0.00     0.103 C 
HETATM    3  C   UNK N   1      19.997  14.390   5.428  0.00  0.00     0.180 C 
HETATM    4  N   UNK N   1      21.254  15.997   7.355  0.00  0.00    -0.226 NA
HETATM    5  O   UNK N   1      19.856  14.400   8.989  0.00  0.00    -0.254 OA
HETATM    6  O   UNK N   1      19.993  13.500   6.514  0.00  0.00    -0.311 OA
HETATM    7  P   UNK N   1      20.856  14.290   7.807  0.00  0.00     0.347 P 
ENDROOT
BRANCH   7   8
HETATM    8  N   UNK N   1      22.271  13.347   8.413  0.00  0.00    -0.225 NA
BRANCH   8   9
HETATM    9  C   UNK N   1      22.261  13.465   9.866  0.00  0.00     0.115 C 
BRANCH   9  10
HETATM   10  C   UNK N   1      23.376  12.641  10.480  0.00  0.00     0.129 C 
HETATM   11 Cl   UNK N   1      22.819  11.959  12.025  0.00  0.00    -0.129 Cl
ENDBRANCH   9  10
ENDBRANCH   8   9
BRANCH   8  12
HETATM   12  C   UNK N   1      22.088  11.942   8.079  0.00  0.00     0.115 C 
BRANCH  12  13
HETATM   13  C   UNK N   1      23.018  11.578   6.937  0.00  0.00     0.129 C 
HETATM   14 Cl   UNK N   1      23.817  10.027   7.274  0.00  0.00    -0.129 Cl
ENDBRANCH  12  13
ENDBRANCH   8  12
ENDBRANCH   7   8
BRANCH   4  15
HETATM   15  C   UNK N   1      22.408  16.040   6.470  0.00  0.00     0.115 C 
BRANCH  15  16
HETATM   16  C   UNK N   1      22.457  17.395   5.788  0.00  0.00     0.129 C 
HETATM   17 Cl   UNK N   1      22.554  17.191   4.025  0.00  0.00    -0.129 Cl
ENDBRANCH  15  16
ENDBRANCH   4  15
TORSDOF 7
ENDMDL
MODEL 8
REMARK VINA RESULT:      -3.9     13.600     15.198
REMARK  7 active torsions:
REMARK  status: ('A' for Active; 'I' for Inactive)
REMARK    1  A    between atoms: C_6  and  C_2 
REMARK    2  A    between atoms: C_7  and  C_3 
REMARK    3  A    between atoms: C_8  and  C_4 
REMARK    4  A    between atoms: N_13  and  C_6 
REMARK    5  A    between atoms: N_14  and  C_7 
REMARK    6  A    between atoms: N_14  and  C_8 
REMARK    7  A    between atoms: P_17  and  N_14 
ROOT
HETATM    1  C   UNK N   1      31.976  14.870   3.624  0.00  0.00     0.042 C 
HETATM    2  C   UNK N   1      30.608  15.200   4.264  0.00  0.00     0.103 C 
HETATM    3  C   UNK N   1      33.105  15.757   4.152  0.00  0.00     0.180 C 
HETATM    4  N   UNK N   1      30.656  15.997   5.502  0.00  0.00    -0.226 NA
HETATM    5  O   UNK N   1      31.819  14.159   7.065  0.00  0.00    -0.254 OA
HETATM    6  O   UNK N   1      33.508  15.365   5.438  0.00  0.00    -0.311 OA
HETATM    7  P   UNK N   1      32.119  15.562   6.475  0.00  0.00     0.347 P 
ENDROOT
BRANCH   7   8
HETATM    8  N   UNK N   1      32.416  16.661   7.877  0.00  0.00    -0.225 NA
BRANCH   8   9
HETATM    9  C   UNK N   1      31.146  16.791   8.580  0.00  0.00     0.115 C 
BRANCH   9  10
HETATM   10  C   UNK N   1      30.802  18.253   8.800  0.00  0.00     0.129 C 
HETATM   11 Cl   UNK N   1      29.424  18.369   9.918  0.00  0.00    -0.129 Cl
ENDBRANCH   9  10
ENDBRANCH   8   9
BRANCH   8  12
HETATM   12  C   UNK N   1      33.365  16.033   8.784  0.00  0.00     0.115 C 
BRANCH  12  13
HETATM   13  C   UNK N   1      34.424  17.048   9.175  0.00  0.00     0.129 C 
HETATM   14 Cl   UNK N   1      34.355  18.449   8.085  0.00  0.00    -0.129 Cl
ENDBRANCH  12  13
ENDBRANCH   8  12
ENDBRANCH   7   8
BRANCH   4  15
HETATM   15  C   UNK N   1      30.674  17.407   5.146  0.00  0.00     0.115 C 
BRANCH  15  16
HETATM   16  C   UNK N   1      29.246  17.909   5.045  0.00  0.00     0.129 C 
HETATM   17 Cl   UNK N   1      28.274  17.270   6.389  0.00  0.00    -0.129 Cl
ENDBRANCH  15  16
ENDBRANCH   4  15
TORSDOF 7
ENDMDL
MODEL 9
REMARK VINA RESULT:      -3.9     14.105     17.037
REMARK  7 active torsions:
REMARK  status: ('A' for Active; 'I' for Inactive)
REMARK    1  A    between atoms: C_6  and  C_2 
REMARK    2  A    between atoms: C_7  and  C_3 
REMARK    3  A    between atoms: C_8  and  C_4 
REMARK    4  A    between atoms: N_13  and  C_6 
REMARK    5  A    between atoms: N_14  and  C_7 
REMARK    6  A    between atoms: N_14  and  C_8 
REMARK    7  A    between atoms: P_17  and  N_14 
ROOT
HETATM    1  C   UNK N   1      35.147  13.245   8.237  0.00  0.00     0.042 C 
HETATM    2  C   UNK N   1      35.900  14.532   8.644  0.00  0.00     0.103 C 
HETATM    3  C   UNK N   1      33.645  13.471   8.056  0.00  0.00     0.180 C 
HETATM    4  N   UNK N   1      35.175  15.795   8.424  0.00  0.00    -0.226 NA
HETATM    5  O   UNK N   1      35.149  15.728   5.746  0.00  0.00    -0.254 OA
HETATM    6  O   UNK N   1      33.367  14.128   6.847  0.00  0.00    -0.311 OA
HETATM    7  P   UNK N   1      34.153  15.682   6.934  0.00  0.00     0.347 P 
ENDROOT
BRANCH   7   8
HETATM    8  N   UNK N   1      33.025  17.075   6.717  0.00  0.00    -0.225 NA
BRANCH   8   9
HETATM    9  C   UNK N   1      33.316  17.649   5.409  0.00  0.00     0.115 C 
BRANCH   9  10
HETATM   10  C   UNK N   1      32.130  17.492   4.477  0.00  0.00     0.129 C 
HETATM   11 Cl   UNK N   1      32.681  16.789   2.939  0.00  0.00    -0.129 Cl
ENDBRANCH   9  10
ENDBRANCH   8   9
BRANCH   8  12
HETATM   12  C   UNK N   1      31.656  16.583   6.692  0.00  0.00     0.115 C 
BRANCH  12  13
HETATM   13  C   UNK N   1      31.099  16.594   8.104  0.00  0.00     0.129 C 
HETATM   14 Cl   UNK N   1      31.109  18.249   8.749  0.00  0.00    -0.129 Cl
ENDBRANCH  12  13
ENDBRANCH   8  12
ENDBRANCH   7   8
BRANCH   4  15
HETATM   15  C   UNK N   1      34.355  16.071   9.592  0.00  0.00     0.115 C 
BRANCH  15  16
HETATM   16  C   UNK N   1      35.259  16.277  10.793  0.00  0.00     0.129 C 
HETATM   17 Cl   UNK N   1      35.108  14.909  11.918  0.00  0.00    -0.129 Cl
ENDBRANCH  15  16
ENDBRANCH   4  15
TORSDOF 7
ENDMDL
