MODEL 1
REMARK VINA RESULT:      -8.1      0.000      0.000
REMARK  17 active torsions:
REMARK  status: ('A' for Active; 'I' for Inactive)
REMARK    1  A    between atoms: C_4  and  O_57 
REMARK    2  A    between atoms: C_12  and  O_53 
REMARK    3  A    between atoms: C_14  and  O_42 
REMARK    4  A    between atoms: C_15  and  O_41 
REMARK    5  A    between atoms: C_20  and  O_21 
REMARK    6  A    between atoms: O_21  and  C_22 
REMARK    7  A    between atoms: C_22  and  C_24 
REMARK    8  A    between atoms: C_24  and  C_25 
REMARK    9  A    between atoms: C_24  and  O_40 
REMARK   10  A    between atoms: C_25  and  C_26 
REMARK   11  A    between atoms: C_25  and  N_32 
REMARK       I    between atoms: N_32  and  C_33 
REMARK   12  A    between atoms: C_33  and  O_35 
REMARK   13  A    between atoms: O_35  and  C_36 
REMARK   14  A    between atoms: O_42  and  C_43 
REMARK   15  A    between atoms: C_43  and  C_45 
REMARK   16  A    between atoms: O_53  and  C_54 
REMARK   17  A    between atoms: O_57  and  C_58 
ROOT
HETATM    1  C   UNK N   1      25.465  19.712   3.224  0.00  0.00     0.046 C 
HETATM    2  C   UNK N   1      25.197  18.432   3.932  0.00  0.00    -0.048 C 
HETATM    3  C   UNK N   1      23.929  17.964   4.043  0.00  0.00    -0.028 C 
HETATM    4  C   UNK N   1      22.529  18.442   3.468  0.00  0.00     0.232 C 
HETATM    5  C   UNK N   1      21.275  17.409   3.729  0.00  0.00     0.170 C 
HETATM    6  O   UNK N   1      20.233  17.927   4.102  0.00  0.00    -0.294 OA
HETATM    7  C   UNK N   1      21.279  15.755   3.673  0.00  0.00     0.037 A 
HETATM    8  C   UNK N   1      21.091  15.321   2.228  0.00  0.00     0.024 A 
HETATM    9  C   UNK N   1      19.918  15.243   3.171  0.00  0.00     0.006 A 
HETATM   10  C   UNK N   1      19.659  13.756   3.414  0.00  0.00     0.041 C 
HETATM   11  C   UNK N   1      19.845  13.322   4.876  0.00  0.00     0.159 A 
HETATM   12  C   UNK N   1      21.167  13.744   5.486  0.00  0.00     0.125 A 
HETATM   13  C   UNK N   1      22.108  14.560   4.564  0.00  0.00     0.074 C 
HETATM   14  C   UNK N   1      23.748  14.445   4.941  0.00  0.00     0.176 C 
HETATM   15  C   UNK N   1      24.727  15.709   5.136  0.00  0.00     0.098 C 
HETATM   16  C   UNK N   1      23.801  16.674   4.541  0.00  0.00     0.013 C 
HETATM   17  C   UNK N   1      22.819  16.930   5.767  0.00  0.00     0.023 C 
HETATM   18  C   UNK N   1      23.760  16.138   2.999  0.00  0.00     0.023 C 
HETATM   19  C   UNK N   1      26.048  15.943   4.361  0.00  0.00     0.078 C 
HETATM   20  C   UNK N   1      26.376  17.487   4.334  0.00  0.00     0.164 C 
HETATM   21  C   UNK N   1      20.293  14.598   6.365  0.00  0.00     0.210 A 
HETATM   22  O   UNK N   1      19.108  14.139   5.751  0.00  0.00    -0.380 OA
ENDROOT
BRANCH  20  23
HETATM   23  O   UNK N   1      26.971  17.830   5.523  0.00  0.00    -0.309 OA
BRANCH  23  24
HETATM   24  C   UNK N   1      28.314  17.979   5.601  0.00  0.00     0.290 C 
HETATM   25  O   UNK N   1      28.872  18.799   4.889  0.00  0.00    -0.262 OA
BRANCH  24  26
HETATM   26  C   UNK N   1      29.127  17.094   6.517  0.00  0.00     0.244 C 
BRANCH  26  27
HETATM   27  C   UNK N   1      30.229  16.335   5.777  0.00  0.00     0.158 C 
BRANCH  27  28
HETATM   28  C   UNK N   1      29.653  15.457   4.690  0.00  0.00    -0.032 A 
HETATM   29  C   UNK N   1      29.169  14.184   5.014  0.00  0.00     0.009 A 
HETATM   30  C   UNK N   1      28.669  13.347   4.012  0.00  0.00     0.001 A 
HETATM   31  C   UNK N   1      28.664  13.771   2.680  0.00  0.00     0.000 A 
HETATM   32  C   UNK N   1      29.153  15.037   2.347  0.00  0.00     0.001 A 
HETATM   33  C   UNK N   1      29.643  15.878   3.349  0.00  0.00     0.009 A 
ENDBRANCH  27  28
BRANCH  27  34
HETATM   34  N   UNK N   1      31.194  17.267   5.231  0.00  0.00    -0.325 N 
HETATM   35  C   UNK N   1      32.507  17.236   5.554  0.00  0.00     0.361 C 
HETATM   36  O   UNK N   1      33.275  18.007   5.002  0.00  0.00    -0.238 OA
HETATM   37  H   UNK N   1      30.882  17.952   4.597  0.00  0.00     0.165 HD
BRANCH  35  38
HETATM   38  O   UNK N   1      32.961  16.329   6.464  0.00  0.00    -0.294 OA
BRANCH  38  39
HETATM   39  C   UNK N   1      33.294  16.603   7.778  0.00  0.00     0.061 C 
HETATM   40  C   UNK N   1      32.384  15.793   8.677  0.00  0.00     0.046 C 
HETATM   41  C   UNK N   1      33.100  18.075   8.102  0.00  0.00     0.046 C 
HETATM   42  C   UNK N   1      34.729  16.193   8.059  0.00  0.00     0.046 C 
ENDBRANCH  38  39
ENDBRANCH  35  38
ENDBRANCH  27  34
ENDBRANCH  26  27
BRANCH  26  43
HETATM   43  O   UNK N   1      29.649  17.828   7.585  0.00  0.00    -0.383 OA
HETATM   44  H   UNK N   1      30.190  18.614   7.414  0.00  0.00     0.210 HD
ENDBRANCH  26  43
ENDBRANCH  24  26
ENDBRANCH  23  24
ENDBRANCH  20  23
BRANCH  15  45
HETATM   45  O   UNK N   1      25.016  15.908   6.499  0.00  0.00    -0.386 OA
HETATM   46  H   UNK N   1      25.217  15.815   7.443  0.00  0.00     0.210 HD
ENDBRANCH  15  45
BRANCH  14  47
HETATM   47  O   UNK N   1      24.340  13.216   5.127  0.00  0.00    -0.308 OA
BRANCH  47  48
HETATM   48  C   UNK N   1      24.779  12.468   4.080  0.00  0.00     0.293 C 
HETATM   49  O   UNK N   1      25.748  11.730   4.209  0.00  0.00    -0.259 OA
BRANCH  48  50
HETATM   50  C   UNK N   1      24.060  12.504   2.795  0.00  0.00     0.039 A 
HETATM   51  C   UNK N   1      22.850  11.818   2.641  0.00  0.00     0.017 A 
HETATM   52  C   UNK N   1      22.181  11.840   1.415  0.00  0.00     0.001 A 
HETATM   53  C   UNK N   1      22.727  12.537   0.332  0.00  0.00     0.000 A 
HETATM   54  C   UNK N   1      23.939  13.216   0.477  0.00  0.00     0.001 A 
HETATM   55  C   UNK N   1      24.603  13.202   1.706  0.00  0.00     0.017 A 
ENDBRANCH  48  50
ENDBRANCH  47  48
ENDBRANCH  14  47
BRANCH   4  56
HETATM   56  O   UNK N   1      22.184  19.771   3.704  0.00  0.00    -0.304 OA
BRANCH  56  57
HETATM   57  C   UNK N   1      21.979  20.761   2.792  0.00  0.00     0.255 C 
HETATM   58  O   UNK N   1      22.571  21.827   2.860  0.00  0.00    -0.266 OA
HETATM   59  C   UNK N   1      20.997  20.545   1.693  0.00  0.00     0.126 C 
ENDBRANCH  56  57
ENDBRANCH   4  56
BRANCH  12  60
HETATM   60  O   UNK N   1      21.750  12.730   6.230  0.00  0.00    -0.305 OA
BRANCH  60  61
HETATM   61  C   UNK N   1      21.891  12.720   7.583  0.00  0.00     0.255 C 
HETATM   62  O   UNK N   1      20.995  12.260   8.272  0.00  0.00    -0.266 OA
HETATM   63  C   UNK N   1      23.104  13.283   8.255  0.00  0.00     0.126 C 
ENDBRANCH  60  61
ENDBRANCH  12  60
TORSDOF 17
ENDMDL
MODEL 2
REMARK VINA RESULT:      -8.0      2.429      4.882
REMARK  17 active torsions:
REMARK  status: ('A' for Active; 'I' for Inactive)
REMARK    1  A    between atoms: C_4  and  O_57 
REMARK    2  A    between atoms: C_12  and  O_53 
REMARK    3  A    between atoms: C_14  and  O_42 
REMARK    4  A    between atoms: C_15  and  O_41 
REMARK    5  A    between atoms: C_20  and  O_21 
REMARK    6  A    between atoms: O_21  and  C_22 
REMARK    7  A    between atoms: C_22  and  C_24 
REMARK    8  A    between atoms: C_24  and  C_25 
REMARK    9  A    between atoms: C_24  and  O_40 
REMARK   10  A    between atoms: C_25  and  C_26 
REMARK   11  A    between atoms: C_25  and  N_32 
REMARK       I    between atoms: N_32  and  C_33 
REMARK   12  A    between atoms: C_33  and  O_35 
REMARK   13  A    between atoms: O_35  and  C_36 
REMARK   14  A    between atoms: O_42  and  C_43 
REMARK   15  A    between atoms: C_43  and  C_45 
REMARK   16  A    between atoms: O_53  and  C_54 
REMARK   17  A    between atoms: O_57  and  C_58 
ROOT
HETATM    1  C   UNK N   1      21.405  18.336   6.480  0.00  0.00     0.046 C 
HETATM    2  C   UNK N   1      22.193  17.254   5.833  0.00  0.00    -0.048 C 
HETATM    3  C   UNK N   1      21.942  15.954   6.128  0.00  0.00    -0.028 C 
HETATM    4  C   UNK N   1      20.842  15.222   7.009  0.00  0.00     0.232 C 
HETATM    5  C   UNK N   1      20.835  13.580   6.896  0.00  0.00     0.170 C 
HETATM    6  O   UNK N   1      20.726  12.979   7.955  0.00  0.00    -0.294 OA
HETATM    7  C   UNK N   1      21.079  12.641   5.555  0.00  0.00     0.037 A 
HETATM    8  C   UNK N   1      19.761  12.513   4.810  0.00  0.00     0.024 A 
HETATM    9  C   UNK N   1      20.239  11.357   5.653  0.00  0.00     0.006 A 
HETATM   10  C   UNK N   1      20.638  10.250   4.677  0.00  0.00     0.041 C 
HETATM   11  C   UNK N   1      22.127   9.875   4.737  0.00  0.00     0.159 A 
HETATM   12  C   UNK N   1      23.071  11.057   4.625  0.00  0.00     0.125 A 
HETATM   13  C   UNK N   1      22.401  12.448   4.494  0.00  0.00     0.074 C 
HETATM   14  C   UNK N   1      23.335  13.617   3.716  0.00  0.00     0.176 C 
HETATM   15  C   UNK N   1      23.627  15.087   4.305  0.00  0.00     0.098 C 
HETATM   16  C   UNK N   1      22.586  15.016   5.332  0.00  0.00     0.013 C 
HETATM   17  C   UNK N   1      23.331  14.152   6.442  0.00  0.00     0.023 C 
HETATM   18  C   UNK N   1      21.248  14.963   4.399  0.00  0.00     0.023 C 
HETATM   19  C   UNK N   1      23.327  16.418   3.571  0.00  0.00     0.078 C 
HETATM   20  C   UNK N   1      23.140  17.573   4.630  0.00  0.00     0.164 C 
HETATM   21  C   UNK N   1      23.426  10.688   6.041  0.00  0.00     0.210 A 
HETATM   22  O   UNK N   1      22.533   9.595   6.053  0.00  0.00    -0.380 OA
ENDROOT
BRANCH  20  23
HETATM   23  O   UNK N   1      24.380  18.022   5.014  0.00  0.00    -0.309 OA
BRANCH  23  24
HETATM   24  C   UNK N   1      24.963  19.061   4.371  0.00  0.00     0.290 C 
HETATM   25  O   UNK N   1      24.426  19.536   3.383  0.00  0.00    -0.262 OA
BRANCH  24  26
HETATM   26  C   UNK N   1      26.299  19.591   4.836  0.00  0.00     0.244 C 
BRANCH  26  27
HETATM   27  C   UNK N   1      27.365  18.499   4.928  0.00  0.00     0.158 C 
BRANCH  27  28
HETATM   28  C   UNK N   1      27.640  18.123   6.367  0.00  0.00    -0.032 A 
HETATM   29  C   UNK N   1      27.224  16.876   6.846  0.00  0.00     0.009 A 
HETATM   30  C   UNK N   1      27.438  16.530   8.184  0.00  0.00     0.001 A 
HETATM   31  C   UNK N   1      28.054  17.436   9.053  0.00  0.00     0.000 A 
HETATM   32  C   UNK N   1      28.465  18.686   8.583  0.00  0.00     0.001 A 
HETATM   33  C   UNK N   1      28.262  19.028   7.245  0.00  0.00     0.009 A 
ENDBRANCH  27  28
BRANCH  27  34
HETATM   34  N   UNK N   1      26.958  17.340   4.160  0.00  0.00    -0.325 N 
HETATM   35  C   UNK N   1      27.828  16.595   3.442  0.00  0.00     0.361 C 
HETATM   36  O   UNK N   1      27.425  15.591   2.876  0.00  0.00    -0.238 OA
HETATM   37  H   UNK N   1      26.008  17.084   4.161  0.00  0.00     0.165 HD
BRANCH  35  38
HETATM   38  O   UNK N   1      29.142  16.951   3.383  0.00  0.00    -0.294 OA
BRANCH  38  39
HETATM   39  C   UNK N   1      30.174  16.339   4.071  0.00  0.00     0.061 C 
HETATM   40  C   UNK N   1      31.138  15.756   3.060  0.00  0.00     0.046 C 
HETATM   41  C   UNK N   1      29.660  15.210   4.948  0.00  0.00     0.046 C 
HETATM   42  C   UNK N   1      30.925  17.355   4.915  0.00  0.00     0.046 C 
ENDBRANCH  38  39
ENDBRANCH  35  38
ENDBRANCH  27  34
ENDBRANCH  26  27
BRANCH  26  43
HETATM   43  O   UNK N   1      26.725  20.647   4.025  0.00  0.00    -0.383 OA
HETATM   44  H   UNK N   1      26.611  21.562   4.323  0.00  0.00     0.210 HD
ENDBRANCH  26  43
ENDBRANCH  24  26
ENDBRANCH  23  24
ENDBRANCH  20  23
BRANCH  15  45
HETATM   45  O   UNK N   1      24.947  15.177   4.785  0.00  0.00    -0.386 OA
HETATM   46  H   UNK N   1      25.894  15.339   4.912  0.00  0.00     0.210 HD
ENDBRANCH  15  45
BRANCH  14  47
HETATM   47  O   UNK N   1      23.930  13.346   2.504  0.00  0.00    -0.308 OA
BRANCH  47  48
HETATM   48  C   UNK N   1      23.386  13.764   1.331  0.00  0.00     0.293 C 
HETATM   49  O   UNK N   1      24.100  14.202   0.438  0.00  0.00    -0.259 OA
BRANCH  48  50
HETATM   50  C   UNK N   1      21.935  13.646   1.107  0.00  0.00     0.039 A 
HETATM   51  C   UNK N   1      21.139  14.793   1.000  0.00  0.00     0.017 A 
HETATM   52  C   UNK N   1      19.760  14.675   0.807  0.00  0.00     0.001 A 
HETATM   53  C   UNK N   1      19.168  13.410   0.734  0.00  0.00     0.000 A 
HETATM   54  C   UNK N   1      19.956  12.262   0.849  0.00  0.00     0.001 A 
HETATM   55  C   UNK N   1      21.336  12.380   1.032  0.00  0.00     0.017 A 
ENDBRANCH  48  50
ENDBRANCH  47  48
ENDBRANCH  14  47
BRANCH   4  56
HETATM   56  O   UNK N   1      20.704  15.668   8.321  0.00  0.00    -0.304 OA
BRANCH  56  57
HETATM   57  C   UNK N   1      19.566  16.055   8.962  0.00  0.00     0.255 C 
HETATM   58  O   UNK N   1      18.799  15.240   9.450  0.00  0.00    -0.266 OA
HETATM   59  C   UNK N   1      19.242  17.505   9.058  0.00  0.00     0.126 C 
ENDBRANCH  56  57
ENDBRANCH   4  56
BRANCH  12  60
HETATM   60  O   UNK N   1      24.138  10.798   3.779  0.00  0.00    -0.305 OA
BRANCH  60  61
HETATM   61  C   UNK N   1      24.243   9.735   2.936  0.00  0.00     0.255 C 
HETATM   62  O   UNK N   1      24.794   8.719   3.325  0.00  0.00    -0.266 OA
HETATM   63  C   UNK N   1      23.725   9.786   1.532  0.00  0.00     0.126 C 
ENDBRANCH  60  61
ENDBRANCH  12  60
TORSDOF 17
ENDMDL
MODEL 3
REMARK VINA RESULT:      -7.9      1.290      2.680
REMARK  17 active torsions:
REMARK  status: ('A' for Active; 'I' for Inactive)
REMARK    1  A    between atoms: C_4  and  O_57 
REMARK    2  A    between atoms: C_12  and  O_53 
REMARK    3  A    between atoms: C_14  and  O_42 
REMARK    4  A    between atoms: C_15  and  O_41 
REMARK    5  A    between atoms: C_20  and  O_21 
REMARK    6  A    between atoms: O_21  and  C_22 
REMARK    7  A    between atoms: C_22  and  C_24 
REMARK    8  A    between atoms: C_24  and  C_25 
REMARK    9  A    between atoms: C_24  and  O_40 
REMARK   10  A    between atoms: C_25  and  C_26 
REMARK   11  A    between atoms: C_25  and  N_32 
REMARK       I    between atoms: N_32  and  C_33 
REMARK   12  A    between atoms: C_33  and  O_35 
REMARK   13  A    between atoms: O_35  and  C_36 
REMARK   14  A    between atoms: O_42  and  C_43 
REMARK   15  A    between atoms: C_43  and  C_45 
REMARK   16  A    between atoms: O_53  and  C_54 
REMARK   17  A    between atoms: O_57  and  C_58 
ROOT
HETATM    1  C   UNK N   1      25.261  19.896   3.293  0.00  0.00     0.046 C 
HETATM    2  C   UNK N   1      25.059  18.604   4.000  0.00  0.00    -0.048 C 
HETATM    3  C   UNK N   1      23.827  18.040   4.057  0.00  0.00    -0.028 C 
HETATM    4  C   UNK N   1      22.423  18.405   3.411  0.00  0.00     0.232 C 
HETATM    5  C   UNK N   1      21.241  17.279   3.623  0.00  0.00     0.170 C 
HETATM    6  O   UNK N   1      20.146  17.717   3.942  0.00  0.00    -0.294 OA
HETATM    7  C   UNK N   1      21.375  15.630   3.584  0.00  0.00     0.037 A 
HETATM    8  C   UNK N   1      21.291  15.174   2.136  0.00  0.00     0.024 A 
HETATM    9  C   UNK N   1      20.083  15.011   3.024  0.00  0.00     0.006 A 
HETATM   10  C   UNK N   1      19.929  13.510   3.268  0.00  0.00     0.041 C 
HETATM   11  C   UNK N   1      20.077  13.101   4.742  0.00  0.00     0.159 A 
HETATM   12  C   UNK N   1      21.333  13.628   5.409  0.00  0.00     0.125 A 
HETATM   13  C   UNK N   1      22.251  14.508   4.525  0.00  0.00     0.074 C 
HETATM   14  C   UNK N   1      23.875  14.523   4.980  0.00  0.00     0.176 C 
HETATM   15  C   UNK N   1      24.743  15.861   5.208  0.00  0.00     0.098 C 
HETATM   16  C   UNK N   1      23.775  16.747   4.560  0.00  0.00     0.013 C 
HETATM   17  C   UNK N   1      22.718  16.933   5.736  0.00  0.00     0.023 C 
HETATM   18  C   UNK N   1      23.849  16.200   3.024  0.00  0.00     0.023 C 
HETATM   19  C   UNK N   1      26.077  16.191   4.493  0.00  0.00     0.078 C 
HETATM   20  C   UNK N   1      26.287  17.756   4.467  0.00  0.00     0.164 C 
HETATM   21  C   UNK N   1      20.354  14.417   6.238  0.00  0.00     0.210 A 
HETATM   22  O   UNK N   1      19.239  13.863   5.573  0.00  0.00    -0.380 OA
ENDROOT
BRANCH  20  23
HETATM   23  O   UNK N   1      26.796  18.152   5.679  0.00  0.00    -0.309 OA
BRANCH  23  24
HETATM   24  C   UNK N   1      27.970  17.649   6.128  0.00  0.00     0.290 C 
HETATM   25  O   UNK N   1      27.973  16.869   7.067  0.00  0.00    -0.262 OA
BRANCH  24  26
HETATM   26  C   UNK N   1      29.275  18.095   5.511  0.00  0.00     0.244 C 
BRANCH  26  27
HETATM   27  C   UNK N   1      30.249  16.937   5.293  0.00  0.00     0.158 C 
BRANCH  27  28
HETATM   28  C   UNK N   1      31.491  17.098   6.141  0.00  0.00    -0.032 A 
HETATM   29  C   UNK N   1      31.384  17.055   7.536  0.00  0.00     0.009 A 
HETATM   30  C   UNK N   1      32.518  17.241   8.332  0.00  0.00     0.001 A 
HETATM   31  C   UNK N   1      33.760  17.487   7.740  0.00  0.00     0.000 A 
HETATM   32  C   UNK N   1      33.872  17.540   6.348  0.00  0.00     0.001 A 
HETATM   33  C   UNK N   1      32.743  17.343   5.551  0.00  0.00     0.009 A 
ENDBRANCH  27  28
BRANCH  27  34
HETATM   34  N   UNK N   1      29.593  15.676   5.573  0.00  0.00    -0.325 N 
HETATM   35  C   UNK N   1      29.824  14.554   4.855  0.00  0.00     0.361 C 
HETATM   36  O   UNK N   1      29.289  13.510   5.192  0.00  0.00    -0.238 OA
HETATM   37  H   UNK N   1      28.951  15.634   6.318  0.00  0.00     0.165 HD
BRANCH  35  38
HETATM   38  O   UNK N   1      30.672  14.592   3.788  0.00  0.00    -0.294 OA
BRANCH  38  39
HETATM   39  C   UNK N   1      31.904  13.968   3.716  0.00  0.00     0.061 C 
HETATM   40  C   UNK N   1      31.729  12.655   2.984  0.00  0.00     0.046 C 
HETATM   41  C   UNK N   1      32.457  13.675   5.100  0.00  0.00     0.046 C 
HETATM   42  C   UNK N   1      32.887  14.823   2.933  0.00  0.00     0.046 C 
ENDBRANCH  38  39
ENDBRANCH  35  38
ENDBRANCH  27  34
ENDBRANCH  26  27
BRANCH  26  43
HETATM   43  O   UNK N   1      29.051  18.797   4.324  0.00  0.00    -0.383 OA
HETATM   44  H   UNK N   1      28.146  19.017   4.054  0.00  0.00     0.210 HD
ENDBRANCH  26  43
ENDBRANCH  24  26
ENDBRANCH  23  24
ENDBRANCH  20  23
BRANCH  15  45
HETATM   45  O   UNK N   1      24.950  16.090   6.581  0.00  0.00    -0.386 OA
HETATM   46  H   UNK N   1      25.152  16.025   7.527  0.00  0.00     0.210 HD
ENDBRANCH  15  45
BRANCH  14  47
HETATM   47  O   UNK N   1      24.550  13.345   5.205  0.00  0.00    -0.308 OA
BRANCH  47  48
HETATM   48  C   UNK N   1      25.089  12.623   4.187  0.00  0.00     0.293 C 
HETATM   49  O   UNK N   1      26.191  12.105   4.310  0.00  0.00    -0.259 OA
BRANCH  48  50
HETATM   50  C   UNK N   1      24.325  12.417   2.945  0.00  0.00     0.039 A 
HETATM   51  C   UNK N   1      23.237  11.537   2.920  0.00  0.00     0.017 A 
HETATM   52  C   UNK N   1      22.527  11.330   1.734  0.00  0.00     0.001 A 
HETATM   53  C   UNK N   1      22.910  11.994   0.564  0.00  0.00     0.000 A 
HETATM   54  C   UNK N   1      24.001  12.867   0.581  0.00  0.00     0.001 A 
HETATM   55  C   UNK N   1      24.704  13.081   1.769  0.00  0.00     0.017 A 
ENDBRANCH  48  50
ENDBRANCH  47  48
ENDBRANCH  14  47
BRANCH   4  56
HETATM   56  O   UNK N   1      21.966  19.704   3.618  0.00  0.00    -0.304 OA
BRANCH  56  57
HETATM   57  C   UNK N   1      21.774  20.685   2.693  0.00  0.00     0.255 C 
HETATM   58  O   UNK N   1      22.349  21.760   2.771  0.00  0.00    -0.266 OA
HETATM   59  C   UNK N   1      20.830  20.447   1.566  0.00  0.00     0.126 C 
ENDBRANCH  56  57
ENDBRANCH   4  56
BRANCH  12  60
HETATM   60  O   UNK N   1      21.956  12.667   6.190  0.00  0.00    -0.305 OA
BRANCH  60  61
HETATM   61  C   UNK N   1      21.996  12.653   7.550  0.00  0.00     0.255 C 
HETATM   62  O   UNK N   1      21.048  12.198   8.169  0.00  0.00    -0.266 OA
HETATM   63  C   UNK N   1      23.159  13.207   8.311  0.00  0.00     0.126 C 
ENDBRANCH  60  61
ENDBRANCH  12  60
TORSDOF 17
ENDMDL
MODEL 4
REMARK VINA RESULT:      -7.7      2.279      5.275
REMARK  17 active torsions:
REMARK  status: ('A' for Active; 'I' for Inactive)
REMARK    1  A    between atoms: C_4  and  O_57 
REMARK    2  A    between atoms: C_12  and  O_53 
REMARK    3  A    between atoms: C_14  and  O_42 
REMARK    4  A    between atoms: C_15  and  O_41 
REMARK    5  A    between atoms: C_20  and  O_21 
REMARK    6  A    between atoms: O_21  and  C_22 
REMARK    7  A    between atoms: C_22  and  C_24 
REMARK    8  A    between atoms: C_24  and  C_25 
REMARK    9  A    between atoms: C_24  and  O_40 
REMARK   10  A    between atoms: C_25  and  C_26 
REMARK   11  A    between atoms: C_25  and  N_32 
REMARK       I    between atoms: N_32  and  C_33 
REMARK   12  A    between atoms: C_33  and  O_35 
REMARK   13  A    between atoms: O_35  and  C_36 
REMARK   14  A    between atoms: O_42  and  C_43 
REMARK   15  A    between atoms: C_43  and  C_45 
REMARK   16  A    between atoms: O_53  and  C_54 
REMARK   17  A    between atoms: O_57  and  C_58 
ROOT
HETATM    1  C   UNK N   1      26.543  12.501   3.016  0.00  0.00     0.046 C 
HETATM    2  C   UNK N   1      25.749  13.264   4.015  0.00  0.00    -0.048 C 
HETATM    3  C   UNK N   1      24.482  13.652   3.729  0.00  0.00    -0.028 C 
HETATM    4  C   UNK N   1      23.502  13.388   2.508  0.00  0.00     0.232 C 
HETATM    5  C   UNK N   1      21.961  13.926   2.718  0.00  0.00     0.170 C 
HETATM    6  O   UNK N   1      21.471  14.510   1.763  0.00  0.00    -0.294 OA
HETATM    7  C   UNK N   1      21.038  13.889   4.091  0.00  0.00     0.037 A 
HETATM    8  C   UNK N   1      20.377  12.523   4.191  0.00  0.00     0.024 A 
HETATM    9  C   UNK N   1      19.557  13.699   3.724  0.00  0.00     0.006 A 
HETATM   10  C   UNK N   1      18.569  14.008   4.849  0.00  0.00     0.041 C 
HETATM   11  C   UNK N   1      18.752  15.400   5.473  0.00  0.00     0.159 A 
HETATM   12  C   UNK N   1      20.173  15.705   5.906  0.00  0.00     0.125 A 
HETATM   13  C   UNK N   1      21.216  14.593   5.635  0.00  0.00     0.074 C 
HETATM   14  C   UNK N   1      22.555  14.607   6.662  0.00  0.00     0.176 C 
HETATM   15  C   UNK N   1      24.085  14.571   6.161  0.00  0.00     0.098 C 
HETATM   16  C   UNK N   1      23.756  14.180   4.789  0.00  0.00     0.013 C 
HETATM   17  C   UNK N   1      23.328  15.587   4.180  0.00  0.00     0.023 C 
HETATM   18  C   UNK N   1      23.139  12.690   5.043  0.00  0.00     0.023 C 
HETATM   19  C   UNK N   1      25.142  13.526   6.596  0.00  0.00     0.078 C 
HETATM   20  C   UNK N   1      26.258  13.411   5.486  0.00  0.00     0.164 C 
HETATM   21  C   UNK N   1      20.099  16.744   4.818  0.00  0.00     0.210 A 
HETATM   22  O   UNK N   1      18.768  16.405   4.491  0.00  0.00    -0.380 OA
ENDROOT
BRANCH  20  23
HETATM   23  O   UNK N   1      27.153  14.440   5.654  0.00  0.00    -0.309 OA
BRANCH  23  24
HETATM   24  C   UNK N   1      28.319  14.454   4.967  0.00  0.00     0.290 C 
HETATM   25  O   UNK N   1      29.212  13.684   5.281  0.00  0.00    -0.262 OA
BRANCH  24  26
HETATM   26  C   UNK N   1      28.538  15.457   3.858  0.00  0.00     0.244 C 
BRANCH  26  27
HETATM   27  C   UNK N   1      28.914  16.843   4.384  0.00  0.00     0.158 C 
BRANCH  27  28
HETATM   28  C   UNK N   1      27.811  17.843   4.127  0.00  0.00    -0.032 A 
HETATM   29  C   UNK N   1      28.037  19.201   4.382  0.00  0.00     0.009 A 
HETATM   30  C   UNK N   1      27.013  20.132   4.185  0.00  0.00     0.001 A 
HETATM   31  C   UNK N   1      25.753  19.710   3.748  0.00  0.00     0.000 A 
HETATM   32  C   UNK N   1      25.518  18.355   3.500  0.00  0.00     0.001 A 
HETATM   33  C   UNK N   1      26.543  17.425   3.685  0.00  0.00     0.009 A 
ENDBRANCH  27  28
BRANCH  27  34
HETATM   34  N   UNK N   1      29.227  16.770   5.796  0.00  0.00    -0.325 N 
HETATM   35  C   UNK N   1      30.429  17.132   6.300  0.00  0.00     0.361 C 
HETATM   36  O   UNK N   1      30.599  17.111   7.508  0.00  0.00    -0.238 OA
HETATM   37  H   UNK N   1      28.536  16.444   6.416  0.00  0.00     0.165 HD
BRANCH  35  38
HETATM   38  O   UNK N   1      31.422  17.543   5.461  0.00  0.00    -0.294 OA
BRANCH  38  39
HETATM   39  C   UNK N   1      32.556  16.821   5.141  0.00  0.00     0.061 C 
HETATM   40  C   UNK N   1      32.891  17.081   3.687  0.00  0.00     0.046 C 
HETATM   41  C   UNK N   1      32.332  15.329   5.321  0.00  0.00     0.046 C 
HETATM   42  C   UNK N   1      33.732  17.276   5.989  0.00  0.00     0.046 C 
ENDBRANCH  38  39
ENDBRANCH  35  38
ENDBRANCH  27  34
ENDBRANCH  26  27
BRANCH  26  43
HETATM   43  O   UNK N   1      29.485  14.989   2.943  0.00  0.00    -0.383 OA
HETATM   44  H   UNK N   1      30.119  15.605   2.544  0.00  0.00     0.210 HD
ENDBRANCH  26  43
ENDBRANCH  24  26
ENDBRANCH  23  24
ENDBRANCH  20  23
BRANCH  15  45
HETATM   45  O   UNK N   1      24.683  15.837   6.303  0.00  0.00    -0.386 OA
HETATM   46  H   UNK N   1      24.934  16.773   6.249  0.00  0.00     0.210 HD
ENDBRANCH  15  45
BRANCH  14  47
HETATM   47  O   UNK N   1      22.390  14.674   8.027  0.00  0.00    -0.308 OA
BRANCH  47  48
HETATM   48  C   UNK N   1      21.832  13.653   8.730  0.00  0.00     0.293 C 
HETATM   49  O   UNK N   1      20.718  13.235   8.439  0.00  0.00    -0.259 OA
BRANCH  48  50
HETATM   50  C   UNK N   1      22.586  13.010   9.819  0.00  0.00     0.039 A 
HETATM   51  C   UNK N   1      21.920  12.517  10.947  0.00  0.00     0.017 A 
HETATM   52  C   UNK N   1      22.642  11.924  11.986  0.00  0.00     0.001 A 
HETATM   53  C   UNK N   1      24.035  11.833  11.908  0.00  0.00     0.000 A 
HETATM   54  C   UNK N   1      24.707  12.332  10.789  0.00  0.00     0.001 A 
HETATM   55  C   UNK N   1      23.984  12.915   9.746  0.00  0.00     0.017 A 
ENDBRANCH  48  50
ENDBRANCH  47  48
ENDBRANCH  14  47
BRANCH   4  56
HETATM   56  O   UNK N   1      24.002  13.679   1.241  0.00  0.00    -0.304 OA
BRANCH  56  57
HETATM   57  C   UNK N   1      23.935  12.914   0.115  0.00  0.00     0.255 C 
HETATM   58  O   UNK N   1      23.537  13.370  -0.945  0.00  0.00    -0.266 OA
HETATM   59  C   UNK N   1      24.344  11.484   0.183  0.00  0.00     0.126 C 
ENDBRANCH  56  57
ENDBRANCH   4  56
BRANCH  12  60
HETATM   60  O   UNK N   1      20.223  16.316   7.149  0.00  0.00    -0.305 OA
BRANCH  60  61
HETATM   61  C   UNK N   1      20.628  17.593   7.389  0.00  0.00     0.255 C 
HETATM   62  O   UNK N   1      21.550  18.058   6.738  0.00  0.00    -0.266 OA
HETATM   63  C   UNK N   1      19.994  18.437   8.451  0.00  0.00     0.126 C 
ENDBRANCH  60  61
ENDBRANCH  12  60
TORSDOF 17
ENDMDL
MODEL 5
REMARK VINA RESULT:      -7.7      3.197      9.771
REMARK  17 active torsions:
REMARK  status: ('A' for Active; 'I' for Inactive)
REMARK    1  A    between atoms: C_4  and  O_57 
REMARK    2  A    between atoms: C_12  and  O_53 
REMARK    3  A    between atoms: C_14  and  O_42 
REMARK    4  A    between atoms: C_15  and  O_41 
REMARK    5  A    between atoms: C_20  and  O_21 
REMARK    6  A    between atoms: O_21  and  C_22 
REMARK    7  A    between atoms: C_22  and  C_24 
REMARK    8  A    between atoms: C_24  and  C_25 
REMARK    9  A    between atoms: C_24  and  O_40 
REMARK   10  A    between atoms: C_25  and  C_26 
REMARK   11  A    between atoms: C_25  and  N_32 
REMARK       I    between atoms: N_32  and  C_33 
REMARK   12  A    between atoms: C_33  and  O_35 
REMARK   13  A    between atoms: O_35  and  C_36 
REMARK   14  A    between atoms: O_42  and  C_43 
REMARK   15  A    between atoms: C_43  and  C_45 
REMARK   16  A    between atoms: O_53  and  C_54 
REMARK   17  A    between atoms: O_57  and  C_58 
ROOT
HETATM    1  C   UNK N   1      31.349  17.856   8.540  0.00  0.00     0.046 C 
HETATM    2  C   UNK N   1      31.158  17.198   7.220  0.00  0.00    -0.048 C 
HETATM    3  C   UNK N   1      32.204  16.601   6.596  0.00  0.00    -0.028 C 
HETATM    4  C   UNK N   1      33.711  16.319   7.007  0.00  0.00     0.232 C 
HETATM    5  C   UNK N   1      34.555  15.367   5.963  0.00  0.00     0.170 C 
HETATM    6  O   UNK N   1      35.687  15.746   5.701  0.00  0.00    -0.294 OA
HETATM    7  C   UNK N   1      34.028  14.039   5.128  0.00  0.00     0.037 A 
HETATM    8  C   UNK N   1      34.141  12.823   6.034  0.00  0.00     0.024 A 
HETATM    9  C   UNK N   1      35.179  13.033   4.960  0.00  0.00     0.006 A 
HETATM   10  C   UNK N   1      34.937  11.947   3.912  0.00  0.00     0.041 C 
HETATM   11  C   UNK N   1      34.549  12.492   2.529  0.00  0.00     0.159 A 
HETATM   12  C   UNK N   1      33.400  13.482   2.551  0.00  0.00     0.125 A 
HETATM   13  C   UNK N   1      32.816  13.809   3.949  0.00  0.00     0.074 C 
HETATM   14  C   UNK N   1      31.208  14.318   3.947  0.00  0.00     0.176 C 
HETATM   15  C   UNK N   1      30.674  15.648   4.681  0.00  0.00     0.098 C 
HETATM   16  C   UNK N   1      31.889  15.846   5.473  0.00  0.00     0.013 C 
HETATM   17  C   UNK N   1      32.837  16.524   4.390  0.00  0.00     0.023 C 
HETATM   18  C   UNK N   1      31.836  14.529   6.436  0.00  0.00     0.023 C 
HETATM   19  C   UNK N   1      29.539  15.692   5.733  0.00  0.00     0.078 C 
HETATM   20  C   UNK N   1      29.721  16.963   6.652  0.00  0.00     0.164 C 
HETATM   21  C   UNK N   1      34.454  14.454   2.094  0.00  0.00     0.210 A 
HETATM   22  O   UNK N   1      35.461  13.464   2.085  0.00  0.00    -0.380 OA
ENDROOT
BRANCH  20  23
HETATM   23  O   UNK N   1      29.206  18.056   5.997  0.00  0.00    -0.309 OA
BRANCH  23  24
HETATM   24  C   UNK N   1      28.198  18.773   6.547  0.00  0.00     0.290 C 
HETATM   25  O   UNK N   1      28.116  18.864   7.761  0.00  0.00    -0.262 OA
BRANCH  24  26
HETATM   26  C   UNK N   1      27.145  19.406   5.667  0.00  0.00     0.244 C 
BRANCH  26  27
HETATM   27  C   UNK N   1      26.333  18.372   4.885  0.00  0.00     0.158 C 
BRANCH  27  28
HETATM   28  C   UNK N   1      25.111  19.000   4.255  0.00  0.00    -0.032 A 
HETATM   29  C   UNK N   1      23.839  18.517   4.585  0.00  0.00     0.009 A 
HETATM   30  C   UNK N   1      22.702  19.062   3.981  0.00  0.00     0.001 A 
HETATM   31  C   UNK N   1      22.832  20.082   3.032  0.00  0.00     0.000 A 
HETATM   32  C   UNK N   1      24.098  20.563   2.692  0.00  0.00     0.001 A 
HETATM   33  C   UNK N   1      25.234  20.027   3.303  0.00  0.00     0.009 A 
ENDBRANCH  27  28
BRANCH  27  34
HETATM   34  N   UNK N   1      27.166  17.742   3.881  0.00  0.00    -0.325 N 
HETATM   35  C   UNK N   1      27.097  16.422   3.595  0.00  0.00     0.361 C 
HETATM   36  O   UNK N   1      27.779  15.973   2.688  0.00  0.00    -0.238 OA
HETATM   37  H   UNK N   1      27.809  18.298   3.385  0.00  0.00     0.165 HD
BRANCH  35  38
HETATM   38  O   UNK N   1      26.249  15.618   4.296  0.00  0.00    -0.294 OA
BRANCH  38  39
HETATM   39  C   UNK N   1      25.182  14.917   3.767  0.00  0.00     0.061 C 
HETATM   40  C   UNK N   1      25.644  13.509   3.458  0.00  0.00     0.046 C 
HETATM   41  C   UNK N   1      24.688  15.552   2.477  0.00  0.00     0.046 C 
HETATM   42  C   UNK N   1      24.047  14.836   4.774  0.00  0.00     0.046 C 
ENDBRANCH  38  39
ENDBRANCH  35  38
ENDBRANCH  27  34
ENDBRANCH  26  27
BRANCH  26  43
HETATM   43  O   UNK N   1      26.313  20.245   6.411  0.00  0.00    -0.383 OA
HETATM   44  H   UNK N   1      26.517  20.431   7.340  0.00  0.00     0.210 HD
ENDBRANCH  26  43
ENDBRANCH  24  26
ENDBRANCH  23  24
ENDBRANCH  20  23
BRANCH  15  45
HETATM   45  O   UNK N   1      30.395  16.656   3.739  0.00  0.00    -0.386 OA
HETATM   46  H   UNK N   1      30.318  17.212   2.948  0.00  0.00     0.210 HD
ENDBRANCH  15  45
BRANCH  14  47
HETATM   47  O   UNK N   1      30.247  13.599   3.272  0.00  0.00    -0.308 OA
BRANCH  47  48
HETATM   48  C   UNK N   1      29.778  12.414   3.744  0.00  0.00     0.293 C 
HETATM   49  O   UNK N   1      29.856  12.146   4.937  0.00  0.00    -0.259 OA
BRANCH  48  50
HETATM   50  C   UNK N   1      29.125  11.462   2.829  0.00  0.00     0.039 A 
HETATM   51  C   UNK N   1      29.209  10.084   3.062  0.00  0.00     0.017 A 
HETATM   52  C   UNK N   1      28.604   9.185   2.180  0.00  0.00     0.001 A 
HETATM   53  C   UNK N   1      27.925   9.658   1.053  0.00  0.00     0.000 A 
HETATM   54  C   UNK N   1      27.846  11.032   0.811  0.00  0.00     0.001 A 
HETATM   55  C   UNK N   1      28.442  11.931   1.698  0.00  0.00     0.017 A 
ENDBRANCH  48  50
ENDBRANCH  47  48
ENDBRANCH  14  47
BRANCH   4  56
HETATM   56  O   UNK N   1      34.448  17.416   7.446  0.00  0.00    -0.304 OA
BRANCH  56  57
HETATM   57  C   UNK N   1      34.855  17.703   8.714  0.00  0.00     0.255 C 
HETATM   58  O   UNK N   1      35.313  18.797   9.006  0.00  0.00    -0.266 OA
HETATM   59  C   UNK N   1      34.751  16.655   9.766  0.00  0.00     0.126 C 
ENDBRANCH  56  57
ENDBRANCH   4  56
BRANCH  12  60
HETATM   60  O   UNK N   1      32.487  13.251   1.534  0.00  0.00    -0.305 OA
BRANCH  60  61
HETATM   61  C   UNK N   1      32.608  12.310   0.559  0.00  0.00     0.255 C 
HETATM   62  O   UNK N   1      33.143  12.610  -0.495  0.00  0.00    -0.266 OA
HETATM   63  C   UNK N   1      32.076  10.920   0.732  0.00  0.00     0.126 C 
ENDBRANCH  60  61
ENDBRANCH  12  60
TORSDOF 17
ENDMDL
MODEL 6
REMARK VINA RESULT:      -7.7      1.799      2.957
REMARK  17 active torsions:
REMARK  status: ('A' for Active; 'I' for Inactive)
REMARK    1  A    between atoms: C_4  and  O_57 
REMARK    2  A    between atoms: C_12  and  O_53 
REMARK    3  A    between atoms: C_14  and  O_42 
REMARK    4  A    between atoms: C_15  and  O_41 
REMARK    5  A    between atoms: C_20  and  O_21 
REMARK    6  A    between atoms: O_21  and  C_22 
REMARK    7  A    between atoms: C_22  and  C_24 
REMARK    8  A    between atoms: C_24  and  C_25 
REMARK    9  A    between atoms: C_24  and  O_40 
REMARK   10  A    between atoms: C_25  and  C_26 
REMARK   11  A    between atoms: C_25  and  N_32 
REMARK       I    between atoms: N_32  and  C_33 
REMARK   12  A    between atoms: C_33  and  O_35 
REMARK   13  A    between atoms: O_35  and  C_36 
REMARK   14  A    between atoms: O_42  and  C_43 
REMARK   15  A    between atoms: C_43  and  C_45 
REMARK   16  A    between atoms: O_53  and  C_54 
REMARK   17  A    between atoms: O_57  and  C_58 
ROOT
HETATM    1  C   UNK N   1      27.855  16.720   2.873  0.00  0.00     0.046 C 
HETATM    2  C   UNK N   1      26.983  15.765   3.605  0.00  0.00    -0.048 C 
HETATM    3  C   UNK N   1      25.769  16.159   4.063  0.00  0.00    -0.028 C 
HETATM    4  C   UNK N   1      24.922  17.494   3.915  0.00  0.00     0.232 C 
HETATM    5  C   UNK N   1      23.386  17.416   4.502  0.00  0.00     0.170 C 
HETATM    6  O   UNK N   1      23.025  18.378   5.164  0.00  0.00    -0.294 OA
HETATM    7  C   UNK N   1      22.316  16.156   4.418  0.00  0.00     0.037 A 
HETATM    8  C   UNK N   1      21.602  16.218   3.078  0.00  0.00     0.024 A 
HETATM    9  C   UNK N   1      20.879  16.693   4.314  0.00  0.00     0.006 A 
HETATM   10  C   UNK N   1      19.785  15.663   4.593  0.00  0.00     0.041 C 
HETATM   11  C   UNK N   1      19.945  14.932   5.935  0.00  0.00     0.159 A 
HETATM   12  C   UNK N   1      21.319  14.329   6.154  0.00  0.00     0.125 A 
HETATM   13  C   UNK N   1      22.348  14.559   5.018  0.00  0.00     0.074 C 
HETATM   14  C   UNK N   1      23.564  13.395   4.914  0.00  0.00     0.176 C 
HETATM   15  C   UNK N   1      25.138  13.729   4.845  0.00  0.00     0.098 C 
HETATM   16  C   UNK N   1      24.949  15.151   4.554  0.00  0.00     0.013 C 
HETATM   17  C   UNK N   1      24.640  15.709   6.012  0.00  0.00     0.023 C 
HETATM   18  C   UNK N   1      24.257  15.064   3.077  0.00  0.00     0.023 C 
HETATM   19  C   UNK N   1      26.104  13.252   3.732  0.00  0.00     0.078 C 
HETATM   20  C   UNK N   1      27.331  14.240   3.641  0.00  0.00     0.164 C 
HETATM   21  C   UNK N   1      21.402  15.348   7.259  0.00  0.00     0.210 A 
HETATM   22  O   UNK N   1      20.104  15.839   6.997  0.00  0.00    -0.380 OA
ENDROOT
BRANCH  20  23
HETATM   23  O   UNK N   1      28.237  13.910   4.619  0.00  0.00    -0.309 OA
BRANCH  23  24
HETATM   24  C   UNK N   1      29.524  13.639   4.299  0.00  0.00     0.290 C 
HETATM   25  O   UNK N   1      29.906  12.480   4.267  0.00  0.00    -0.262 OA
BRANCH  24  26
HETATM   26  C   UNK N   1      30.499  14.764   4.044  0.00  0.00     0.244 C 
BRANCH  26  27
HETATM   27  C   UNK N   1      30.959  15.448   5.332  0.00  0.00     0.158 C 
BRANCH  27  28
HETATM   28  C   UNK N   1      29.976  16.510   5.770  0.00  0.00    -0.032 A 
HETATM   29  C   UNK N   1      29.024  16.207   6.751  0.00  0.00     0.009 A 
HETATM   30  C   UNK N   1      28.085  17.168   7.137  0.00  0.00     0.001 A 
HETATM   31  C   UNK N   1      28.082  18.430   6.534  0.00  0.00     0.000 A 
HETATM   32  C   UNK N   1      29.023  18.736   5.549  0.00  0.00     0.001 A 
HETATM   33  C   UNK N   1      29.969  17.781   5.170  0.00  0.00     0.009 A 
ENDBRANCH  27  28
BRANCH  27  34
HETATM   34  N   UNK N   1      31.153  14.462   6.376  0.00  0.00    -0.325 N 
HETATM   35  C   UNK N   1      32.246  14.443   7.172  0.00  0.00     0.361 C 
HETATM   36  O   UNK N   1      32.310  13.627   8.077  0.00  0.00    -0.238 OA
HETATM   37  H   UNK N   1      30.460  13.777   6.512  0.00  0.00     0.165 HD
BRANCH  35  38
HETATM   38  O   UNK N   1      33.244  15.351   6.977  0.00  0.00    -0.294 OA
BRANCH  38  39
HETATM   39  C   UNK N   1      33.463  16.483   7.740  0.00  0.00     0.061 C 
HETATM   40  C   UNK N   1      34.622  16.209   8.675  0.00  0.00     0.046 C 
HETATM   41  C   UNK N   1      32.244  16.830   8.578  0.00  0.00     0.046 C 
HETATM   42  C   UNK N   1      33.836  17.658   6.852  0.00  0.00     0.046 C 
ENDBRANCH  38  39
ENDBRANCH  35  38
ENDBRANCH  27  34
ENDBRANCH  26  27
BRANCH  26  43
HETATM   43  O   UNK N   1      31.588  14.319   3.291  0.00  0.00    -0.383 OA
HETATM   44  H   UNK N   1      31.556  13.452   2.859  0.00  0.00     0.210 HD
ENDBRANCH  26  43
ENDBRANCH  24  26
ENDBRANCH  23  24
ENDBRANCH  20  23
BRANCH  15  45
HETATM   45  O   UNK N   1      25.760  13.440   6.074  0.00  0.00    -0.386 OA
HETATM   46  H   UNK N   1      26.210  13.470   6.933  0.00  0.00     0.210 HD
ENDBRANCH  15  45
BRANCH  14  47
HETATM   47  O   UNK N   1      23.252  12.054   4.903  0.00  0.00    -0.308 OA
BRANCH  47  48
HETATM   48  C   UNK N   1      22.512  11.500   3.906  0.00  0.00     0.293 C 
HETATM   49  O   UNK N   1      21.590  10.738   4.168  0.00  0.00    -0.259 OA
BRANCH  48  50
HETATM   50  C   UNK N   1      22.785  11.854   2.502  0.00  0.00     0.039 A 
HETATM   51  C   UNK N   1      21.908  12.689   1.799  0.00  0.00     0.017 A 
HETATM   52  C   UNK N   1      22.161  13.006   0.462  0.00  0.00     0.001 A 
HETATM   53  C   UNK N   1      23.284  12.478  -0.183  0.00  0.00     0.000 A 
HETATM   54  C   UNK N   1      24.157  11.636   0.510  0.00  0.00     0.001 A 
HETATM   55  C   UNK N   1      23.910  11.327   1.851  0.00  0.00     0.017 A 
ENDBRANCH  48  50
ENDBRANCH  47  48
ENDBRANCH  14  47
BRANCH   4  56
HETATM   56  O   UNK N   1      25.567  18.678   4.263  0.00  0.00    -0.304 OA
BRANCH  56  57
HETATM   57  C   UNK N   1      25.810  19.764   3.478  0.00  0.00     0.255 C 
HETATM   58  O   UNK N   1      26.940  20.200   3.320  0.00  0.00    -0.266 OA
HETATM   59  C   UNK N   1      24.669  20.447   2.808  0.00  0.00     0.126 C 
ENDBRANCH  56  57
ENDBRANCH   4  56
BRANCH  12  60
HETATM   60  O   UNK N   1      21.253  13.050   6.684  0.00  0.00    -0.305 OA
BRANCH  60  61
HETATM   61  C   UNK N   1      21.561  12.706   7.964  0.00  0.00     0.255 C 
HETATM   62  O   UNK N   1      20.693  12.761   8.820  0.00  0.00    -0.266 OA
HETATM   63  C   UNK N   1      22.943  12.288   8.359  0.00  0.00     0.126 C 
ENDBRANCH  60  61
ENDBRANCH  12  60
TORSDOF 17
ENDMDL
MODEL 7
REMARK VINA RESULT:      -7.6      2.083      5.442
REMARK  17 active torsions:
REMARK  status: ('A' for Active; 'I' for Inactive)
REMARK    1  A    between atoms: C_4  and  O_57 
REMARK    2  A    between atoms: C_12  and  O_53 
REMARK    3  A    between atoms: C_14  and  O_42 
REMARK    4  A    between atoms: C_15  and  O_41 
REMARK    5  A    between atoms: C_20  and  O_21 
REMARK    6  A    between atoms: O_21  and  C_22 
REMARK    7  A    between atoms: C_22  and  C_24 
REMARK    8  A    between atoms: C_24  and  C_25 
REMARK    9  A    between atoms: C_24  and  O_40 
REMARK   10  A    between atoms: C_25  and  C_26 
REMARK   11  A    between atoms: C_25  and  N_32 
REMARK       I    between atoms: N_32  and  C_33 
REMARK   12  A    between atoms: C_33  and  O_35 
REMARK   13  A    between atoms: O_35  and  C_36 
REMARK   14  A    between atoms: O_42  and  C_43 
REMARK   15  A    between atoms: C_43  and  C_45 
REMARK   16  A    between atoms: O_53  and  C_54 
REMARK   17  A    between atoms: O_57  and  C_58 
ROOT
HETATM    1  C   UNK N   1      27.588  13.594   5.263  0.00  0.00     0.046 C 
HETATM    2  C   UNK N   1      26.308  14.348   5.311  0.00  0.00    -0.048 C 
HETATM    3  C   UNK N   1      25.523  14.434   4.209  0.00  0.00    -0.028 C 
HETATM    4  C   UNK N   1      25.589  13.785   2.761  0.00  0.00     0.232 C 
HETATM    5  C   UNK N   1      24.266  14.046   1.816  0.00  0.00     0.170 C 
HETATM    6  O   UNK N   1      24.499  14.356   0.657  0.00  0.00    -0.294 OA
HETATM    7  C   UNK N   1      22.673  14.065   2.262  0.00  0.00     0.037 A 
HETATM    8  C   UNK N   1      22.156  12.636   2.267  0.00  0.00     0.024 A 
HETATM    9  C   UNK N   1      21.799  13.537   1.112  0.00  0.00     0.006 A 
HETATM   10  C   UNK N   1      20.306  13.837   1.247  0.00  0.00     0.041 C 
HETATM   11  C   UNK N   1      19.988  15.323   1.470  0.00  0.00     0.159 A 
HETATM   12  C   UNK N   1      20.769  15.963   2.602  0.00  0.00     0.125 A 
HETATM   13  C   UNK N   1      21.775  15.041   3.335  0.00  0.00     0.074 C 
HETATM   14  C   UNK N   1      22.116  15.484   4.927  0.00  0.00     0.176 C 
HETATM   15  C   UNK N   1      23.602  15.657   5.524  0.00  0.00     0.098 C 
HETATM   16  C   UNK N   1      24.263  14.985   4.404  0.00  0.00     0.013 C 
HETATM   17  C   UNK N   1      24.288  16.160   3.331  0.00  0.00     0.023 C 
HETATM   18  C   UNK N   1      23.683  13.469   4.582  0.00  0.00     0.023 C 
HETATM   19  C   UNK N   1      24.154  14.922   6.771  0.00  0.00     0.078 C 
HETATM   20  C   UNK N   1      25.727  14.837   6.678  0.00  0.00     0.164 C 
HETATM   21  C   UNK N   1      21.387  16.769   1.490  0.00  0.00     0.210 A 
HETATM   22  O   UNK N   1      20.606  16.133   0.501  0.00  0.00    -0.380 OA
ENDROOT
BRANCH  20  23
HETATM   23  O   UNK N   1      26.258  16.031   7.102  0.00  0.00    -0.309 OA
BRANCH  23  24
HETATM   24  C   UNK N   1      26.864  16.123   8.309  0.00  0.00     0.290 C 
HETATM   25  O   UNK N   1      26.479  15.422   9.231  0.00  0.00    -0.262 OA
BRANCH  24  26
HETATM   26  C   UNK N   1      27.970  17.127   8.532  0.00  0.00     0.244 C 
BRANCH  26  27
HETATM   27  C   UNK N   1      28.836  17.335   7.288  0.00  0.00     0.158 C 
BRANCH  27  28
HETATM   28  C   UNK N   1      28.211  18.341   6.348  0.00  0.00    -0.032 A 
HETATM   29  C   UNK N   1      27.834  17.942   5.060  0.00  0.00     0.009 A 
HETATM   30  C   UNK N   1      27.291  18.871   4.168  0.00  0.00     0.001 A 
HETATM   31  C   UNK N   1      27.137  20.207   4.553  0.00  0.00     0.000 A 
HETATM   32  C   UNK N   1      27.519  20.614   5.834  0.00  0.00     0.001 A 
HETATM   33  C   UNK N   1      28.051  19.685   6.730  0.00  0.00     0.009 A 
ENDBRANCH  27  28
BRANCH  27  34
HETATM   34  N   UNK N   1      30.170  17.747   7.674  0.00  0.00    -0.325 N 
HETATM   35  C   UNK N   1      31.288  17.185   7.162  0.00  0.00     0.361 C 
HETATM   36  O   UNK N   1      32.378  17.631   7.480  0.00  0.00    -0.238 OA
HETATM   37  H   UNK N   1      30.267  18.468   8.338  0.00  0.00     0.165 HD
BRANCH  35  38
HETATM   38  O   UNK N   1      31.185  16.154   6.276  0.00  0.00    -0.294 OA
BRANCH  38  39
HETATM   39  C   UNK N   1      31.479  16.219   4.927  0.00  0.00     0.061 C 
HETATM   40  C   UNK N   1      32.852  15.618   4.709  0.00  0.00     0.046 C 
HETATM   41  C   UNK N   1      31.503  17.657   4.435  0.00  0.00     0.046 C 
HETATM   42  C   UNK N   1      30.473  15.411   4.124  0.00  0.00     0.046 C 
ENDBRANCH  38  39
ENDBRANCH  35  38
ENDBRANCH  27  34
ENDBRANCH  26  27
BRANCH  26  43
HETATM   43  O   UNK N   1      27.456  18.340   8.998  0.00  0.00    -0.383 OA
HETATM   44  H   UNK N   1      27.683  18.652   9.887  0.00  0.00     0.210 HD
ENDBRANCH  26  43
ENDBRANCH  24  26
ENDBRANCH  23  24
ENDBRANCH  20  23
BRANCH  15  45
HETATM   45  O   UNK N   1      23.917  17.020   5.683  0.00  0.00    -0.386 OA
HETATM   46  H   UNK N   1      24.285  17.915   5.624  0.00  0.00     0.210 HD
ENDBRANCH  15  45
BRANCH  14  47
HETATM   47  O   UNK N   1      21.097  15.748   5.814  0.00  0.00    -0.308 OA
BRANCH  47  48
HETATM   48  C   UNK N   1      20.317  14.757   6.322  0.00  0.00     0.293 C 
HETATM   49  O   UNK N   1      19.279  14.434   5.757  0.00  0.00    -0.259 OA
BRANCH  48  50
HETATM   50  C   UNK N   1      20.741  14.031   7.531  0.00  0.00     0.039 A 
HETATM   51  C   UNK N   1      20.547  14.591   8.799  0.00  0.00     0.017 A 
HETATM   52  C   UNK N   1      20.969  13.907   9.942  0.00  0.00     0.001 A 
HETATM   53  C   UNK N   1      21.599  12.664   9.821  0.00  0.00     0.000 A 
HETATM   54  C   UNK N   1      21.804  12.104   8.558  0.00  0.00     0.001 A 
HETATM   55  C   UNK N   1      21.374  12.784   7.416  0.00  0.00     0.017 A 
ENDBRANCH  48  50
ENDBRANCH  47  48
ENDBRANCH  14  47
BRANCH   4  56
HETATM   56  O   UNK N   1      26.784  13.947   2.065  0.00  0.00    -0.304 OA
BRANCH  56  57
HETATM   57  C   UNK N   1      27.711  12.999   1.754  0.00  0.00     0.255 C 
HETATM   58  O   UNK N   1      28.881  13.290   1.557  0.00  0.00    -0.266 OA
HETATM   59  C   UNK N   1      27.286  11.577   1.639  0.00  0.00     0.126 C 
ENDBRANCH  56  57
ENDBRANCH   4  56
BRANCH  12  60
HETATM   60  O   UNK N   1      19.973  16.774   3.397  0.00  0.00    -0.305 OA
BRANCH  60  61
HETATM   61  C   UNK N   1      19.960  18.134   3.379  0.00  0.00     0.255 C 
HETATM   62  O   UNK N   1      19.101  18.713   2.735  0.00  0.00    -0.266 OA
HETATM   63  C   UNK N   1      20.989  18.943   4.105  0.00  0.00     0.126 C 
ENDBRANCH  60  61
ENDBRANCH  12  60
TORSDOF 17
ENDMDL
MODEL 8
REMARK VINA RESULT:      -7.6      2.191      5.787
REMARK  17 active torsions:
REMARK  status: ('A' for Active; 'I' for Inactive)
REMARK    1  A    between atoms: C_4  and  O_57 
REMARK    2  A    between atoms: C_12  and  O_53 
REMARK    3  A    between atoms: C_14  and  O_42 
REMARK    4  A    between atoms: C_15  and  O_41 
REMARK    5  A    between atoms: C_20  and  O_21 
REMARK    6  A    between atoms: O_21  and  C_22 
REMARK    7  A    between atoms: C_22  and  C_24 
REMARK    8  A    between atoms: C_24  and  C_25 
REMARK    9  A    between atoms: C_24  and  O_40 
REMARK   10  A    between atoms: C_25  and  C_26 
REMARK   11  A    between atoms: C_25  and  N_32 
REMARK       I    between atoms: N_32  and  C_33 
REMARK   12  A    between atoms: C_33  and  O_35 
REMARK   13  A    between atoms: O_35  and  C_36 
REMARK   14  A    between atoms: O_42  and  C_43 
REMARK   15  A    between atoms: C_43  and  C_45 
REMARK   16  A    between atoms: O_53  and  C_54 
REMARK   17  A    between atoms: O_57  and  C_58 
ROOT
HETATM    1  C   UNK N   1      27.910  13.946   5.201  0.00  0.00     0.046 C 
HETATM    2  C   UNK N   1      26.587  14.620   5.263  0.00  0.00    -0.048 C 
HETATM    3  C   UNK N   1      25.743  14.569   4.203  0.00  0.00    -0.028 C 
HETATM    4  C   UNK N   1      25.779  13.814   2.807  0.00  0.00     0.232 C 
HETATM    5  C   UNK N   1      24.397  13.916   1.919  0.00  0.00     0.170 C 
HETATM    6  O   UNK N   1      24.550  14.148   0.729  0.00  0.00    -0.294 OA
HETATM    7  C   UNK N   1      22.830  13.870   2.450  0.00  0.00     0.037 A 
HETATM    8  C   UNK N   1      22.410  12.416   2.591  0.00  0.00     0.024 A 
HETATM    9  C   UNK N   1      21.937  13.199   1.393  0.00  0.00     0.006 A 
HETATM   10  C   UNK N   1      20.436  13.415   1.587  0.00  0.00     0.041 C 
HETATM   11  C   UNK N   1      20.030  14.891   1.715  0.00  0.00     0.159 A 
HETATM   12  C   UNK N   1      20.822  15.665   2.750  0.00  0.00     0.125 A 
HETATM   13  C   UNK N   1      21.923  14.869   3.495  0.00  0.00     0.074 C 
HETATM   14  C   UNK N   1      22.314  15.456   5.027  0.00  0.00     0.176 C 
HETATM   15  C   UNK N   1      23.812  15.769   5.526  0.00  0.00     0.098 C 
HETATM   16  C   UNK N   1      24.460  15.053   4.426  0.00  0.00     0.013 C 
HETATM   17  C   UNK N   1      24.352  16.140   3.268  0.00  0.00     0.023 C 
HETATM   18  C   UNK N   1      23.992  13.522   4.749  0.00  0.00     0.023 C 
HETATM   19  C   UNK N   1      24.474  15.170   6.792  0.00  0.00     0.078 C 
HETATM   20  C   UNK N   1      26.043  15.177   6.620  0.00  0.00     0.164 C 
HETATM   21  C   UNK N   1      21.329  16.419   1.549  0.00  0.00     0.210 A 
HETATM   22  O   UNK N   1      20.544  15.659   0.655  0.00  0.00    -0.380 OA
ENDROOT
BRANCH  20  23
HETATM   23  O   UNK N   1      26.513  16.432   6.922  0.00  0.00    -0.309 OA
BRANCH  23  24
HETATM   24  C   UNK N   1      27.223  16.644   8.055  0.00  0.00     0.290 C 
HETATM   25  O   UNK N   1      27.082  15.889   9.005  0.00  0.00    -0.262 OA
BRANCH  24  26
HETATM   26  C   UNK N   1      28.139  17.840   8.169  0.00  0.00     0.244 C 
BRANCH  26  27
HETATM   27  C   UNK N   1      29.159  17.910   7.031  0.00  0.00     0.158 C 
BRANCH  27  28
HETATM   28  C   UNK N   1      30.447  17.214   7.407  0.00  0.00    -0.032 A 
HETATM   29  C   UNK N   1      31.324  17.826   8.311  0.00  0.00     0.009 A 
HETATM   30  C   UNK N   1      32.536  17.211   8.638  0.00  0.00     0.001 A 
HETATM   31  C   UNK N   1      32.886  15.991   8.051  0.00  0.00     0.000 A 
HETATM   32  C   UNK N   1      32.020  15.379   7.142  0.00  0.00     0.001 A 
HETATM   33  C   UNK N   1      30.803  15.986   6.823  0.00  0.00     0.009 A 
ENDBRANCH  27  28
BRANCH  27  34
HETATM   34  N   UNK N   1      28.596  17.340   5.824  0.00  0.00    -0.325 N 
HETATM   35  C   UNK N   1      28.159  18.095   4.791  0.00  0.00     0.361 C 
HETATM   36  O   UNK N   1      27.763  17.544   3.776  0.00  0.00    -0.238 OA
HETATM   37  H   UNK N   1      28.530  16.360   5.752  0.00  0.00     0.165 HD
BRANCH  35  38
HETATM   38  O   UNK N   1      28.196  19.454   4.880  0.00  0.00    -0.294 OA
BRANCH  38  39
HETATM   39  C   UNK N   1      27.099  20.295   4.820  0.00  0.00     0.061 C 
HETATM   40  C   UNK N   1      25.884  19.526   5.293  0.00  0.00     0.046 C 
HETATM   41  C   UNK N   1      26.843  20.769   3.399  0.00  0.00     0.046 C 
HETATM   42  C   UNK N   1      27.295  21.489   5.740  0.00  0.00     0.046 C 
ENDBRANCH  38  39
ENDBRANCH  35  38
ENDBRANCH  27  34
ENDBRANCH  26  27
BRANCH  26  43
HETATM   43  O   UNK N   1      27.404  19.024   8.262  0.00  0.00    -0.383 OA
HETATM   44  H   UNK N   1      26.444  19.010   8.125  0.00  0.00     0.210 HD
ENDBRANCH  26  43
ENDBRANCH  24  26
ENDBRANCH  23  24
ENDBRANCH  20  23
BRANCH  15  45
HETATM   45  O   UNK N   1      24.043  17.157   5.565  0.00  0.00    -0.386 OA
HETATM   46  H   UNK N   1      24.255  18.083   5.369  0.00  0.00     0.210 HD
ENDBRANCH  15  45
BRANCH  14  47
HETATM   47  O   UNK N   1      21.325  15.724   5.947  0.00  0.00    -0.308 OA
BRANCH  47  48
HETATM   48  C   UNK N   1      20.573  14.735   6.497  0.00  0.00     0.293 C 
HETATM   49  O   UNK N   1      19.470  14.467   6.039  0.00  0.00    -0.259 OA
BRANCH  48  50
HETATM   50  C   UNK N   1      21.103  13.944   7.621  0.00  0.00     0.039 A 
HETATM   51  C   UNK N   1      21.709  12.703   7.389  0.00  0.00     0.017 A 
HETATM   52  C   UNK N   1      22.193  11.947   8.460  0.00  0.00     0.001 A 
HETATM   53  C   UNK N   1      22.063  12.423   9.769  0.00  0.00     0.000 A 
HETATM   54  C   UNK N   1      21.451  13.656  10.007  0.00  0.00     0.001 A 
HETATM   55  C   UNK N   1      20.976  14.416   8.935  0.00  0.00     0.017 A 
ENDBRANCH  48  50
ENDBRANCH  47  48
ENDBRANCH  14  47
BRANCH   4  56
HETATM   56  O   UNK N   1      26.924  13.996   2.036  0.00  0.00    -0.304 OA
BRANCH  56  57
HETATM   57  C   UNK N   1      27.889  13.083   1.735  0.00  0.00     0.255 C 
HETATM   58  O   UNK N   1      29.055  13.411   1.582  0.00  0.00    -0.266 OA
HETATM   59  C   UNK N   1      27.511  11.651   1.575  0.00  0.00     0.126 C 
ENDBRANCH  56  57
ENDBRANCH   4  56
BRANCH  12  60
HETATM   60  O   UNK N   1      20.015  16.484   3.524  0.00  0.00    -0.305 OA
BRANCH  60  61
HETATM   61  C   UNK N   1      19.961  17.842   3.451  0.00  0.00     0.255 C 
HETATM   62  O   UNK N   1      19.067  18.368   2.809  0.00  0.00    -0.266 OA
HETATM   63  C   UNK N   1      20.985  18.711   4.114  0.00  0.00     0.126 C 
ENDBRANCH  60  61
ENDBRANCH  12  60
TORSDOF 17
ENDMDL
MODEL 9
REMARK VINA RESULT:      -7.4      2.370      5.728
REMARK  17 active torsions:
REMARK  status: ('A' for Active; 'I' for Inactive)
REMARK    1  A    between atoms: C_4  and  O_57 
REMARK    2  A    between atoms: C_12  and  O_53 
REMARK    3  A    between atoms: C_14  and  O_42 
REMARK    4  A    between atoms: C_15  and  O_41 
REMARK    5  A    between atoms: C_20  and  O_21 
REMARK    6  A    between atoms: O_21  and  C_22 
REMARK    7  A    between atoms: C_22  and  C_24 
REMARK    8  A    between atoms: C_24  and  C_25 
REMARK    9  A    between atoms: C_24  and  O_40 
REMARK   10  A    between atoms: C_25  and  C_26 
REMARK   11  A    between atoms: C_25  and  N_32 
REMARK       I    between atoms: N_32  and  C_33 
REMARK   12  A    between atoms: C_33  and  O_35 
REMARK   13  A    between atoms: O_35  and  C_36 
REMARK   14  A    between atoms: O_42  and  C_43 
REMARK   15  A    between atoms: C_43  and  C_45 
REMARK   16  A    between atoms: O_53  and  C_54 
REMARK   17  A    between atoms: O_57  and  C_58 
ROOT
HETATM    1  C   UNK N   1      29.358  12.554   3.122  0.00  0.00     0.046 C 
HETATM    2  C   UNK N   1      28.238  13.526   3.224  0.00  0.00    -0.048 C 
HETATM    3  C   UNK N   1      27.015  13.215   2.727  0.00  0.00    -0.028 C 
HETATM    4  C   UNK N   1      26.393  11.904   2.083  0.00  0.00     0.232 C 
HETATM    5  C   UNK N   1      24.772  11.960   1.808  0.00  0.00     0.170 C 
HETATM    6  O   UNK N   1      24.405  11.528   0.725  0.00  0.00    -0.294 OA
HETATM    7  C   UNK N   1      23.592  12.638   2.751  0.00  0.00     0.037 A 
HETATM    8  C   UNK N   1      23.188  11.631   3.816  0.00  0.00     0.024 A 
HETATM    9  C   UNK N   1      22.289  11.833   2.622  0.00  0.00     0.006 A 
HETATM   10  C   UNK N   1      21.039  12.543   3.141  0.00  0.00     0.041 C 
HETATM   11  C   UNK N   1      20.821  13.939   2.539  0.00  0.00     0.159 A 
HETATM   12  C   UNK N   1      22.031  14.849   2.627  0.00  0.00     0.125 A 
HETATM   13  C   UNK N   1      23.295  14.233   3.278  0.00  0.00     0.074 C 
HETATM   14  C   UNK N   1      24.349  15.348   3.979  0.00  0.00     0.176 C 
HETATM   15  C   UNK N   1      25.932  15.410   3.688  0.00  0.00     0.098 C 
HETATM   16  C   UNK N   1      25.990  14.097   3.045  0.00  0.00     0.013 C 
HETATM   17  C   UNK N   1      25.456  14.460   1.590  0.00  0.00     0.023 C 
HETATM   18  C   UNK N   1      25.617  13.129   4.306  0.00  0.00     0.023 C 
HETATM   19  C   UNK N   1      27.041  15.339   4.767  0.00  0.00     0.078 C 
HETATM   20  C   UNK N   1      28.375  14.803   4.116  0.00  0.00     0.164 C 
HETATM   21  C   UNK N   1      22.009  14.738   1.125  0.00  0.00     0.210 A 
HETATM   22  O   UNK N   1      20.868  13.907   1.135  0.00  0.00    -0.380 OA
ENDROOT
BRANCH  20  23
HETATM   23  O   UNK N   1      29.006  15.846   3.484  0.00  0.00    -0.309 OA
BRANCH  23  24
HETATM   24  C   UNK N   1      30.300  16.133   3.758  0.00  0.00     0.290 C 
HETATM   25  O   UNK N   1      31.186  15.446   3.274  0.00  0.00    -0.262 OA
BRANCH  24  26
HETATM   26  C   UNK N   1      30.647  17.257   4.707  0.00  0.00     0.244 C 
BRANCH  26  27
HETATM   27  C   UNK N   1      31.156  16.751   6.057  0.00  0.00     0.158 C 
BRANCH  27  28
HETATM   28  C   UNK N   1      30.327  17.301   7.195  0.00  0.00    -0.032 A 
HETATM   29  C   UNK N   1      28.933  17.169   7.161  0.00  0.00     0.009 A 
HETATM   30  C   UNK N   1      28.152  17.706   8.189  0.00  0.00     0.001 A 
HETATM   31  C   UNK N   1      28.757  18.392   9.246  0.00  0.00     0.000 A 
HETATM   32  C   UNK N   1      30.146  18.536   9.282  0.00  0.00     0.001 A 
HETATM   33  C   UNK N   1      30.929  17.990   8.263  0.00  0.00     0.009 A 
ENDBRANCH  27  28
BRANCH  27  34
HETATM   34  N   UNK N   1      31.162  15.303   6.075  0.00  0.00    -0.325 N 
HETATM   35  C   UNK N   1      32.178  14.581   6.601  0.00  0.00     0.361 C 
HETATM   36  O   UNK N   1      32.083  13.365   6.646  0.00  0.00    -0.238 OA
HETATM   37  H   UNK N   1      30.394  14.823   5.689  0.00  0.00     0.165 HD
BRANCH  35  38
HETATM   38  O   UNK N   1      33.275  15.215   7.101  0.00  0.00    -0.294 OA
BRANCH  38  39
HETATM   39  C   UNK N   1      33.686  15.194   8.421  0.00  0.00     0.061 C 
HETATM   40  C   UNK N   1      34.286  16.544   8.754  0.00  0.00     0.046 C 
HETATM   41  C   UNK N   1      34.745  14.129   8.653  0.00  0.00     0.046 C 
HETATM   42  C   UNK N   1      32.500  14.960   9.342  0.00  0.00     0.046 C 
ENDBRANCH  38  39
ENDBRANCH  35  38
ENDBRANCH  27  34
ENDBRANCH  26  27
BRANCH  26  43
HETATM   43  O   UNK N   1      31.558  18.140   4.122  0.00  0.00    -0.383 OA
HETATM   44  H   UNK N   1      31.488  18.354   3.179  0.00  0.00     0.210 HD
ENDBRANCH  26  43
ENDBRANCH  24  26
ENDBRANCH  23  24
ENDBRANCH  20  23
BRANCH  15  45
HETATM   45  O   UNK N   1      26.241  16.505   2.859  0.00  0.00    -0.386 OA
HETATM   46  H   UNK N   1      26.354  17.380   2.456  0.00  0.00     0.210 HD
ENDBRANCH  15  45
BRANCH  14  47
HETATM   47  O   UNK N   1      23.879  16.305   4.850  0.00  0.00    -0.308 OA
BRANCH  47  48
HETATM   48  C   UNK N   1      23.200  15.972   5.980  0.00  0.00     0.293 C 
HETATM   49  O   UNK N   1      22.264  16.661   6.367  0.00  0.00    -0.259 OA
BRANCH  48  50
HETATM   50  C   UNK N   1      23.553  14.748   6.719  0.00  0.00     0.039 A 
HETATM   51  C   UNK N   1      22.651  13.680   6.795  0.00  0.00     0.017 A 
HETATM   52  C   UNK N   1      22.983  12.529   7.514  0.00  0.00     0.001 A 
HETATM   53  C   UNK N   1      24.215  12.445   8.171  0.00  0.00     0.000 A 
HETATM   54  C   UNK N   1      25.116  13.511   8.106  0.00  0.00     0.001 A 
HETATM   55  C   UNK N   1      24.787  14.658   7.379  0.00  0.00     0.017 A 
ENDBRANCH  48  50
ENDBRANCH  47  48
ENDBRANCH  14  47
BRANCH   4  56
HETATM   56  O   UNK N   1      27.097  11.344   1.019  0.00  0.00    -0.304 OA
BRANCH  56  57
HETATM   57  C   UNK N   1      27.682  10.116   0.952  0.00  0.00     0.255 C 
HETATM   58  O   UNK N   1      28.144   9.684  -0.093  0.00  0.00    -0.266 OA
HETATM   59  C   UNK N   1      27.746   9.273   2.178  0.00  0.00     0.126 C 
ENDBRANCH  56  57
ENDBRANCH   4  56
BRANCH  12  60
HETATM   60  O   UNK N   1      21.694  16.136   3.017  0.00  0.00    -0.305 OA
BRANCH  60  61
HETATM   61  C   UNK N   1      20.432  16.641   3.079  0.00  0.00     0.255 C 
HETATM   62  O   UNK N   1      20.006  17.293   2.140  0.00  0.00    -0.266 OA
HETATM   63  C   UNK N   1      19.560  16.443   4.279  0.00  0.00     0.126 C 
ENDBRANCH  60  61
ENDBRANCH  12  60
TORSDOF 17
ENDMDL
