MODEL 1
REMARK VINA RESULT:      -6.9      0.000      0.000
REMARK  1 active torsions:
REMARK  status: ('A' for Active; 'I' for Inactive)
REMARK       I    between atoms: C_8  and  N_9 
REMARK       I    between atoms: N_9  and  C_10 
REMARK       I    between atoms: C_10  and  N_12 
REMARK    1  A    between atoms: N_12  and  C_13 
ROOT
HETATM    1  C   UNK N   1      33.373  14.468   9.875  0.00  0.00     0.169 C 
HETATM    2  N   UNK N   1      33.963  15.749   9.604  0.00  0.00    -0.213 N 
HETATM    3  C   UNK N   1      33.528  16.544   8.482  0.00  0.00     0.244 A 
HETATM    4  C   UNK N   1      34.444  17.714   8.683  0.00  0.00     0.254 A 
HETATM    5  O   UNK N   1      34.469  18.700   7.965  0.00  0.00    -0.271 OA
HETATM    6  N   UNK N   1      35.248  17.567   9.752  0.00  0.00    -0.158 N 
ATOM      7  HN  UNK N   1      35.944  18.241  10.068  1.00  0.00     0.187 HD
HETATM    8  C   UNK N   1      34.995  16.447  10.302  0.00  0.00     0.687 A 
HETATM    9  N   UNK N   1      35.720  16.036  11.477  0.00  0.00    -0.141 N 
HETATM   10  C   UNK N   1      35.618  14.900  12.217  0.00  0.00     0.339 C 
HETATM   11  O   UNK N   1      34.818  14.035  11.923  0.00  0.00    -0.246 OA
HETATM   12  N   UNK N   1      36.426  14.737  13.303  0.00  0.00    -0.308 N 
HETATM   13  H   UNK N   1      36.396  16.678  11.793  0.00  0.00     0.189 HD
HETATM   14  H   UNK N   1      37.062  15.461  13.510  0.00  0.00     0.170 HD
ENDROOT
BRANCH  12  15
HETATM   15  C   UNK N   1      36.422  13.596  14.165  0.00  0.00     0.037 A 
HETATM   16  C   UNK N   1      35.819  13.688  15.427  0.00  0.00     0.053 A 
HETATM   17  C   UNK N   1      35.806  12.579  16.285  0.00  0.00     0.036 A 
HETATM   18  C   UNK N   1      36.394  11.376  15.888  0.00  0.00     0.024 A 
HETATM   19 Cl   UNK N   1      35.053  12.693  17.861  0.00  0.00    -0.084 Cl
HETATM   20  C   UNK N   1      36.996  11.275  14.636  0.00  0.00     0.004 A 
HETATM   21  C   UNK N   1      37.010  12.376  13.782  0.00  0.00     0.029 A 
ENDBRANCH  12  15
TORSDOF 1
ENDMDL
MODEL 2
REMARK VINA RESULT:      -6.7      3.486      7.489
REMARK  1 active torsions:
REMARK  status: ('A' for Active; 'I' for Inactive)
REMARK       I    between atoms: C_8  and  N_9 
REMARK       I    between atoms: N_9  and  C_10 
REMARK       I    between atoms: C_10  and  N_12 
REMARK    1  A    between atoms: N_12  and  C_13 
ROOT
HETATM    1  C   UNK N   1      34.977  12.691  11.173  0.00  0.00     0.169 C 
HETATM    2  N   UNK N   1      35.602  13.401  12.254  0.00  0.00    -0.213 N 
HETATM    3  C   UNK N   1      36.185  12.694  13.367  0.00  0.00     0.244 A 
HETATM    4  C   UNK N   1      36.663  13.882  14.147  0.00  0.00     0.254 A 
HETATM    5  O   UNK N   1      37.249  13.814  15.216  0.00  0.00    -0.271 OA
HETATM    6  N   UNK N   1      36.378  15.049  13.542  0.00  0.00    -0.158 N 
ATOM      7  HN  UNK N   1      36.613  15.976  13.898  1.00  0.00     0.187 HD
HETATM    8  C   UNK N   1      35.768  14.806  12.451  0.00  0.00     0.687 A 
HETATM    9  N   UNK N   1      35.344  15.887  11.600  0.00  0.00    -0.141 N 
HETATM   10  C   UNK N   1      34.688  15.861  10.409  0.00  0.00     0.339 C 
HETATM   11  O   UNK N   1      34.365  14.806   9.901  0.00  0.00    -0.246 OA
HETATM   12  N   UNK N   1      34.393  17.036   9.784  0.00  0.00    -0.308 N 
HETATM   13  H   UNK N   1      35.565  16.787  11.932  0.00  0.00     0.189 HD
HETATM   14  H   UNK N   1      34.672  17.870  10.228  0.00  0.00     0.170 HD
ENDROOT
BRANCH  12  15
HETATM   15  C   UNK N   1      33.709  17.151   8.533  0.00  0.00     0.037 A 
HETATM   16  C   UNK N   1      32.308  17.157   8.512  0.00  0.00     0.053 A 
HETATM   17  C   UNK N   1      31.621  17.269   7.295  0.00  0.00     0.036 A 
HETATM   18  C   UNK N   1      32.329  17.375   6.095  0.00  0.00     0.024 A 
HETATM   19 Cl   UNK N   1      29.871  17.276   7.268  0.00  0.00    -0.084 Cl
HETATM   20  C   UNK N   1      33.722  17.370   6.106  0.00  0.00     0.004 A 
HETATM   21  C   UNK N   1      34.406  17.259   7.315  0.00  0.00     0.029 A 
ENDBRANCH  12  15
TORSDOF 1
ENDMDL
MODEL 3
REMARK VINA RESULT:      -6.7      1.306      1.717
REMARK  1 active torsions:
REMARK  status: ('A' for Active; 'I' for Inactive)
REMARK       I    between atoms: C_8  and  N_9 
REMARK       I    between atoms: N_9  and  C_10 
REMARK       I    between atoms: C_10  and  N_12 
REMARK    1  A    between atoms: N_12  and  C_13 
ROOT
HETATM    1  C   UNK N   1      33.613  14.320   9.766  0.00  0.00     0.169 C 
HETATM    2  N   UNK N   1      34.129  15.646   9.570  0.00  0.00    -0.213 N 
HETATM    3  C   UNK N   1      33.728  16.438   8.434  0.00  0.00     0.244 A 
HETATM    4  C   UNK N   1      34.538  17.664   8.733  0.00  0.00     0.254 A 
HETATM    5  O   UNK N   1      34.549  18.668   8.039  0.00  0.00    -0.271 OA
HETATM    6  N   UNK N   1      35.263  17.546   9.860  0.00  0.00    -0.158 N 
ATOM      7  HN  UNK N   1      35.881  18.259  10.246  1.00  0.00     0.187 HD
HETATM    8  C   UNK N   1      35.048  16.397  10.365  0.00  0.00     0.687 A 
HETATM    9  N   UNK N   1      35.705  16.007  11.586  0.00  0.00    -0.141 N 
HETATM   10  C   UNK N   1      35.626  14.848  12.292  0.00  0.00     0.339 C 
HETATM   11  O   UNK N   1      34.917  13.937  11.915  0.00  0.00    -0.246 OA
HETATM   12  N   UNK N   1      36.355  14.714  13.437  0.00  0.00    -0.308 N 
HETATM   13  H   UNK N   1      36.304  16.686  11.969  0.00  0.00     0.189 HD
HETATM   14  H   UNK N   1      36.918  15.475  13.710  0.00  0.00     0.170 HD
ENDROOT
BRANCH  12  15
HETATM   15  C   UNK N   1      36.364  13.553  14.272  0.00  0.00     0.037 A 
HETATM   16  C   UNK N   1      37.240  12.499  13.977  0.00  0.00     0.053 A 
HETATM   17  C   UNK N   1      37.263  11.353  14.785  0.00  0.00     0.036 A 
HETATM   18  C   UNK N   1      36.413  11.254  15.889  0.00  0.00     0.024 A 
HETATM   19 Cl   UNK N   1      38.356  10.037  14.417  0.00  0.00    -0.084 Cl
HETATM   20  C   UNK N   1      35.539  12.296  16.191  0.00  0.00     0.004 A 
HETATM   21  C   UNK N   1      35.515  13.436  15.389  0.00  0.00     0.029 A 
ENDBRANCH  12  15
TORSDOF 1
ENDMDL
MODEL 4
REMARK VINA RESULT:      -6.2      4.203      8.182
REMARK  1 active torsions:
REMARK  status: ('A' for Active; 'I' for Inactive)
REMARK       I    between atoms: C_8  and  N_9 
REMARK       I    between atoms: N_9  and  C_10 
REMARK       I    between atoms: C_10  and  N_12 
REMARK    1  A    between atoms: N_12  and  C_13 
ROOT
HETATM    1  C   UNK N   1      34.348  13.116   9.814  0.00  0.00     0.169 C 
HETATM    2  N   UNK N   1      34.908  13.916  10.868  0.00  0.00    -0.213 N 
HETATM    3  C   UNK N   1      35.523  13.302  12.018  0.00  0.00     0.244 A 
HETATM    4  C   UNK N   1      35.909  14.554  12.747  0.00  0.00     0.254 A 
HETATM    5  O   UNK N   1      36.483  14.576  13.823  0.00  0.00    -0.271 OA
HETATM    6  N   UNK N   1      35.553  15.671  12.085  0.00  0.00    -0.158 N 
ATOM      7  HN  UNK N   1      35.719  16.626  12.400  1.00  0.00     0.187 HD
HETATM    8  C   UNK N   1      34.976  15.336  11.001  0.00  0.00     0.687 A 
HETATM    9  N   UNK N   1      34.491  16.346  10.096  0.00  0.00    -0.141 N 
HETATM   10  C   UNK N   1      33.854  16.220   8.902  0.00  0.00     0.339 C 
HETATM   11  O   UNK N   1      33.610  15.124   8.439  0.00  0.00    -0.246 OA
HETATM   12  N   UNK N   1      33.488  17.343   8.220  0.00  0.00    -0.308 N 
HETATM   13  H   UNK N   1      34.645  17.273  10.388  0.00  0.00     0.189 HD
HETATM   14  H   UNK N   1      33.703  18.214   8.627  0.00  0.00     0.170 HD
ENDROOT
BRANCH  12  15
HETATM   15  C   UNK N   1      32.814  17.354   6.958  0.00  0.00     0.037 A 
HETATM   16  C   UNK N   1      31.420  17.216   6.920  0.00  0.00     0.053 A 
HETATM   17  C   UNK N   1      30.744  17.224   5.692  0.00  0.00     0.036 A 
HETATM   18  C   UNK N   1      31.455  17.369   4.498  0.00  0.00     0.024 A 
HETATM   19 Cl   UNK N   1      29.003  17.052   5.643  0.00  0.00    -0.084 Cl
HETATM   20  C   UNK N   1      32.841  17.507   4.525  0.00  0.00     0.004 A 
HETATM   21  C   UNK N   1      33.515  17.499   5.746  0.00  0.00     0.029 A 
ENDBRANCH  12  15
TORSDOF 1
ENDMDL
MODEL 5
REMARK VINA RESULT:      -6.1      4.281      8.118
REMARK  1 active torsions:
REMARK  status: ('A' for Active; 'I' for Inactive)
REMARK       I    between atoms: C_8  and  N_9 
REMARK       I    between atoms: N_9  and  C_10 
REMARK       I    between atoms: C_10  and  N_12 
REMARK    1  A    between atoms: N_12  and  C_13 
ROOT
HETATM    1  C   UNK N   1      34.408  12.550   9.857  0.00  0.00     0.169 C 
HETATM    2  N   UNK N   1      34.971  13.236  10.986  0.00  0.00    -0.213 N 
HETATM    3  C   UNK N   1      35.758  12.529  11.966  0.00  0.00     0.244 A 
HETATM    4  C   UNK N   1      36.067  13.688  12.866  0.00  0.00     0.254 A 
HETATM    5  O   UNK N   1      36.734  13.610  13.885  0.00  0.00    -0.271 OA
HETATM    6  N   UNK N   1      35.527  14.841  12.433  0.00  0.00    -0.158 N 
ATOM      7  HN  UNK N   1      35.613  15.747  12.892  1.00  0.00     0.187 HD
HETATM    8  C   UNK N   1      34.891  14.614  11.353  0.00  0.00     0.687 A 
HETATM    9  N   UNK N   1      34.212  15.686  10.672  0.00  0.00    -0.141 N 
HETATM   10  C   UNK N   1      33.483  15.673   9.524  0.00  0.00     0.339 C 
HETATM   11  O   UNK N   1      33.321  14.642   8.902  0.00  0.00    -0.246 OA
HETATM   12  N   UNK N   1      32.930  16.834   9.073  0.00  0.00    -0.308 N 
HETATM   13  H   UNK N   1      34.287  16.566  11.106  0.00  0.00     0.189 HD
HETATM   14  H   UNK N   1      33.083  17.649   9.605  0.00  0.00     0.170 HD
ENDROOT
BRANCH  12  15
HETATM   15  C   UNK N   1      32.143  16.961   7.885  0.00  0.00     0.037 A 
HETATM   16  C   UNK N   1      32.783  17.152   6.652  0.00  0.00     0.053 A 
HETATM   17  C   UNK N   1      32.028  17.278   5.478  0.00  0.00     0.036 A 
HETATM   18  C   UNK N   1      30.633  17.214   5.528  0.00  0.00     0.024 A 
HETATM   19 Cl   UNK N   1      32.826  17.517   3.939  0.00  0.00    -0.084 Cl
HETATM   20  C   UNK N   1      29.988  17.023   6.748  0.00  0.00     0.004 A 
HETATM   21  C   UNK N   1      30.737  16.898   7.917  0.00  0.00     0.029 A 
ENDBRANCH  12  15
TORSDOF 1
ENDMDL
MODEL 6
REMARK VINA RESULT:      -6.1      9.929     12.741
REMARK  1 active torsions:
REMARK  status: ('A' for Active; 'I' for Inactive)
REMARK       I    between atoms: C_8  and  N_9 
REMARK       I    between atoms: N_9  and  C_10 
REMARK       I    between atoms: C_10  and  N_12 
REMARK    1  A    between atoms: N_12  and  C_13 
ROOT
HETATM    1  C   UNK N   1      23.245  17.641   4.791  0.00  0.00     0.169 C 
HETATM    2  N   UNK N   1      23.099  18.811   3.971  0.00  0.00    -0.213 N 
HETATM    3  C   UNK N   1      21.841  19.121   3.338  0.00  0.00     0.244 A 
HETATM    4  C   UNK N   1      22.257  20.386   2.648  0.00  0.00     0.254 A 
HETATM    5  O   UNK N   1      21.520  21.064   1.950  0.00  0.00    -0.271 OA
HETATM    6  N   UNK N   1      23.544  20.704   2.876  0.00  0.00    -0.158 N 
ATOM      7  HN  UNK N   1      24.029  21.520   2.505  1.00  0.00     0.187 HD
HETATM    8  C   UNK N   1      24.055  19.818   3.634  0.00  0.00     0.687 A 
HETATM    9  N   UNK N   1      25.434  19.916   4.038  0.00  0.00    -0.141 N 
HETATM   10  C   UNK N   1      26.176  19.098   4.830  0.00  0.00     0.339 C 
HETATM   11  O   UNK N   1      25.690  18.099   5.321  0.00  0.00    -0.246 OA
HETATM   12  N   UNK N   1      27.482  19.407   5.070  0.00  0.00    -0.308 N 
HETATM   13  H   UNK N   1      25.914  20.700   3.686  0.00  0.00     0.189 HD
HETATM   14  H   UNK N   1      27.840  20.225   4.654  0.00  0.00     0.170 HD
ENDROOT
BRANCH  12  15
HETATM   15  C   UNK N   1      28.372  18.636   5.881  0.00  0.00     0.037 A 
HETATM   16  C   UNK N   1      28.435  18.879   7.260  0.00  0.00     0.053 A 
HETATM   17  C   UNK N   1      29.302  18.133   8.070  0.00  0.00     0.036 A 
HETATM   18  C   UNK N   1      30.109  17.141   7.509  0.00  0.00     0.024 A 
HETATM   19 Cl   UNK N   1      29.380  18.437   9.792  0.00  0.00    -0.084 Cl
HETATM   20  C   UNK N   1      30.054  16.891   6.139  0.00  0.00     0.004 A 
HETATM   21  C   UNK N   1      29.193  17.632   5.332  0.00  0.00     0.029 A 
ENDBRANCH  12  15
TORSDOF 1
ENDMDL
MODEL 7
REMARK VINA RESULT:      -5.9      5.456      9.119
REMARK  1 active torsions:
REMARK  status: ('A' for Active; 'I' for Inactive)
REMARK       I    between atoms: C_8  and  N_9 
REMARK       I    between atoms: N_9  and  C_10 
REMARK       I    between atoms: C_10  and  N_12 
REMARK    1  A    between atoms: N_12  and  C_13 
ROOT
HETATM    1  C   UNK N   1      33.743  14.512   7.460  0.00  0.00     0.169 C 
HETATM    2  N   UNK N   1      34.219  15.370   8.509  0.00  0.00    -0.213 N 
HETATM    3  C   UNK N   1      35.473  15.108   9.171  0.00  0.00     0.244 A 
HETATM    4  C   UNK N   1      35.456  16.266  10.124  0.00  0.00     0.254 A 
HETATM    5  O   UNK N   1      36.335  16.501  10.937  0.00  0.00    -0.271 OA
HETATM    6  N   UNK N   1      34.358  17.032   9.992  0.00  0.00    -0.158 N 
ATOM      7  HN  UNK N   1      34.146  17.866  10.538  1.00  0.00     0.187 HD
HETATM    8  C   UNK N   1      33.627  16.543   9.071  0.00  0.00     0.687 A 
HETATM    9  N   UNK N   1      32.380  17.173   8.722  0.00  0.00    -0.141 N 
HETATM   10  C   UNK N   1      31.455  16.830   7.787  0.00  0.00     0.339 C 
HETATM   11  O   UNK N   1      31.615  15.852   7.084  0.00  0.00    -0.246 OA
HETATM   12  N   UNK N   1      30.337  17.597   7.642  0.00  0.00    -0.308 N 
HETATM   13  H   UNK N   1      32.164  17.980   9.243  0.00  0.00     0.189 HD
HETATM   14  H   UNK N   1      30.244  18.381   8.230  0.00  0.00     0.170 HD
ENDROOT
BRANCH  12  15
HETATM   15  C   UNK N   1      29.289  17.350   6.700  0.00  0.00     0.037 A 
HETATM   16  C   UNK N   1      28.141  16.660   7.113  0.00  0.00     0.053 A 
HETATM   17  C   UNK N   1      27.104  16.409   6.204  0.00  0.00     0.036 A 
HETATM   18  C   UNK N   1      27.208  16.844   4.880  0.00  0.00     0.024 A 
HETATM   19 Cl   UNK N   1      25.670  15.548   6.718  0.00  0.00    -0.084 Cl
HETATM   20  C   UNK N   1      28.345  17.531   4.460  0.00  0.00     0.004 A 
HETATM   21  C   UNK N   1      29.378  17.781   5.363  0.00  0.00     0.029 A 
ENDBRANCH  12  15
TORSDOF 1
ENDMDL
MODEL 8
REMARK VINA RESULT:      -5.9      7.977     11.985
REMARK  1 active torsions:
REMARK  status: ('A' for Active; 'I' for Inactive)
REMARK       I    between atoms: C_8  and  N_9 
REMARK       I    between atoms: N_9  and  C_10 
REMARK       I    between atoms: C_10  and  N_12 
REMARK    1  A    between atoms: N_12  and  C_13 
ROOT
HETATM    1  C   UNK N   1      30.474  17.195   7.755  0.00  0.00     0.169 C 
HETATM    2  N   UNK N   1      31.606  17.092   6.876  0.00  0.00    -0.213 N 
HETATM    3  C   UNK N   1      32.903  16.711   7.378  0.00  0.00     0.244 A 
HETATM    4  C   UNK N   1      33.656  16.765   6.083  0.00  0.00     0.254 A 
HETATM    5  O   UNK N   1      34.845  16.516   5.967  0.00  0.00    -0.271 OA
HETATM    6  N   UNK N   1      32.879  17.122   5.044  0.00  0.00    -0.158 N 
ATOM      7  HN  UNK N   1      33.188  17.220   4.077  1.00  0.00     0.187 HD
HETATM    8  C   UNK N   1      31.694  17.316   5.468  0.00  0.00     0.687 A 
HETATM    9  N   UNK N   1      30.653  17.711   4.556  0.00  0.00    -0.141 N 
HETATM   10  C   UNK N   1      29.338  17.969   4.784  0.00  0.00     0.339 C 
HETATM   11  O   UNK N   1      28.872  17.880   5.903  0.00  0.00    -0.246 OA
HETATM   12  N   UNK N   1      28.538  18.332   3.741  0.00  0.00    -0.308 N 
HETATM   13  H   UNK N   1      30.938  17.809   3.619  0.00  0.00     0.189 HD
HETATM   14  H   UNK N   1      28.953  18.393   2.850  0.00  0.00     0.170 HD
ENDROOT
BRANCH  12  15
HETATM   15  C   UNK N   1      27.143  18.630   3.842  0.00  0.00     0.037 A 
HETATM   16  C   UNK N   1      26.211  17.584   3.818  0.00  0.00     0.053 A 
HETATM   17  C   UNK N   1      24.839  17.858   3.916  0.00  0.00     0.036 A 
HETATM   18  C   UNK N   1      24.393  19.176   4.038  0.00  0.00     0.024 A 
HETATM   19 Cl   UNK N   1      23.675  16.551   3.886  0.00  0.00    -0.084 Cl
HETATM   20  C   UNK N   1      25.311  20.223   4.063  0.00  0.00     0.004 A 
HETATM   21  C   UNK N   1      26.675  19.952   3.966  0.00  0.00     0.029 A 
ENDBRANCH  12  15
TORSDOF 1
ENDMDL
MODEL 9
REMARK VINA RESULT:      -5.8     14.569     15.650
REMARK  1 active torsions:
REMARK  status: ('A' for Active; 'I' for Inactive)
REMARK       I    between atoms: C_8  and  N_9 
REMARK       I    between atoms: N_9  and  C_10 
REMARK       I    between atoms: C_10  and  N_12 
REMARK    1  A    between atoms: N_12  and  C_13 
ROOT
HETATM    1  C   UNK N   1      23.929  18.459   4.649  0.00  0.00     0.169 C 
HETATM    2  N   UNK N   1      22.848  19.104   3.957  0.00  0.00    -0.213 N 
HETATM    3  C   UNK N   1      23.100  20.173   3.022  0.00  0.00     0.244 A 
HETATM    4  C   UNK N   1      21.680  20.449   2.627  0.00  0.00     0.254 A 
HETATM    5  O   UNK N   1      21.342  21.303   1.824  0.00  0.00    -0.271 OA
HETATM    6  N   UNK N   1      20.801  19.647   3.256  0.00  0.00    -0.158 N 
ATOM      7  HN  UNK N   1      19.789  19.665   3.135  1.00  0.00     0.187 HD
HETATM    8  C   UNK N   1      21.442  18.863   4.027  0.00  0.00     0.687 A 
HETATM    9  N   UNK N   1      20.738  17.894   4.825  0.00  0.00    -0.141 N 
HETATM   10  C   UNK N   1      21.211  16.970   5.704  0.00  0.00     0.339 C 
HETATM   11  O   UNK N   1      22.402  16.870   5.919  0.00  0.00    -0.246 OA
HETATM   12  N   UNK N   1      20.332  16.151   6.349  0.00  0.00    -0.308 N 
HETATM   13  H   UNK N   1      19.759  17.900   4.718  0.00  0.00     0.189 HD
HETATM   14  H   UNK N   1      19.374  16.264   6.148  0.00  0.00     0.170 HD
ENDROOT
BRANCH  12  15
HETATM   15  C   UNK N   1      20.694  15.141   7.295  0.00  0.00     0.037 A 
HETATM   16  C   UNK N   1      21.176  13.908   6.835  0.00  0.00     0.053 A 
HETATM   17  C   UNK N   1      21.536  12.907   7.747  0.00  0.00     0.036 A 
HETATM   18  C   UNK N   1      21.416  13.131   9.121  0.00  0.00     0.024 A 
HETATM   19 Cl   UNK N   1      22.139  11.367   7.174  0.00  0.00    -0.084 Cl
HETATM   20  C   UNK N   1      20.937  14.353   9.588  0.00  0.00     0.004 A 
HETATM   21  C   UNK N   1      20.579  15.350   8.682  0.00  0.00     0.029 A 
ENDBRANCH  12  15
TORSDOF 1
ENDMDL
