MODEL 1
REMARK VINA RESULT:      -8.2      0.000      0.000
REMARK  7 active torsions:
REMARK  status: ('A' for Active; 'I' for Inactive)
REMARK       I    between atoms: N_2  and  C_3 
REMARK    1  A    between atoms: C_5  and  C_3 
REMARK    2  A    between atoms: C_6  and  O_33 
REMARK    3  A    between atoms: C_7  and  O_32 
REMARK    4  A    between atoms: C_8  and  N_10 
REMARK    5  A    between atoms: C_21  and  N_22 
REMARK    6  A    between atoms: N_22  and  C_23 
REMARK    7  A    between atoms: C_23  and  C_24 
ROOT
HETATM    1  N   UNK N   1      35.378  14.395  12.277  0.00  0.00    -0.297 N 
HETATM    2  C   UNK N   1      36.276  14.788  13.218  0.00  0.00     0.188 A 
HETATM    3  N   UNK N   1      36.689  13.732  13.976  0.00  0.00    -0.346 N 
ATOM      4  HN  UNK N   1      37.356  13.738  14.747  1.00  0.00     0.167 HD
HETATM    5  C   UNK N   1      36.014  12.680  13.473  0.00  0.00     0.122 A 
HETATM    6  C   UNK N   1      35.248  13.076  12.446  0.00  0.00     0.144 A 
HETATM    7  N   UNK N   1      34.447  12.226  11.759  0.00  0.00    -0.316 N 
ATOM      8  HN  UNK N   1      33.866  12.558  10.989  1.00  0.00     0.170 HD
HETATM    9  C   UNK N   1      34.440  10.910  12.130  0.00  0.00     0.182 A 
HETATM   10  N   UNK N   1      35.217  10.481  13.180  0.00  0.00    -0.317 N 
ATOM     11  HN  UNK N   1      35.204   9.497  13.446  1.00  0.00     0.170 HD
HETATM   12  C   UNK N   1      36.008  11.358  13.873  0.00  0.00     0.134 A 
HETATM   13 Cl   UNK N   1      33.414   9.775  11.282  0.00  0.00    -0.045 Cl
ENDROOT
BRANCH   1  14
HETATM   14  C   UNK N   1      34.634  15.232  11.337  0.00  0.00     0.263 C 
HETATM   15  C   UNK N   1      35.468  16.466  10.952  0.00  0.00     0.199 C 
HETATM   16  C   UNK N   1      35.059  16.665   9.535  0.00  0.00     0.189 C 
HETATM   17  C   UNK N   1      34.950  15.207   9.121  0.00  0.00     0.247 C 
HETATM   18  O   UNK N   1      34.299  14.519  10.160  0.00  0.00    -0.346 OA
BRANCH  15  19
HETATM   19  O   UNK N   1      36.839  16.174  10.972  0.00  0.00    -0.388 OA
HETATM   20  H   UNK N   1      37.659  15.677  11.115  0.00  0.00     0.210 HD
ENDBRANCH  15  19
BRANCH  16  21
HETATM   21  O   UNK N   1      33.800  17.277   9.513  0.00  0.00    -0.390 OA
HETATM   22  H   UNK N   1      33.200  18.038   9.567  0.00  0.00     0.210 HD
ENDBRANCH  16  21
BRANCH  17  23
HETATM   23  C   UNK N   1      34.321  14.973   7.773  0.00  0.00     0.249 C 
HETATM   24  N   UNK N   1      34.464  15.887   6.780  0.00  0.00    -0.363 N 
HETATM   25  C   UNK N   1      33.918  15.680   5.464  0.00  0.00     0.149 C 
HETATM   26  H   UNK N   1      34.959  16.717   6.966  0.00  0.00     0.162 HD
HETATM   27  O   UNK N   1      33.713  13.932   7.571  0.00  0.00    -0.271 OA
ENDBRANCH  17  23
ENDBRANCH   1  14
BRANCH  12  28
HETATM   28  N   UNK N   1      36.788  10.938  14.968  0.00  0.00    -0.370 N 
HETATM   29  H   UNK N   1      37.690  11.313  15.088  0.00  0.00     0.161 HD
BRANCH  28  30
HETATM   30  C   UNK N   1      36.296   9.973  15.915  0.00  0.00     0.160 C 
BRANCH  30  31
HETATM   31  C   UNK N   1      36.060  10.647  17.232  0.00  0.00    -0.039 A 
HETATM   32  C   UNK N   1      35.415  11.886  17.272  0.00  0.00     0.009 A 
HETATM   33  C   UNK N   1      35.166  12.505  18.502  0.00  0.00     0.002 A 
HETATM   34  C   UNK N   1      35.565  11.889  19.693  0.00  0.00     0.018 A 
HETATM   35  C   UNK N   1      36.215  10.653  19.656  0.00  0.00     0.007 A 
HETATM   36  C   UNK N   1      36.458  10.035  18.432  0.00  0.00     0.027 A 
HETATM   37  I   UNK N   1      36.833   9.706  21.429  0.00  0.00    -0.045 I 
ENDBRANCH  30  31
ENDBRANCH  28  30
ENDBRANCH  12  28
TORSDOF 7
ENDMDL
MODEL 2
REMARK VINA RESULT:      -8.1      1.798      2.697
REMARK  7 active torsions:
REMARK  status: ('A' for Active; 'I' for Inactive)
REMARK       I    between atoms: N_2  and  C_3 
REMARK    1  A    between atoms: C_5  and  C_3 
REMARK    2  A    between atoms: C_6  and  O_33 
REMARK    3  A    between atoms: C_7  and  O_32 
REMARK    4  A    between atoms: C_8  and  N_10 
REMARK    5  A    between atoms: C_21  and  N_22 
REMARK    6  A    between atoms: N_22  and  C_23 
REMARK    7  A    between atoms: C_23  and  C_24 
ROOT
HETATM    1  N   UNK N   1      35.095  14.292  10.001  0.00  0.00    -0.297 N 
HETATM    2  C   UNK N   1      35.906  15.264  10.494  0.00  0.00     0.188 A 
HETATM    3  N   UNK N   1      36.435  14.901  11.697  0.00  0.00    -0.346 N 
ATOM      4  HN  UNK N   1      37.074  15.434  12.286  1.00  0.00     0.167 HD
HETATM    5  C   UNK N   1      35.919  13.678  11.930  0.00  0.00     0.122 A 
HETATM    6  C   UNK N   1      35.136  13.309  10.905  0.00  0.00     0.144 A 
HETATM    7  N   UNK N   1      34.473  12.128  10.877  0.00  0.00    -0.316 N 
ATOM      8  HN  UNK N   1      33.875  11.879  10.089  1.00  0.00     0.170 HD
HETATM    9  C   UNK N   1      34.631  11.280  11.938  0.00  0.00     0.182 A 
HETATM   10  N   UNK N   1      35.429  11.636  12.999  0.00  0.00    -0.317 N 
ATOM     11  HN  UNK N   1      35.539  10.993  13.783  1.00  0.00     0.170 HD
HETATM   12  C   UNK N   1      36.077  12.842  13.017  0.00  0.00     0.134 A 
HETATM   13 Cl   UNK N   1      33.787   9.747  11.956  0.00  0.00    -0.045 Cl
ENDROOT
BRANCH   1  14
HETATM   14  C   UNK N   1      34.272  14.332   8.792  0.00  0.00     0.263 C 
HETATM   15  C   UNK N   1      32.794  14.542   9.165  0.00  0.00     0.199 C 
HETATM   16  C   UNK N   1      32.320  15.371   8.024  0.00  0.00     0.189 C 
HETATM   17  C   UNK N   1      33.562  16.224   7.828  0.00  0.00     0.247 C 
HETATM   18  O   UNK N   1      34.678  15.374   7.923  0.00  0.00    -0.346 OA
BRANCH  15  19
HETATM   19  O   UNK N   1      32.673  15.303  10.336  0.00  0.00    -0.388 OA
HETATM   20  H   UNK N   1      32.767  15.559  11.266  0.00  0.00     0.210 HD
ENDBRANCH  15  19
BRANCH  16  21
HETATM   21  O   UNK N   1      32.116  14.538   6.918  0.00  0.00    -0.390 OA
HETATM   22  H   UNK N   1      32.367  13.833   6.300  0.00  0.00     0.210 HD
ENDBRANCH  16  21
BRANCH  17  23
HETATM   23  C   UNK N   1      33.566  17.065   6.580  0.00  0.00     0.249 C 
HETATM   24  N   UNK N   1      32.665  16.833   5.592  0.00  0.00    -0.363 N 
HETATM   25  C   UNK N   1      32.605  17.644   4.403  0.00  0.00     0.149 C 
HETATM   26  H   UNK N   1      32.032  16.087   5.693  0.00  0.00     0.162 HD
HETATM   27  O   UNK N   1      34.364  17.987   6.483  0.00  0.00    -0.271 OA
ENDBRANCH  17  23
ENDBRANCH   1  14
BRANCH  12  28
HETATM   28  N   UNK N   1      36.875  13.232  14.109  0.00  0.00    -0.370 N 
HETATM   29  H   UNK N   1      37.795  12.888  14.181  0.00  0.00     0.161 HD
BRANCH  28  30
HETATM   30  C   UNK N   1      36.377  14.121  15.125  0.00  0.00     0.160 C 
BRANCH  30  31
HETATM   31  C   UNK N   1      35.986  13.326  16.332  0.00  0.00    -0.039 A 
HETATM   32  C   UNK N   1      35.595  13.985  17.500  0.00  0.00     0.009 A 
HETATM   33  C   UNK N   1      35.199  13.246  18.621  0.00  0.00     0.002 A 
HETATM   34  C   UNK N   1      35.199  11.847  18.577  0.00  0.00     0.018 A 
HETATM   35  C   UNK N   1      35.594  11.186  17.413  0.00  0.00     0.007 A 
HETATM   36  C   UNK N   1      35.983  11.921  16.296  0.00  0.00     0.027 A 
HETATM   37  I   UNK N   1      35.610   9.085  17.319  0.00  0.00    -0.045 I 
ENDBRANCH  30  31
ENDBRANCH  28  30
ENDBRANCH  12  28
TORSDOF 7
ENDMDL
MODEL 3
REMARK VINA RESULT:      -7.9      1.671      1.748
REMARK  7 active torsions:
REMARK  status: ('A' for Active; 'I' for Inactive)
REMARK       I    between atoms: N_2  and  C_3 
REMARK    1  A    between atoms: C_5  and  C_3 
REMARK    2  A    between atoms: C_6  and  O_33 
REMARK    3  A    between atoms: C_7  and  O_32 
REMARK    4  A    between atoms: C_8  and  N_10 
REMARK    5  A    between atoms: C_21  and  N_22 
REMARK    6  A    between atoms: N_22  and  C_23 
REMARK    7  A    between atoms: C_23  and  C_24 
ROOT
HETATM    1  N   UNK N   1      35.799  14.231  13.133  0.00  0.00    -0.297 N 
HETATM    2  C   UNK N   1      36.514  14.365  14.281  0.00  0.00     0.188 A 
HETATM    3  N   UNK N   1      36.605  13.179  14.945  0.00  0.00    -0.346 N 
ATOM      4  HN  UNK N   1      37.083  12.989  15.826  1.00  0.00     0.167 HD
HETATM    5  C   UNK N   1      35.921  12.313  14.173  0.00  0.00     0.122 A 
HETATM    6  C   UNK N   1      35.458  12.941  13.081  0.00  0.00     0.144 A 
HETATM    7  N   UNK N   1      34.719  12.315  12.133  0.00  0.00    -0.316 N 
ATOM      8  HN  UNK N   1      34.371  12.821  11.319  1.00  0.00     0.170 HD
HETATM    9  C   UNK N   1      34.454  10.984  12.303  0.00  0.00     0.182 A 
HETATM   10  N   UNK N   1      34.918  10.319  13.413  0.00  0.00    -0.317 N 
ATOM     11  HN  UNK N   1      34.715   9.327  13.526  1.00  0.00     0.170 HD
HETATM   12  C   UNK N   1      35.650  10.973  14.368  0.00  0.00     0.134 A 
HETATM   13 Cl   UNK N   1      33.495  10.133  11.113  0.00  0.00    -0.045 Cl
ENDROOT
BRANCH   1  14
HETATM   14  C   UNK N   1      35.398  15.279  12.194  0.00  0.00     0.263 C 
HETATM   15  C   UNK N   1      36.468  15.449  11.102  0.00  0.00     0.199 C 
HETATM   16  C   UNK N   1      35.628  15.791   9.922  0.00  0.00     0.189 C 
HETATM   17  C   UNK N   1      34.447  14.878  10.208  0.00  0.00     0.247 C 
HETATM   18  O   UNK N   1      34.158  14.977  11.580  0.00  0.00    -0.346 OA
BRANCH  15  19
HETATM   19  O   UNK N   1      37.115  14.234  10.838  0.00  0.00    -0.388 OA
HETATM   20  H   UNK N   1      37.781  13.614  10.504  0.00  0.00     0.210 HD
ENDBRANCH  15  19
BRANCH  16  21
HETATM   21  O   UNK N   1      35.245  17.134  10.017  0.00  0.00    -0.390 OA
HETATM   22  H   UNK N   1      35.343  18.048  10.328  0.00  0.00     0.210 HD
ENDBRANCH  16  21
BRANCH  17  23
HETATM   23  C   UNK N   1      33.243  15.102   9.333  0.00  0.00     0.249 C 
HETATM   24  N   UNK N   1      32.617  16.306   9.322  0.00  0.00    -0.363 N 
HETATM   25  C   UNK N   1      31.491  16.577   8.466  0.00  0.00     0.149 C 
HETATM   26  H   UNK N   1      32.945  17.017   9.917  0.00  0.00     0.162 HD
HETATM   27  O   UNK N   1      32.859  14.200   8.602  0.00  0.00    -0.271 OA
ENDBRANCH  17  23
ENDBRANCH   1  14
BRANCH  12  28
HETATM   28  N   UNK N   1      36.107  10.312  15.524  0.00  0.00    -0.370 N 
HETATM   29  H   UNK N   1      37.013  10.501  15.860  0.00  0.00     0.161 HD
BRANCH  28  30
HETATM   30  C   UNK N   1      35.281   9.365  16.226  0.00  0.00     0.160 C 
BRANCH  30  31
HETATM   31  C   UNK N   1      35.096   9.822  17.640  0.00  0.00    -0.039 A 
HETATM   32  C   UNK N   1      35.745  10.975  18.088  0.00  0.00     0.009 A 
HETATM   33  C   UNK N   1      35.552  11.423  19.400  0.00  0.00     0.002 A 
HETATM   34  C   UNK N   1      34.713  10.715  20.267  0.00  0.00     0.018 A 
HETATM   35  C   UNK N   1      34.066   9.559  19.824  0.00  0.00     0.007 A 
HETATM   36  C   UNK N   1      34.255   9.117  18.518  0.00  0.00     0.027 A 
HETATM   37  I   UNK N   1      32.805   8.470  21.108  0.00  0.00    -0.045 I 
ENDBRANCH  30  31
ENDBRANCH  28  30
ENDBRANCH  12  28
TORSDOF 7
ENDMDL
MODEL 4
REMARK VINA RESULT:      -7.8      4.534      9.207
REMARK  7 active torsions:
REMARK  status: ('A' for Active; 'I' for Inactive)
REMARK       I    between atoms: N_2  and  C_3 
REMARK    1  A    between atoms: C_5  and  C_3 
REMARK    2  A    between atoms: C_6  and  O_33 
REMARK    3  A    between atoms: C_7  and  O_32 
REMARK    4  A    between atoms: C_8  and  N_10 
REMARK    5  A    between atoms: C_21  and  N_22 
REMARK    6  A    between atoms: N_22  and  C_23 
REMARK    7  A    between atoms: C_23  and  C_24 
ROOT
HETATM    1  N   UNK N   1      34.859  14.076  11.059  0.00  0.00    -0.297 N 
HETATM    2  C   UNK N   1      34.692  15.375  11.424  0.00  0.00     0.188 A 
HETATM    3  N   UNK N   1      34.597  16.185  10.332  0.00  0.00    -0.346 N 
ATOM      4  HN  UNK N   1      34.466  17.196  10.312  1.00  0.00     0.167 HD
HETATM    5  C   UNK N   1      34.717  15.345   9.285  0.00  0.00     0.122 A 
HETATM    6  C   UNK N   1      34.853  14.084   9.724  0.00  0.00     0.144 A 
HETATM    7  N   UNK N   1      35.008  13.030   8.887  0.00  0.00    -0.316 N 
ATOM      8  HN  UNK N   1      35.121  12.083   9.250  1.00  0.00     0.170 HD
HETATM    9  C   UNK N   1      35.010  13.274   7.541  0.00  0.00     0.182 A 
HETATM   10  N   UNK N   1      34.872  14.558   7.069  0.00  0.00    -0.317 N 
ATOM     11  HN  UNK N   1      34.873  14.726   6.063  1.00  0.00     0.170 HD
HETATM   12  C   UNK N   1      34.733  15.613   7.931  0.00  0.00     0.134 A 
HETATM   13 Cl   UNK N   1      35.219  11.948   6.419  0.00  0.00    -0.045 Cl
ENDROOT
BRANCH   1  14
HETATM   14  C   UNK N   1      35.094  12.921  11.925  0.00  0.00     0.263 C 
HETATM   15  C   UNK N   1      36.604  12.707  12.125  0.00  0.00     0.199 C 
HETATM   16  C   UNK N   1      36.645  12.204  13.525  0.00  0.00     0.189 C 
HETATM   17  C   UNK N   1      35.544  13.070  14.113  0.00  0.00     0.247 C 
HETATM   18  O   UNK N   1      34.482  13.088  13.191  0.00  0.00    -0.346 OA
BRANCH  15  19
HETATM   19  O   UNK N   1      37.295  13.926  12.081  0.00  0.00    -0.388 OA
HETATM   20  H   UNK N   1      37.530  14.845  12.284  0.00  0.00     0.210 HD
ENDBRANCH  15  19
BRANCH  16  21
HETATM   21  O   UNK N   1      36.265  10.857  13.528  0.00  0.00    -0.390 OA
HETATM   22  H   UNK N   1      35.867  10.062  13.138  0.00  0.00     0.210 HD
ENDBRANCH  16  21
BRANCH  17  23
HETATM   23  C   UNK N   1      35.111  12.692  15.504  0.00  0.00     0.249 C 
HETATM   24  N   UNK N   1      35.877  11.868  16.262  0.00  0.00    -0.363 N 
HETATM   25  C   UNK N   1      35.523  11.519  17.613  0.00  0.00     0.149 C 
HETATM   26  H   UNK N   1      36.704  11.499  15.876  0.00  0.00     0.162 HD
HETATM   27  O   UNK N   1      34.080  13.167  15.959  0.00  0.00    -0.271 OA
ENDBRANCH  17  23
ENDBRANCH   1  14
BRANCH  12  28
HETATM   28  N   UNK N   1      34.618  16.935   7.462  0.00  0.00    -0.370 N 
HETATM   29  H   UNK N   1      35.190  17.635   7.852  0.00  0.00     0.161 HD
BRANCH  28  30
HETATM   30  C   UNK N   1      33.684  17.288   6.426  0.00  0.00     0.160 C 
BRANCH  30  31
HETATM   31  C   UNK N   1      32.310  17.393   7.013  0.00  0.00    -0.039 A 
HETATM   32  C   UNK N   1      32.133  17.995   8.262  0.00  0.00     0.009 A 
HETATM   33  C   UNK N   1      30.848  18.123   8.801  0.00  0.00     0.002 A 
HETATM   34  C   UNK N   1      29.739  17.645   8.095  0.00  0.00     0.018 A 
HETATM   35  C   UNK N   1      29.913  17.038   6.849  0.00  0.00     0.007 A 
HETATM   36  C   UNK N   1      31.191  16.916   6.311  0.00  0.00     0.027 A 
HETATM   37  I   UNK N   1      28.265  16.305   5.768  0.00  0.00    -0.045 I 
ENDBRANCH  30  31
ENDBRANCH  28  30
ENDBRANCH  12  28
TORSDOF 7
ENDMDL
MODEL 5
REMARK VINA RESULT:      -7.7      7.417     12.603
REMARK  7 active torsions:
REMARK  status: ('A' for Active; 'I' for Inactive)
REMARK       I    between atoms: N_2  and  C_3 
REMARK    1  A    between atoms: C_5  and  C_3 
REMARK    2  A    between atoms: C_6  and  O_33 
REMARK    3  A    between atoms: C_7  and  O_32 
REMARK    4  A    between atoms: C_8  and  N_10 
REMARK    5  A    between atoms: C_21  and  N_22 
REMARK    6  A    between atoms: N_22  and  C_23 
REMARK    7  A    between atoms: C_23  and  C_24 
ROOT
HETATM    1  N   UNK N   1      31.888  15.867   6.208  0.00  0.00    -0.297 N 
HETATM    2  C   UNK N   1      31.523  15.674   4.913  0.00  0.00     0.188 A 
HETATM    3  N   UNK N   1      30.394  16.374   4.610  0.00  0.00    -0.346 N 
ATOM      4  HN  UNK N   1      29.903  16.415   3.717  1.00  0.00     0.167 HD
HETATM    5  C   UNK N   1      30.073  17.000   5.759  0.00  0.00     0.122 A 
HETATM    6  C   UNK N   1      30.980  16.711   6.705  0.00  0.00     0.144 A 
HETATM    7  N   UNK N   1      30.899  17.193   7.969  0.00  0.00    -0.316 N 
ATOM      8  HN  UNK N   1      31.597  16.947   8.671  1.00  0.00     0.170 HD
HETATM    9  C   UNK N   1      29.853  18.020   8.274  0.00  0.00     0.182 A 
HETATM   10  N   UNK N   1      28.912  18.330   7.321  0.00  0.00    -0.317 N 
ATOM     11  HN  UNK N   1      28.138  18.949   7.561  1.00  0.00     0.170 HD
HETATM   12  C   UNK N   1      29.002  17.819   6.053  0.00  0.00     0.134 A 
HETATM   13 Cl   UNK N   1      29.697  18.659   9.895  0.00  0.00    -0.045 Cl
ENDROOT
BRANCH   1  14
HETATM   14  C   UNK N   1      32.978  15.226   6.942  0.00  0.00     0.263 C 
HETATM   15  C   UNK N   1      34.310  15.434   6.201  0.00  0.00     0.199 C 
HETATM   16  C   UNK N   1      35.262  15.546   7.339  0.00  0.00     0.189 C 
HETATM   17  C   UNK N   1      34.379  16.319   8.304  0.00  0.00     0.247 C 
HETATM   18  O   UNK N   1      33.096  15.746   8.254  0.00  0.00    -0.346 OA
BRANCH  15  19
HETATM   19  O   UNK N   1      34.315  16.653   5.508  0.00  0.00    -0.388 OA
HETATM   20  H   UNK N   1      34.018  17.365   4.921  0.00  0.00     0.210 HD
ENDBRANCH  15  19
BRANCH  16  21
HETATM   21  O   UNK N   1      35.524  14.262   7.833  0.00  0.00    -0.390 OA
HETATM   22  H   UNK N   1      35.270  13.407   8.215  0.00  0.00     0.210 HD
ENDBRANCH  16  21
BRANCH  17  23
HETATM   23  C   UNK N   1      34.918  16.439   9.704  0.00  0.00     0.249 C 
HETATM   24  N   UNK N   1      34.889  15.374  10.545  0.00  0.00    -0.363 N 
HETATM   25  C   UNK N   1      35.436  15.432  11.875  0.00  0.00     0.149 C 
HETATM   26  H   UNK N   1      34.481  14.534  10.233  0.00  0.00     0.162 HD
HETATM   27  O   UNK N   1      35.421  17.494  10.063  0.00  0.00    -0.271 OA
ENDBRANCH  17  23
ENDBRANCH   1  14
BRANCH  12  28
HETATM   28  N   UNK N   1      28.031  18.106   5.075  0.00  0.00    -0.370 N 
HETATM   29  H   UNK N   1      28.311  18.518   4.225  0.00  0.00     0.161 HD
BRANCH  28  30
HETATM   30  C   UNK N   1      26.639  17.812   5.288  0.00  0.00     0.160 C 
BRANCH  30  31
HETATM   31  C   UNK N   1      25.804  18.735   4.455  0.00  0.00    -0.039 A 
HETATM   32  C   UNK N   1      26.419  19.745   3.710  0.00  0.00     0.009 A 
HETATM   33  C   UNK N   1      25.647  20.592   2.906  0.00  0.00     0.002 A 
HETATM   34  C   UNK N   1      24.258  20.432   2.849  0.00  0.00     0.018 A 
HETATM   35  C   UNK N   1      23.639  19.427   3.596  0.00  0.00     0.007 A 
HETATM   36  C   UNK N   1      24.409  18.583   4.392  0.00  0.00     0.027 A 
HETATM   37  I   UNK N   1      21.553  19.168   3.536  0.00  0.00    -0.045 I 
ENDBRANCH  30  31
ENDBRANCH  28  30
ENDBRANCH  12  28
TORSDOF 7
ENDMDL
MODEL 6
REMARK VINA RESULT:      -7.7     10.281     13.458
REMARK  7 active torsions:
REMARK  status: ('A' for Active; 'I' for Inactive)
REMARK       I    between atoms: N_2  and  C_3 
REMARK    1  A    between atoms: C_5  and  C_3 
REMARK    2  A    between atoms: C_6  and  O_33 
REMARK    3  A    between atoms: C_7  and  O_32 
REMARK    4  A    between atoms: C_8  and  N_10 
REMARK    5  A    between atoms: C_21  and  N_22 
REMARK    6  A    between atoms: N_22  and  C_23 
REMARK    7  A    between atoms: C_23  and  C_24 
ROOT
HETATM    1  N   UNK N   1      25.495  16.433   5.091  0.00  0.00    -0.297 N 
HETATM    2  C   UNK N   1      26.015  15.248   5.507  0.00  0.00     0.188 A 
HETATM    3  N   UNK N   1      27.124  15.440   6.275  0.00  0.00    -0.346 N 
ATOM      4  HN  UNK N   1      27.709  14.731   6.718  1.00  0.00     0.167 HD
HETATM    5  C   UNK N   1      27.273  16.778   6.314  0.00  0.00     0.122 A 
HETATM    6  C   UNK N   1      26.285  17.368   5.623  0.00  0.00     0.144 A 
HETATM    7  N   UNK N   1      26.193  18.713   5.481  0.00  0.00    -0.316 N 
ATOM      8  HN  UNK N   1      25.437  19.133   4.940  1.00  0.00     0.170 HD
HETATM    9  C   UNK N   1      27.143  19.488   6.085  0.00  0.00     0.182 A 
HETATM   10  N   UNK N   1      28.164  18.906   6.798  0.00  0.00    -0.317 N 
ATOM     11  HN  UNK N   1      28.865  19.496   7.245  1.00  0.00     0.170 HD
HETATM   12  C   UNK N   1      28.250  17.544   6.917  0.00  0.00     0.134 A 
HETATM   13 Cl   UNK N   1      27.075  21.229   5.922  0.00  0.00    -0.045 Cl
ENDROOT
BRANCH   1  14
HETATM   14  C   UNK N   1      24.371  16.653   4.181  0.00  0.00     0.263 C 
HETATM   15  C   UNK N   1      23.043  16.355   4.897  0.00  0.00     0.199 C 
HETATM   16  C   UNK N   1      22.142  17.361   4.273  0.00  0.00     0.189 C 
HETATM   17  C   UNK N   1      23.126  18.514   4.163  0.00  0.00     0.247 C 
HETATM   18  O   UNK N   1      24.346  17.986   3.702  0.00  0.00    -0.346 OA
BRANCH  15  19
HETATM   19  O   UNK N   1      23.134  16.642   6.266  0.00  0.00    -0.388 OA
HETATM   20  H   UNK N   1      23.103  17.150   7.091  0.00  0.00     0.210 HD
ENDBRANCH  15  19
BRANCH  16  21
HETATM   21  O   UNK N   1      21.773  16.906   3.002  0.00  0.00    -0.390 OA
HETATM   22  H   UNK N   1      21.132  16.671   2.312  0.00  0.00     0.210 HD
ENDBRANCH  16  21
BRANCH  17  23
HETATM   23  C   UNK N   1      22.646  19.685   3.348  0.00  0.00     0.249 C 
HETATM   24  N   UNK N   1      21.372  19.722   2.882  0.00  0.00    -0.363 N 
HETATM   25  C   UNK N   1      20.859  20.844   2.140  0.00  0.00     0.149 C 
HETATM   26  H   UNK N   1      20.779  18.956   3.059  0.00  0.00     0.162 HD
HETATM   27  O   UNK N   1      23.404  20.623   3.146  0.00  0.00    -0.271 OA
ENDBRANCH  17  23
ENDBRANCH   1  14
BRANCH  12  28
HETATM   28  N   UNK N   1      29.305  16.933   7.621  0.00  0.00    -0.370 N 
HETATM   29  H   UNK N   1      29.344  15.950   7.673  0.00  0.00     0.161 HD
BRANCH  28  30
HETATM   30  C   UNK N   1      30.328  17.711   8.267  0.00  0.00     0.160 C 
BRANCH  30  31
HETATM   31  C   UNK N   1      31.608  17.581   7.500  0.00  0.00    -0.039 A 
HETATM   32  C   UNK N   1      32.828  17.822   8.139  0.00  0.00     0.009 A 
HETATM   33  C   UNK N   1      34.028  17.673   7.436  0.00  0.00     0.002 A 
HETATM   34  C   UNK N   1      34.011  17.288   6.090  0.00  0.00     0.018 A 
HETATM   35  C   UNK N   1      32.794  17.051   5.447  0.00  0.00     0.007 A 
HETATM   36  C   UNK N   1      31.600  17.195   6.150  0.00  0.00     0.027 A 
HETATM   37  I   UNK N   1      32.737  16.478   3.425  0.00  0.00    -0.045 I 
ENDBRANCH  30  31
ENDBRANCH  28  30
ENDBRANCH  12  28
TORSDOF 7
ENDMDL
MODEL 7
REMARK VINA RESULT:      -7.5      8.207     13.415
REMARK  7 active torsions:
REMARK  status: ('A' for Active; 'I' for Inactive)
REMARK       I    between atoms: N_2  and  C_3 
REMARK    1  A    between atoms: C_5  and  C_3 
REMARK    2  A    between atoms: C_6  and  O_33 
REMARK    3  A    between atoms: C_7  and  O_32 
REMARK    4  A    between atoms: C_8  and  N_10 
REMARK    5  A    between atoms: C_21  and  N_22 
REMARK    6  A    between atoms: N_22  and  C_23 
REMARK    7  A    between atoms: C_23  and  C_24 
ROOT
HETATM    1  N   UNK N   1      30.613  16.663   5.127  0.00  0.00    -0.297 N 
HETATM    2  C   UNK N   1      30.030  16.499   3.910  0.00  0.00     0.188 A 
HETATM    3  N   UNK N   1      28.741  16.941   3.918  0.00  0.00    -0.346 N 
ATOM      4  HN  UNK N   1      28.074  16.941   3.146  1.00  0.00     0.167 HD
HETATM    5  C   UNK N   1      28.548  17.378   5.178  0.00  0.00     0.122 A 
HETATM    6  C   UNK N   1      29.675  17.229   5.891  0.00  0.00     0.144 A 
HETATM    7  N   UNK N   1      29.766  17.573   7.198  0.00  0.00    -0.316 N 
ATOM      8  HN  UNK N   1      30.633  17.438   7.718  1.00  0.00     0.170 HD
HETATM    9  C   UNK N   1      28.659  18.106   7.799  0.00  0.00     0.182 A 
HETATM   10  N   UNK N   1      27.493  18.268   7.089  0.00  0.00    -0.317 N 
ATOM     11  HN  UNK N   1      26.676  18.668   7.548  1.00  0.00     0.170 HD
HETATM   12  C   UNK N   1      27.416  17.899   5.772  0.00  0.00     0.134 A 
HETATM   13 Cl   UNK N   1      28.721  18.555   9.489  0.00  0.00    -0.045 Cl
ENDROOT
BRANCH   1  14
HETATM   14  C   UNK N   1      31.944  16.234   5.553  0.00  0.00     0.263 C 
HETATM   15  C   UNK N   1      33.008  16.748   4.567  0.00  0.00     0.199 C 
HETATM   16  C   UNK N   1      34.152  17.007   5.483  0.00  0.00     0.189 C 
HETATM   17  C   UNK N   1      33.377  17.536   6.677  0.00  0.00     0.247 C 
HETATM   18  O   UNK N   1      32.252  16.709   6.851  0.00  0.00    -0.346 OA
BRANCH  15  19
HETATM   19  O   UNK N   1      32.619  17.969   4.000  0.00  0.00    -0.388 OA
HETATM   20  H   UNK N   1      32.517  18.927   3.889  0.00  0.00     0.210 HD
ENDBRANCH  15  19
BRANCH  16  21
HETATM   21  O   UNK N   1      34.763  15.787   5.794  0.00  0.00    -0.390 OA
HETATM   22  H   UNK N   1      35.527  15.218   5.983  0.00  0.00     0.210 HD
ENDBRANCH  16  21
BRANCH  17  23
HETATM   23  C   UNK N   1      34.184  17.705   7.937  0.00  0.00     0.249 C 
HETATM   24  N   UNK N   1      34.253  16.702   8.848  0.00  0.00    -0.363 N 
HETATM   25  C   UNK N   1      35.051  16.805  10.042  0.00  0.00     0.149 C 
HETATM   26  H   UNK N   1      33.742  15.877   8.686  0.00  0.00     0.162 HD
HETATM   27  O   UNK N   1      34.811  18.741   8.110  0.00  0.00    -0.271 OA
ENDBRANCH  17  23
ENDBRANCH   1  14
BRANCH  12  28
HETATM   28  N   UNK N   1      26.221  18.033   5.039  0.00  0.00    -0.370 N 
HETATM   29  H   UNK N   1      25.519  17.350   5.134  0.00  0.00     0.161 HD
BRANCH  28  30
HETATM   30  C   UNK N   1      26.003  19.147   4.155  0.00  0.00     0.160 C 
BRANCH  30  31
HETATM   31  C   UNK N   1      24.540  19.262   3.856  0.00  0.00    -0.039 A 
HETATM   32  C   UNK N   1      24.063  20.362   3.138  0.00  0.00     0.009 A 
HETATM   33  C   UNK N   1      22.701  20.460   2.830  0.00  0.00     0.002 A 
HETATM   34  C   UNK N   1      21.813  19.461   3.243  0.00  0.00     0.018 A 
HETATM   35  C   UNK N   1      22.286  18.363   3.966  0.00  0.00     0.007 A 
HETATM   36  C   UNK N   1      23.641  18.264   4.267  0.00  0.00     0.027 A 
HETATM   37  I   UNK N   1      20.974  16.849   4.607  0.00  0.00    -0.045 I 
ENDBRANCH  30  31
ENDBRANCH  28  30
ENDBRANCH  12  28
TORSDOF 7
ENDMDL
MODEL 8
REMARK VINA RESULT:      -7.5      5.263      9.100
REMARK  7 active torsions:
REMARK  status: ('A' for Active; 'I' for Inactive)
REMARK       I    between atoms: N_2  and  C_3 
REMARK    1  A    between atoms: C_5  and  C_3 
REMARK    2  A    between atoms: C_6  and  O_33 
REMARK    3  A    between atoms: C_7  and  O_32 
REMARK    4  A    between atoms: C_8  and  N_10 
REMARK    5  A    between atoms: C_21  and  N_22 
REMARK    6  A    between atoms: N_22  and  C_23 
REMARK    7  A    between atoms: C_23  and  C_24 
ROOT
HETATM    1  N   UNK N   1      35.670  14.380  11.649  0.00  0.00    -0.297 N 
HETATM    2  C   UNK N   1      35.581  15.735  11.696  0.00  0.00     0.188 A 
HETATM    3  N   UNK N   1      34.570  16.189  10.902  0.00  0.00    -0.346 N 
ATOM      4  HN  UNK N   1      34.278  17.154  10.751  1.00  0.00     0.167 HD
HETATM    5  C   UNK N   1      34.044  15.071  10.364  0.00  0.00     0.122 A 
HETATM    6  C   UNK N   1      34.691  13.992  10.828  0.00  0.00     0.144 A 
HETATM    7  N   UNK N   1      34.382  12.730  10.443  0.00  0.00    -0.316 N 
ATOM      8  HN  UNK N   1      34.899  11.929  10.804  1.00  0.00     0.170 HD
HETATM    9  C   UNK N   1      33.356  12.565   9.554  0.00  0.00     0.182 A 
HETATM   10  N   UNK N   1      32.679  13.656   9.064  0.00  0.00    -0.317 N 
ATOM     11  HN  UNK N   1      31.915  13.518   8.403  1.00  0.00     0.170 HD
HETATM   12  C   UNK N   1      33.017  14.925   9.453  0.00  0.00     0.134 A 
HETATM   13 Cl   UNK N   1      32.926  10.956   9.015  0.00  0.00    -0.045 Cl
ENDROOT
BRANCH   1  14
HETATM   14  C   UNK N   1      36.674  13.521  12.278  0.00  0.00     0.263 C 
HETATM   15  C   UNK N   1      36.421  13.435  13.794  0.00  0.00     0.199 C 
HETATM   16  C   UNK N   1      36.842  12.037  14.080  0.00  0.00     0.189 C 
HETATM   17  C   UNK N   1      36.323  11.376  12.814  0.00  0.00     0.247 C 
HETATM   18  O   UNK N   1      36.653  12.214  11.734  0.00  0.00    -0.346 OA
BRANCH  15  19
HETATM   19  O   UNK N   1      35.054  13.546  14.083  0.00  0.00    -0.388 OA
HETATM   20  H   UNK N   1      34.198  13.956  14.281  0.00  0.00     0.210 HD
ENDBRANCH  15  19
BRANCH  16  21
HETATM   21  O   UNK N   1      38.240  11.988  14.122  0.00  0.00    -0.390 OA
HETATM   22  H   UNK N   1      39.127  12.381  14.092  0.00  0.00     0.210 HD
ENDBRANCH  16  21
BRANCH  17  23
HETATM   23  C   UNK N   1      36.765   9.951  12.611  0.00  0.00     0.249 C 
HETATM   24  N   UNK N   1      37.997   9.679  12.110  0.00  0.00    -0.363 N 
HETATM   25  C   UNK N   1      38.476   8.332  11.944  0.00  0.00     0.149 C 
HETATM   26  H   UNK N   1      38.581  10.428  11.852  0.00  0.00     0.162 HD
HETATM   27  O   UNK N   1      36.019   9.041  12.942  0.00  0.00    -0.271 OA
ENDBRANCH  17  23
ENDBRANCH   1  14
BRANCH  12  28
HETATM   28  N   UNK N   1      32.350  16.053   8.939  0.00  0.00    -0.370 N 
HETATM   29  H   UNK N   1      32.458  16.923   9.388  0.00  0.00     0.161 HD
BRANCH  28  30
HETATM   30  C   UNK N   1      31.513  15.965   7.772  0.00  0.00     0.160 C 
BRANCH  30  31
HETATM   31  C   UNK N   1      30.371  16.925   7.908  0.00  0.00    -0.039 A 
HETATM   32  C   UNK N   1      29.962  17.342   9.177  0.00  0.00     0.009 A 
HETATM   33  C   UNK N   1      28.915  18.261   9.309  0.00  0.00     0.002 A 
HETATM   34  C   UNK N   1      28.272  18.761   8.171  0.00  0.00     0.018 A 
HETATM   35  C   UNK N   1      28.675  18.343   6.901  0.00  0.00     0.007 A 
HETATM   36  C   UNK N   1      29.720  17.432   6.771  0.00  0.00     0.027 A 
HETATM   37  I   UNK N   1      27.723  19.072   5.173  0.00  0.00    -0.045 I 
ENDBRANCH  30  31
ENDBRANCH  28  30
ENDBRANCH  12  28
TORSDOF 7
ENDMDL
MODEL 9
REMARK VINA RESULT:      -7.5      3.498      5.664
REMARK  7 active torsions:
REMARK  status: ('A' for Active; 'I' for Inactive)
REMARK       I    between atoms: N_2  and  C_3 
REMARK    1  A    between atoms: C_5  and  C_3 
REMARK    2  A    between atoms: C_6  and  O_33 
REMARK    3  A    between atoms: C_7  and  O_32 
REMARK    4  A    between atoms: C_8  and  N_10 
REMARK    5  A    between atoms: C_21  and  N_22 
REMARK    6  A    between atoms: N_22  and  C_23 
REMARK    7  A    between atoms: C_23  and  C_24 
ROOT
HETATM    1  N   UNK N   1      32.933  16.963   7.437  0.00  0.00    -0.297 N 
HETATM    2  C   UNK N   1      33.264  17.950   8.310  0.00  0.00     0.188 A 
HETATM    3  N   UNK N   1      33.746  17.435   9.476  0.00  0.00    -0.346 N 
ATOM      4  HN  UNK N   1      34.070  17.944  10.299  1.00  0.00     0.167 HD
HETATM    5  C   UNK N   1      33.696  16.101   9.295  0.00  0.00     0.122 A 
HETATM    6  C   UNK N   1      33.229  15.823   8.068  0.00  0.00     0.144 A 
HETATM    7  N   UNK N   1      33.059  14.557   7.618  0.00  0.00    -0.316 N 
ATOM      8  HN  UNK N   1      32.691  14.376   6.684  1.00  0.00     0.170 HD
HETATM    9  C   UNK N   1      33.394  13.529   8.455  0.00  0.00     0.182 A 
HETATM   10  N   UNK N   1      33.875  13.789   9.717  0.00  0.00    -0.317 N 
ATOM     11  HN  UNK N   1      34.123  13.013  10.330  1.00  0.00     0.170 HD
HETATM   12  C   UNK N   1      34.025  15.076  10.160  0.00  0.00     0.134 A 
HETATM   13 Cl   UNK N   1      33.182  11.875   7.926  0.00  0.00    -0.045 Cl
ENDROOT
BRANCH   1  14
HETATM   14  C   UNK N   1      32.300  17.095   6.125  0.00  0.00     0.263 C 
HETATM   15  C   UNK N   1      33.373  17.187   5.026  0.00  0.00     0.199 C 
HETATM   16  C   UNK N   1      32.702  16.476   3.904  0.00  0.00     0.189 C 
HETATM   17  C   UNK N   1      32.002  15.391   4.705  0.00  0.00     0.247 C 
HETATM   18  O   UNK N   1      31.450  15.997   5.847  0.00  0.00    -0.346 OA
BRANCH  15  19
HETATM   19  O   UNK N   1      34.518  16.461   5.379  0.00  0.00    -0.388 OA
HETATM   20  H   UNK N   1      35.440  16.278   5.619  0.00  0.00     0.210 HD
ENDBRANCH  15  19
BRANCH  16  21
HETATM   21  O   UNK N   1      31.766  17.338   3.322  0.00  0.00    -0.390 OA
HETATM   22  H   UNK N   1      31.426  17.903   2.609  0.00  0.00     0.210 HD
ENDBRANCH  16  21
BRANCH  17  23
HETATM   23  C   UNK N   1      31.004  14.572   3.930  0.00  0.00     0.249 C 
HETATM   24  N   UNK N   1      29.795  14.273   4.470  0.00  0.00    -0.363 N 
HETATM   25  C   UNK N   1      28.795  13.533   3.746  0.00  0.00     0.149 C 
HETATM   26  H   UNK N   1      29.596  14.573   5.385  0.00  0.00     0.162 HD
HETATM   27  O   UNK N   1      31.278  14.214   2.794  0.00  0.00    -0.271 OA
ENDBRANCH  17  23
ENDBRANCH   1  14
BRANCH  12  28
HETATM   28  N   UNK N   1      34.489  15.357  11.459  0.00  0.00    -0.370 N 
HETATM   29  H   UNK N   1      33.861  15.715  12.127  0.00  0.00     0.161 HD
BRANCH  28  30
HETATM   30  C   UNK N   1      35.861  15.134  11.831  0.00  0.00     0.160 C 
BRANCH  30  31
HETATM   31  C   UNK N   1      35.907  14.349  13.106  0.00  0.00    -0.039 A 
HETATM   32  C   UNK N   1      36.672  14.814  14.179  0.00  0.00     0.009 A 
HETATM   33  C   UNK N   1      36.695  14.100  15.383  0.00  0.00     0.002 A 
HETATM   34  C   UNK N   1      35.956  12.918  15.513  0.00  0.00     0.018 A 
HETATM   35  C   UNK N   1      35.195  12.449  14.441  0.00  0.00     0.007 A 
HETATM   36  C   UNK N   1      35.169  13.162  13.246  0.00  0.00     0.027 A 
HETATM   37  I   UNK N   1      34.080  10.673  14.605  0.00  0.00    -0.045 I 
ENDBRANCH  30  31
ENDBRANCH  28  30
ENDBRANCH  12  28
TORSDOF 7
ENDMDL
