MODEL 1
REMARK VINA RESULT:      -8.0      0.000      0.000
REMARK  4 active torsions:
REMARK  status: ('A' for Active; 'I' for Inactive)
REMARK    1  A    between atoms: C_4  and  O_31 
REMARK    2  A    between atoms: C_7  and  N_8 
REMARK    3  A    between atoms: C_17  and  N_18 
REMARK    4  A    between atoms: C_21  and  N_24 
ROOT
HETATM    1  N   UNK N   1      28.752  17.431   4.845  0.00  0.00    -0.332 N 
HETATM    2  C   UNK N   1      27.972  16.340   4.302  0.00  0.00     0.136 A 
HETATM    3  C   UNK N   1      26.524  16.839   4.269  0.00  0.00     0.065 A 
HETATM    4  C   UNK N   1      26.629  18.231   4.797  0.00  0.00     0.017 A 
HETATM    5  C   UNK N   1      27.909  18.532   5.096  0.00  0.00     0.117 A 
HETATM    6  N   UNK N   1      28.255  19.754   5.582  0.00  0.00    -0.346 N 
ATOM      7  HN  UNK N   1      29.228  19.959   5.815  1.00  0.00     0.167 HD
HETATM    8  C   UNK N   1      27.285  20.712   5.758  0.00  0.00     0.009 A 
HETATM    9  C   UNK N   1      25.928  20.428   5.456  0.00  0.00     0.057 A 
HETATM   10  C   UNK N   1      25.591  19.151   4.979  0.00  0.00     0.067 A 
HETATM   11  C   UNK N   1      27.655  22.050   6.290  0.00  0.00     0.068 C 
ENDROOT
BRANCH  10  12
HETATM   12  N   UNK N   1      24.239  18.734   4.713  0.00  0.00    -0.265 N 
HETATM   13  C   UNK N   1      23.464  18.904   3.619  0.00  0.00     0.120 A 
HETATM   14  C   UNK N   1      22.224  18.298   3.875  0.00  0.00     0.069 A 
HETATM   15  C   UNK N   1      22.347  17.815   5.170  0.00  0.00     0.127 A 
HETATM   16  N   UNK N   1      23.556  18.091   5.634  0.00  0.00    -0.279 N 
ATOM     17  HN  UNK N   1      23.903  17.843   6.560  1.00  0.00     0.189 HD
BRANCH  15  18
HETATM   18  N   UNK N   1      21.391  17.118   5.960  0.00  0.00    -0.283 N 
HETATM   19  C   UNK N   1      20.985  15.752   5.761  0.00  0.00     0.155 A 
HETATM   20  C   UNK N   1      19.964  15.526   6.920  0.00  0.00     0.144 A 
HETATM   21  N   UNK N   1      19.915  16.801   7.600  0.00  0.00    -0.341 N 
HETATM   22  C   UNK N   1      20.745  17.648   7.007  0.00  0.00     0.324 A 
HETATM   23  H   UNK N   1      19.353  17.008   8.381  0.00  0.00     0.164 HD
HETATM   24  O   UNK N   1      20.887  18.804   7.386  0.00  0.00    -0.247 OA
ENDBRANCH  15  18
ENDBRANCH  10  12
BRANCH   1  25
HETATM   25  C   UNK N   1      30.150  17.307   5.146  0.00  0.00     0.042 A 
HETATM   26  C   UNK N   1      31.099  17.395   4.114  0.00  0.00     0.033 A 
HETATM   27  C   UNK N   1      32.468  17.314   4.389  0.00  0.00     0.039 A 
HETATM   28  C   UNK N   1      32.918  17.145   5.700  0.00  0.00     0.068 A 
HETATM   29  C   UNK N   1      31.988  17.046   6.735  0.00  0.00     0.045 A 
HETATM   30  C   UNK N   1      30.623  17.122   6.485  0.00  0.00    -0.032 A 
HETATM   31  C   UNK N   1      29.736  17.008   7.680  0.00  0.00     0.050 C 
BRANCH  28  32
HETATM   32  O   UNK N   1      34.248  17.084   5.947  0.00  0.00    -0.356 OA
HETATM   33  C   UNK N   1      34.864  15.960   6.455  0.00  0.00     0.210 C 
ENDBRANCH  28  32
ENDBRANCH   1  25
TORSDOF 4
ENDMDL
MODEL 2
REMARK VINA RESULT:      -7.8      2.695      9.198
REMARK  4 active torsions:
REMARK  status: ('A' for Active; 'I' for Inactive)
REMARK    1  A    between atoms: C_4  and  O_31 
REMARK    2  A    between atoms: C_7  and  N_8 
REMARK    3  A    between atoms: C_17  and  N_18 
REMARK    4  A    between atoms: C_21  and  N_24 
ROOT
HETATM    1  N   UNK N   1      26.532  18.596   4.338  0.00  0.00    -0.332 N 
HETATM    2  C   UNK N   1      27.336  19.565   5.050  0.00  0.00     0.136 A 
HETATM    3  C   UNK N   1      28.764  19.011   5.041  0.00  0.00     0.065 A 
HETATM    4  C   UNK N   1      28.631  17.738   4.273  0.00  0.00     0.017 A 
HETATM    5  C   UNK N   1      27.356  17.550   3.880  0.00  0.00     0.117 A 
HETATM    6  N   UNK N   1      26.992  16.460   3.150  0.00  0.00    -0.346 N 
ATOM      7  HN  UNK N   1      26.018  16.327   2.873  1.00  0.00     0.167 HD
HETATM    8  C   UNK N   1      27.946  15.538   2.790  0.00  0.00     0.009 A 
HETATM    9  C   UNK N   1      29.297  15.704   3.189  0.00  0.00     0.057 A 
HETATM   10  C   UNK N   1      29.644  16.824   3.963  0.00  0.00     0.067 A 
HETATM   11  C   UNK N   1      27.556  14.344   1.993  0.00  0.00     0.068 C 
ENDROOT
BRANCH  10  12
HETATM   12  N   UNK N   1      30.967  17.050   4.483  0.00  0.00    -0.265 N 
HETATM   13  C   UNK N   1      32.073  17.552   3.889  0.00  0.00     0.120 A 
HETATM   14  C   UNK N   1      33.102  17.566   4.844  0.00  0.00     0.069 A 
HETATM   15  C   UNK N   1      32.514  17.023   5.979  0.00  0.00     0.127 A 
HETATM   16  N   UNK N   1      31.248  16.731   5.727  0.00  0.00    -0.279 N 
ATOM     17  HN  UNK N   1      30.594  16.322   6.393  1.00  0.00     0.189 HD
BRANCH  15  18
HETATM   18  N   UNK N   1      33.092  16.782   7.256  0.00  0.00    -0.283 N 
HETATM   19  C   UNK N   1      34.256  15.972   7.502  0.00  0.00     0.155 A 
HETATM   20  C   UNK N   1      34.440  16.098   9.047  0.00  0.00     0.144 A 
HETATM   21  N   UNK N   1      33.342  16.941   9.465  0.00  0.00    -0.341 N 
HETATM   22  C   UNK N   1      32.627  17.290   8.405  0.00  0.00     0.324 A 
HETATM   23  H   UNK N   1      33.154  17.213  10.392  0.00  0.00     0.164 HD
HETATM   24  O   UNK N   1      31.632  18.000   8.487  0.00  0.00    -0.247 OA
ENDBRANCH  15  18
ENDBRANCH  10  12
BRANCH   1  25
HETATM   25  C   UNK N   1      25.104  18.702   4.237  0.00  0.00     0.042 A 
HETATM   26  C   UNK N   1      24.284  17.875   5.023  0.00  0.00     0.033 A 
HETATM   27  C   UNK N   1      22.891  17.986   4.969  0.00  0.00     0.039 A 
HETATM   28  C   UNK N   1      22.287  18.925   4.129  0.00  0.00     0.068 A 
HETATM   29  C   UNK N   1      23.088  19.747   3.335  0.00  0.00     0.045 A 
HETATM   30  C   UNK N   1      24.474  19.653   3.372  0.00  0.00    -0.032 A 
HETATM   31  C   UNK N   1      25.213  20.592   2.478  0.00  0.00     0.050 C 
BRANCH  28  32
HETATM   32  O   UNK N   1      20.938  19.027   4.102  0.00  0.00    -0.356 OA
HETATM   33  C   UNK N   1      20.269  19.894   3.264  0.00  0.00     0.210 C 
ENDBRANCH  28  32
ENDBRANCH   1  25
TORSDOF 4
ENDMDL
MODEL 3
REMARK VINA RESULT:      -7.8      1.594      2.102
REMARK  4 active torsions:
REMARK  status: ('A' for Active; 'I' for Inactive)
REMARK    1  A    between atoms: C_4  and  O_31 
REMARK    2  A    between atoms: C_7  and  N_8 
REMARK    3  A    between atoms: C_17  and  N_18 
REMARK    4  A    between atoms: C_21  and  N_24 
ROOT
HETATM    1  N   UNK N   1      29.303  16.790   5.590  0.00  0.00    -0.332 N 
HETATM    2  C   UNK N   1      28.850  15.429   5.405  0.00  0.00     0.136 A 
HETATM    3  C   UNK N   1      27.341  15.521   5.160  0.00  0.00     0.065 A 
HETATM    4  C   UNK N   1      27.075  16.988   5.209  0.00  0.00     0.017 A 
HETATM    5  C   UNK N   1      28.215  17.671   5.438  0.00  0.00     0.117 A 
HETATM    6  N   UNK N   1      28.225  19.030   5.512  0.00  0.00    -0.346 N 
ATOM      7  HN  UNK N   1      29.095  19.529   5.700  1.00  0.00     0.167 HD
HETATM    8  C   UNK N   1      27.053  19.726   5.331  0.00  0.00     0.009 A 
HETATM    9  C   UNK N   1      25.835  19.038   5.091  0.00  0.00     0.057 A 
HETATM   10  C   UNK N   1      25.846  17.634   5.045  0.00  0.00     0.067 A 
HETATM   11  C   UNK N   1      27.055  21.211   5.411  0.00  0.00     0.068 C 
ENDROOT
BRANCH  10  12
HETATM   12  N   UNK N   1      24.658  16.837   4.881  0.00  0.00    -0.265 N 
HETATM   13  C   UNK N   1      24.025  16.419   3.762  0.00  0.00     0.120 A 
HETATM   14  C   UNK N   1      22.912  15.661   4.159  0.00  0.00     0.069 A 
HETATM   15  C   UNK N   1      22.950  15.709   5.546  0.00  0.00     0.127 A 
HETATM   16  N   UNK N   1      24.000  16.413   5.937  0.00  0.00    -0.279 N 
ATOM     17  HN  UNK N   1      24.258  16.599   6.906  1.00  0.00     0.189 HD
BRANCH  15  18
HETATM   18  N   UNK N   1      22.056  15.125   6.485  0.00  0.00    -0.283 N 
HETATM   19  C   UNK N   1      21.834  13.713   6.656  0.00  0.00     0.155 A 
HETATM   20  C   UNK N   1      20.802  13.667   7.825  0.00  0.00     0.144 A 
HETATM   21  N   UNK N   1      20.564  15.059   8.140  0.00  0.00    -0.341 N 
HETATM   22  C   UNK N   1      21.305  15.821   7.349  0.00  0.00     0.324 A 
HETATM   23  H   UNK N   1      19.948  15.388   8.833  0.00  0.00     0.164 HD
HETATM   24  O   UNK N   1      21.284  17.045   7.406  0.00  0.00    -0.247 OA
ENDBRANCH  15  18
ENDBRANCH  10  12
BRANCH   1  25
HETATM   25  C   UNK N   1      30.651  17.112   5.965  0.00  0.00     0.042 A 
HETATM   26  C   UNK N   1      30.968  17.334   7.316  0.00  0.00     0.033 A 
HETATM   27  C   UNK N   1      32.281  17.612   7.709  0.00  0.00     0.039 A 
HETATM   28  C   UNK N   1      33.305  17.673   6.762  0.00  0.00     0.068 A 
HETATM   29  C   UNK N   1      33.005  17.465   5.415  0.00  0.00     0.045 A 
HETATM   30  C   UNK N   1      31.707  17.189   5.002  0.00  0.00    -0.032 A 
HETATM   31  C   UNK N   1      31.522  16.982   3.535  0.00  0.00     0.050 C 
BRANCH  28  32
HETATM   32  O   UNK N   1      34.572  17.929   7.164  0.00  0.00    -0.356 OA
HETATM   33  C   UNK N   1      34.889  18.294   8.455  0.00  0.00     0.210 C 
ENDBRANCH  28  32
ENDBRANCH   1  25
TORSDOF 4
ENDMDL
MODEL 4
REMARK VINA RESULT:      -7.8      3.655      9.819
REMARK  4 active torsions:
REMARK  status: ('A' for Active; 'I' for Inactive)
REMARK    1  A    between atoms: C_4  and  O_31 
REMARK    2  A    between atoms: C_7  and  N_8 
REMARK    3  A    between atoms: C_17  and  N_18 
REMARK    4  A    between atoms: C_21  and  N_24 
ROOT
HETATM    1  N   UNK N   1      29.115  17.764   4.874  0.00  0.00    -0.332 N 
HETATM    2  C   UNK N   1      30.170  17.313   3.993  0.00  0.00     0.136 A 
HETATM    3  C   UNK N   1      31.309  16.851   4.907  0.00  0.00     0.065 A 
HETATM    4  C   UNK N   1      30.759  17.074   6.277  0.00  0.00     0.017 A 
HETATM    5  C   UNK N   1      29.510  17.576   6.213  0.00  0.00     0.117 A 
HETATM    6  N   UNK N   1      28.796  17.849   7.339  0.00  0.00    -0.346 N 
ATOM      7  HN  UNK N   1      27.857  18.242   7.271  1.00  0.00     0.167 HD
HETATM    8  C   UNK N   1      29.351  17.592   8.570  0.00  0.00     0.009 A 
HETATM    9  C   UNK N   1      30.665  17.066   8.673  0.00  0.00     0.057 A 
HETATM   10  C   UNK N   1      31.391  16.817   7.498  0.00  0.00     0.067 A 
HETATM   11  C   UNK N   1      28.579  17.889   9.806  0.00  0.00     0.068 C 
ENDROOT
BRANCH  10  12
HETATM   12  N   UNK N   1      32.755  16.354   7.490  0.00  0.00    -0.265 N 
HETATM   13  C   UNK N   1      33.611  16.155   6.463  0.00  0.00     0.120 A 
HETATM   14  C   UNK N   1      34.826  15.700   7.001  0.00  0.00     0.069 A 
HETATM   15  C   UNK N   1      34.583  15.634   8.367  0.00  0.00     0.127 A 
HETATM   16  N   UNK N   1      33.346  16.031   8.618  0.00  0.00    -0.279 N 
ATOM     17  HN  UNK N   1      32.918  16.078   9.542  1.00  0.00     0.189 HD
BRANCH  15  18
HETATM   18  N   UNK N   1      35.458  15.224   9.411  0.00  0.00    -0.283 N 
HETATM   19  C   UNK N   1      36.008  13.902   9.564  0.00  0.00     0.155 A 
HETATM   20  C   UNK N   1      36.902  14.049  10.835  0.00  0.00     0.144 A 
HETATM   21  N   UNK N   1      36.717  15.425  11.239  0.00  0.00    -0.341 N 
HETATM   22  C   UNK N   1      35.895  16.026  10.391  0.00  0.00     0.324 A 
HETATM   23  H   UNK N   1      37.136  15.849  12.022  0.00  0.00     0.164 HD
HETATM   24  O   UNK N   1      35.566  17.200  10.513  0.00  0.00    -0.247 OA
ENDBRANCH  15  18
ENDBRANCH  10  12
BRANCH   1  25
HETATM   25  C   UNK N   1      27.916  18.388   4.389  0.00  0.00     0.042 A 
HETATM   26  C   UNK N   1      27.840  19.789   4.307  0.00  0.00     0.033 A 
HETATM   27  C   UNK N   1      26.697  20.417   3.803  0.00  0.00     0.039 A 
HETATM   28  C   UNK N   1      25.607  19.660   3.368  0.00  0.00     0.068 A 
HETATM   29  C   UNK N   1      25.664  18.269   3.451  0.00  0.00     0.045 A 
HETATM   30  C   UNK N   1      26.788  17.623   3.950  0.00  0.00    -0.032 A 
HETATM   31  C   UNK N   1      26.723  16.132   3.980  0.00  0.00     0.050 C 
BRANCH  28  32
HETATM   32  O   UNK N   1      24.515  20.287   2.869  0.00  0.00    -0.356 OA
HETATM   33  C   UNK N   1      23.227  19.922   3.197  0.00  0.00     0.210 C 
ENDBRANCH  28  32
ENDBRANCH   1  25
TORSDOF 4
ENDMDL
MODEL 5
REMARK VINA RESULT:      -7.7      3.740      9.727
REMARK  4 active torsions:
REMARK  status: ('A' for Active; 'I' for Inactive)
REMARK    1  A    between atoms: C_4  and  O_31 
REMARK    2  A    between atoms: C_7  and  N_8 
REMARK    3  A    between atoms: C_17  and  N_18 
REMARK    4  A    between atoms: C_21  and  N_24 
ROOT
HETATM    1  N   UNK N   1      28.901  17.940   6.765  0.00  0.00    -0.332 N 
HETATM    2  C   UNK N   1      29.010  18.005   8.206  0.00  0.00     0.136 A 
HETATM    3  C   UNK N   1      30.471  17.675   8.528  0.00  0.00     0.065 A 
HETATM    4  C   UNK N   1      31.080  17.467   7.182  0.00  0.00     0.017 A 
HETATM    5  C   UNK N   1      30.162  17.643   6.211  0.00  0.00     0.117 A 
HETATM    6  N   UNK N   1      30.487  17.519   4.895  0.00  0.00    -0.346 N 
ATOM      7  HN  UNK N   1      29.774  17.642   4.175  1.00  0.00     0.167 HD
HETATM    8  C   UNK N   1      31.783  17.226   4.544  0.00  0.00     0.009 A 
HETATM    9  C   UNK N   1      32.775  17.032   5.541  0.00  0.00     0.057 A 
HETATM   10  C   UNK N   1      32.409  17.140   6.892  0.00  0.00     0.067 A 
HETATM   11  C   UNK N   1      32.147  17.088   3.109  0.00  0.00     0.068 C 
ENDROOT
BRANCH  10  12
HETATM   12  N   UNK N   1      33.316  16.891   7.982  0.00  0.00    -0.265 N 
HETATM   13  C   UNK N   1      34.244  17.689   8.556  0.00  0.00     0.120 A 
HETATM   14  C   UNK N   1      34.857  16.960   9.588  0.00  0.00     0.069 A 
HETATM   15  C   UNK N   1      34.240  15.717   9.532  0.00  0.00     0.127 A 
HETATM   16  N   UNK N   1      33.332  15.715   8.569  0.00  0.00    -0.279 N 
ATOM     17  HN  UNK N   1      32.737  14.924   8.321  1.00  0.00     0.189 HD
BRANCH  15  18
HETATM   18  N   UNK N   1      34.471  14.568  10.337  0.00  0.00    -0.283 N 
HETATM   19  C   UNK N   1      34.913  14.586  11.706  0.00  0.00     0.155 A 
HETATM   20  C   UNK N   1      34.956  13.070  12.073  0.00  0.00     0.144 A 
HETATM   21  N   UNK N   1      34.555  12.401  10.855  0.00  0.00    -0.341 N 
HETATM   22  C   UNK N   1      34.295  13.306   9.922  0.00  0.00     0.324 A 
HETATM   23  H   UNK N   1      34.487  11.426  10.737  0.00  0.00     0.164 HD
HETATM   24  O   UNK N   1      33.941  13.000   8.790  0.00  0.00    -0.247 OA
ENDBRANCH  15  18
ENDBRANCH  10  12
BRANCH   1  25
HETATM   25  C   UNK N   1      27.647  18.073   6.078  0.00  0.00     0.042 A 
HETATM   26  C   UNK N   1      26.931  16.924   5.700  0.00  0.00     0.033 A 
HETATM   27  C   UNK N   1      25.690  17.029   5.063  0.00  0.00     0.039 A 
HETATM   28  C   UNK N   1      25.137  18.282   4.793  0.00  0.00     0.068 A 
HETATM   29  C   UNK N   1      25.840  19.432   5.154  0.00  0.00     0.045 A 
HETATM   30  C   UNK N   1      27.075  19.352   5.786  0.00  0.00    -0.032 A 
HETATM   31  C   UNK N   1      27.719  20.656   6.124  0.00  0.00     0.050 C 
BRANCH  28  32
HETATM   32  O   UNK N   1      23.928  18.363   4.190  0.00  0.00    -0.356 OA
HETATM   33  C   UNK N   1      23.479  19.505   3.563  0.00  0.00     0.210 C 
ENDBRANCH  28  32
ENDBRANCH   1  25
TORSDOF 4
ENDMDL
MODEL 6
REMARK VINA RESULT:      -7.7      1.967      2.467
REMARK  4 active torsions:
REMARK  status: ('A' for Active; 'I' for Inactive)
REMARK    1  A    between atoms: C_4  and  O_31 
REMARK    2  A    between atoms: C_7  and  N_8 
REMARK    3  A    between atoms: C_17  and  N_18 
REMARK    4  A    between atoms: C_21  and  N_24 
ROOT
HETATM    1  N   UNK N   1      28.799  16.916   5.425  0.00  0.00    -0.332 N 
HETATM    2  C   UNK N   1      28.254  15.606   5.145  0.00  0.00     0.136 A 
HETATM    3  C   UNK N   1      26.749  15.814   4.950  0.00  0.00     0.065 A 
HETATM    4  C   UNK N   1      26.582  17.286   5.124  0.00  0.00     0.017 A 
HETATM    5  C   UNK N   1      27.769  17.874   5.375  0.00  0.00     0.117 A 
HETATM    6  N   UNK N   1      27.870  19.219   5.557  0.00  0.00    -0.346 N 
ATOM      7  HN  UNK N   1      28.776  19.644   5.759  1.00  0.00     0.167 HD
HETATM    8  C   UNK N   1      26.743  20.001   5.466  0.00  0.00     0.009 A 
HETATM    9  C   UNK N   1      25.478  19.414   5.205  0.00  0.00     0.057 A 
HETATM   10  C   UNK N   1      25.394  18.021   5.046  0.00  0.00     0.067 A 
HETATM   11  C   UNK N   1      26.846  21.471   5.664  0.00  0.00     0.068 C 
ENDROOT
BRANCH  10  12
HETATM   12  N   UNK N   1      24.153  17.317   4.853  0.00  0.00    -0.265 N 
HETATM   13  C   UNK N   1      23.558  16.361   5.601  0.00  0.00     0.120 A 
HETATM   14  C   UNK N   1      22.353  16.013   4.968  0.00  0.00     0.069 A 
HETATM   15  C   UNK N   1      22.333  16.803   3.827  0.00  0.00     0.127 A 
HETATM   16  N   UNK N   1      23.416  17.563   3.794  0.00  0.00    -0.279 N 
ATOM     17  HN  UNK N   1      23.643  18.235   3.061  1.00  0.00     0.189 HD
BRANCH  15  18
HETATM   18  N   UNK N   1      21.353  16.863   2.798  0.00  0.00    -0.283 N 
HETATM   19  C   UNK N   1      21.110  15.835   1.819  0.00  0.00     0.155 A 
HETATM   20  C   UNK N   1      19.924  16.423   0.993  0.00  0.00     0.144 A 
HETATM   21  N   UNK N   1      19.674  17.711   1.602  0.00  0.00    -0.341 N 
HETATM   22  C   UNK N   1      20.512  17.889   2.613  0.00  0.00     0.324 A 
HETATM   23  H   UNK N   1      18.988  18.354   1.311  0.00  0.00     0.164 HD
HETATM   24  O   UNK N   1      20.515  18.908   3.294  0.00  0.00    -0.247 OA
ENDBRANCH  15  18
ENDBRANCH  10  12
BRANCH   1  25
HETATM   25  C   UNK N   1      30.174  17.119   5.786  0.00  0.00     0.042 A 
HETATM   26  C   UNK N   1      31.161  17.163   4.787  0.00  0.00     0.033 A 
HETATM   27  C   UNK N   1      32.501  17.397   5.112  0.00  0.00     0.039 A 
HETATM   28  C   UNK N   1      32.883  17.595   6.441  0.00  0.00     0.068 A 
HETATM   29  C   UNK N   1      31.916  17.544   7.445  0.00  0.00     0.045 A 
HETATM   30  C   UNK N   1      30.580  17.311   7.146  0.00  0.00    -0.032 A 
HETATM   31  C   UNK N   1      29.647  17.288   8.311  0.00  0.00     0.050 C 
BRANCH  28  32
HETATM   32  O   UNK N   1      34.183  17.835   6.734  0.00  0.00    -0.356 OA
HETATM   33  C   UNK N   1      34.633  18.056   8.018  0.00  0.00     0.210 C 
ENDBRANCH  28  32
ENDBRANCH   1  25
TORSDOF 4
ENDMDL
MODEL 7
REMARK VINA RESULT:      -7.7      3.668      9.837
REMARK  4 active torsions:
REMARK  status: ('A' for Active; 'I' for Inactive)
REMARK    1  A    between atoms: C_4  and  O_31 
REMARK    2  A    between atoms: C_7  and  N_8 
REMARK    3  A    between atoms: C_17  and  N_18 
REMARK    4  A    between atoms: C_21  and  N_24 
ROOT
HETATM    1  N   UNK N   1      28.526  18.275   6.074  0.00  0.00    -0.332 N 
HETATM    2  C   UNK N   1      28.281  18.095   7.488  0.00  0.00     0.136 A 
HETATM    3  C   UNK N   1      29.510  17.359   8.033  0.00  0.00     0.065 A 
HETATM    4  C   UNK N   1      30.378  17.206   6.829  0.00  0.00     0.017 A 
HETATM    5  C   UNK N   1      29.792  17.753   5.746  0.00  0.00     0.117 A 
HETATM    6  N   UNK N   1      30.402  17.748   4.530  0.00  0.00    -0.346 N 
ATOM      7  HN  UNK N   1      29.937  18.155   3.718  1.00  0.00     0.167 HD
HETATM    8  C   UNK N   1      31.652  17.190   4.403  0.00  0.00     0.009 A 
HETATM    9  C   UNK N   1      32.297  16.603   5.523  0.00  0.00     0.057 A 
HETATM   10  C   UNK N   1      31.636  16.598   6.762  0.00  0.00     0.067 A 
HETATM   11  C   UNK N   1      32.326  17.180   3.078  0.00  0.00     0.068 C 
ENDROOT
BRANCH  10  12
HETATM   12  N   UNK N   1      32.166  15.966   7.942  0.00  0.00    -0.265 N 
HETATM   13  C   UNK N   1      31.537  15.387   8.989  0.00  0.00     0.120 A 
HETATM   14  C   UNK N   1      32.522  14.917   9.873  0.00  0.00     0.069 A 
HETATM   15  C   UNK N   1      33.717  15.292   9.273  0.00  0.00     0.127 A 
HETATM   16  N   UNK N   1      33.466  15.910   8.130  0.00  0.00    -0.279 N 
ATOM     17  HN  UNK N   1      34.170  16.284   7.495  1.00  0.00     0.189 HD
BRANCH  15  18
HETATM   18  N   UNK N   1      35.048  15.088   9.730  0.00  0.00    -0.283 N 
HETATM   19  C   UNK N   1      35.795  13.864   9.599  0.00  0.00     0.155 A 
HETATM   20  C   UNK N   1      37.172  14.234  10.233  0.00  0.00     0.144 A 
HETATM   21  N   UNK N   1      37.009  15.607  10.656  0.00  0.00    -0.341 N 
HETATM   22  C   UNK N   1      35.791  16.023  10.338  0.00  0.00     0.324 A 
HETATM   23  H   UNK N   1      37.694  16.149  11.110  0.00  0.00     0.164 HD
HETATM   24  O   UNK N   1      35.393  17.153  10.595  0.00  0.00    -0.247 OA
ENDBRANCH  15  18
ENDBRANCH  10  12
BRANCH   1  25
HETATM   25  C   UNK N   1      27.542  18.824   5.184  0.00  0.00     0.042 A 
HETATM   26  C   UNK N   1      26.873  17.985   4.277  0.00  0.00     0.033 A 
HETATM   27  C   UNK N   1      25.885  18.491   3.426  0.00  0.00     0.039 A 
HETATM   28  C   UNK N   1      25.542  19.844   3.464  0.00  0.00     0.068 A 
HETATM   29  C   UNK N   1      26.204  20.692   4.353  0.00  0.00     0.045 A 
HETATM   30  C   UNK N   1      27.191  20.212   5.206  0.00  0.00    -0.032 A 
HETATM   31  C   UNK N   1      27.816  21.222   6.110  0.00  0.00     0.050 C 
BRANCH  28  32
HETATM   32  O   UNK N   1      24.572  20.311   2.644  0.00  0.00    -0.356 OA
HETATM   33  C   UNK N   1      23.236  20.305   2.983  0.00  0.00     0.210 C 
ENDBRANCH  28  32
ENDBRANCH   1  25
TORSDOF 4
ENDMDL
MODEL 8
REMARK VINA RESULT:      -7.5      2.804      4.747
REMARK  4 active torsions:
REMARK  status: ('A' for Active; 'I' for Inactive)
REMARK    1  A    between atoms: C_4  and  O_31 
REMARK    2  A    between atoms: C_7  and  N_8 
REMARK    3  A    between atoms: C_17  and  N_18 
REMARK    4  A    between atoms: C_21  and  N_24 
ROOT
HETATM    1  N   UNK N   1      30.964  16.974   7.972  0.00  0.00    -0.332 N 
HETATM    2  C   UNK N   1      30.076  17.754   8.807  0.00  0.00     0.136 A 
HETATM    3  C   UNK N   1      29.040  18.364   7.857  0.00  0.00     0.065 A 
HETATM    4  C   UNK N   1      29.444  17.832   6.523  0.00  0.00     0.017 A 
HETATM    5  C   UNK N   1      30.526  17.037   6.635  0.00  0.00     0.117 A 
HETATM    6  N   UNK N   1      31.072  16.424   5.549  0.00  0.00    -0.346 N 
ATOM      7  HN  UNK N   1      31.900  15.836   5.651  1.00  0.00     0.167 HD
HETATM    8  C   UNK N   1      30.498  16.602   4.312  0.00  0.00     0.009 A 
HETATM    9  C   UNK N   1      29.359  17.435   4.159  0.00  0.00     0.057 A 
HETATM   10  C   UNK N   1      28.830  18.077   5.290  0.00  0.00     0.067 A 
HETATM   11  C   UNK N   1      31.088  15.936   3.121  0.00  0.00     0.068 C 
ENDROOT
BRANCH  10  12
HETATM   12  N   UNK N   1      27.726  18.999   5.235  0.00  0.00    -0.265 N 
HETATM   13  C   UNK N   1      27.611  20.265   5.696  0.00  0.00     0.120 A 
HETATM   14  C   UNK N   1      26.322  20.721   5.379  0.00  0.00     0.069 A 
HETATM   15  C   UNK N   1      25.728  19.635   4.748  0.00  0.00     0.127 A 
HETATM   16  N   UNK N   1      26.592  18.635   4.680  0.00  0.00    -0.279 N 
ATOM     17  HN  UNK N   1      26.406  17.723   4.263  1.00  0.00     0.189 HD
BRANCH  15  18
HETATM   18  N   UNK N   1      24.413  19.518   4.220  0.00  0.00    -0.283 N 
HETATM   19  C   UNK N   1      23.380  18.662   4.742  0.00  0.00     0.155 A 
HETATM   20  C   UNK N   1      22.171  18.972   3.805  0.00  0.00     0.144 A 
HETATM   21  N   UNK N   1      22.692  19.942   2.867  0.00  0.00    -0.341 N 
HETATM   22  C   UNK N   1      23.958  20.204   3.163  0.00  0.00     0.324 A 
HETATM   23  H   UNK N   1      22.186  20.345   2.125  0.00  0.00     0.164 HD
HETATM   24  O   UNK N   1      24.636  20.991   2.514  0.00  0.00    -0.247 OA
ENDBRANCH  15  18
ENDBRANCH  10  12
BRANCH   1  25
HETATM   25  C   UNK N   1      32.146  16.340   8.483  0.00  0.00     0.042 A 
HETATM   26  C   UNK N   1      32.082  15.018   8.956  0.00  0.00     0.033 A 
HETATM   27  C   UNK N   1      33.228  14.367   9.424  0.00  0.00     0.039 A 
HETATM   28  C   UNK N   1      34.462  15.021   9.427  0.00  0.00     0.068 A 
HETATM   29  C   UNK N   1      34.540  16.337   8.969  0.00  0.00     0.045 A 
HETATM   30  C   UNK N   1      33.414  17.004   8.502  0.00  0.00    -0.032 A 
HETATM   31  C   UNK N   1      33.635  18.405   8.036  0.00  0.00     0.050 C 
BRANCH  28  32
HETATM   32  O   UNK N   1      35.563  14.369   9.869  0.00  0.00    -0.356 OA
HETATM   33  C   UNK N   1      36.495  14.951  10.701  0.00  0.00     0.210 C 
ENDBRANCH  28  32
ENDBRANCH   1  25
TORSDOF 4
ENDMDL
MODEL 9
REMARK VINA RESULT:      -7.3      3.437      8.620
REMARK  4 active torsions:
REMARK  status: ('A' for Active; 'I' for Inactive)
REMARK    1  A    between atoms: C_4  and  O_31 
REMARK    2  A    between atoms: C_7  and  N_8 
REMARK    3  A    between atoms: C_17  and  N_18 
REMARK    4  A    between atoms: C_21  and  N_24 
ROOT
HETATM    1  N   UNK N   1      25.725  15.846   4.641  0.00  0.00    -0.332 N 
HETATM    2  C   UNK N   1      26.145  14.983   5.723  0.00  0.00     0.136 A 
HETATM    3  C   UNK N   1      27.122  15.812   6.563  0.00  0.00     0.065 A 
HETATM    4  C   UNK N   1      27.145  17.128   5.859  0.00  0.00     0.017 A 
HETATM    5  C   UNK N   1      26.329  17.109   4.786  0.00  0.00     0.117 A 
HETATM    6  N   UNK N   1      26.175  18.205   3.993  0.00  0.00    -0.346 N 
ATOM      7  HN  UNK N   1      25.563  18.167   3.177  1.00  0.00     0.167 HD
HETATM    8  C   UNK N   1      26.851  19.362   4.299  0.00  0.00     0.009 A 
HETATM    9  C   UNK N   1      27.720  19.415   5.419  0.00  0.00     0.057 A 
HETATM   10  C   UNK N   1      27.883  18.265   6.208  0.00  0.00     0.067 A 
HETATM   11  C   UNK N   1      26.688  20.563   3.437  0.00  0.00     0.068 C 
ENDROOT
BRANCH  10  12
HETATM   12  N   UNK N   1      28.793  18.187   7.320  0.00  0.00    -0.265 N 
HETATM   13  C   UNK N   1      28.611  18.469   8.630  0.00  0.00     0.120 A 
HETATM   14  C   UNK N   1      29.822  18.219   9.294  0.00  0.00     0.069 A 
HETATM   15  C   UNK N   1      30.682  17.814   8.282  0.00  0.00     0.127 A 
HETATM   16  N   UNK N   1      30.036  17.807   7.127  0.00  0.00    -0.279 N 
ATOM     17  HN  UNK N   1      30.440  17.546   6.227  1.00  0.00     0.189 HD
BRANCH  15  18
HETATM   18  N   UNK N   1      32.052  17.443   8.369  0.00  0.00    -0.283 N 
HETATM   19  C   UNK N   1      33.168  18.312   8.104  0.00  0.00     0.155 A 
HETATM   20  C   UNK N   1      34.396  17.391   8.388  0.00  0.00     0.144 A 
HETATM   21  N   UNK N   1      33.807  16.121   8.751  0.00  0.00    -0.341 N 
HETATM   22  C   UNK N   1      32.485  16.225   8.722  0.00  0.00     0.324 A 
HETATM   23  H   UNK N   1      34.308  15.307   8.983  0.00  0.00     0.164 HD
HETATM   24  O   UNK N   1      31.745  15.284   8.983  0.00  0.00    -0.247 OA
ENDBRANCH  15  18
ENDBRANCH  10  12
BRANCH   1  25
HETATM   25  C   UNK N   1      24.894  15.386   3.563  0.00  0.00     0.042 A 
HETATM   26  C   UNK N   1      23.498  15.364   3.717  0.00  0.00     0.033 A 
HETATM   27  C   UNK N   1      22.667  14.955   2.669  0.00  0.00     0.039 A 
HETATM   28  C   UNK N   1      23.213  14.562   1.445  0.00  0.00     0.068 A 
HETATM   29  C   UNK N   1      24.598  14.570   1.280  0.00  0.00     0.045 A 
HETATM   30  C   UNK N   1      25.443  14.970   2.308  0.00  0.00    -0.032 A 
HETATM   31  C   UNK N   1      26.903  14.937   2.000  0.00  0.00     0.050 C 
BRANCH  28  32
HETATM   32  O   UNK N   1      22.391  14.184   0.438  0.00  0.00    -0.356 OA
HETATM   33  C   UNK N   1      21.426  13.211   0.583  0.00  0.00     0.210 C 
ENDBRANCH  28  32
ENDBRANCH   1  25
TORSDOF 4
ENDMDL
