MODEL 1
REMARK VINA RESULT:      -6.0      0.000      0.000
REMARK  3 active torsions:
REMARK  status: ('A' for Active; 'I' for Inactive)
REMARK    1  A    between atoms: C_9  and  N_8 
REMARK    2  A    between atoms: C_12  and  C_14 
REMARK    3  A    between atoms: C_14  and  O_15 
ROOT
HETATM    1  C   UNK N   1      20.657  15.726   8.816  0.00  0.00     0.128 A 
HETATM    2  C   UNK N   1      20.484  16.945   8.162  0.00  0.00     0.117 A 
HETATM    3  C   UNK N   1      21.155  17.166   6.963  0.00  0.00     0.272 A 
HETATM    4  O   UNK N   1      21.036  18.224   6.370  0.00  0.00    -0.266 OA
HETATM    5  N   UNK N   1      21.965  16.190   6.451  0.00  0.00    -0.274 N 
HETATM    6  C   UNK N   1      22.136  15.001   7.106  0.00  0.00     0.331 A 
HETATM    7  O   UNK N   1      22.897  14.171   6.633  0.00  0.00    -0.246 OA
HETATM    8  N   UNK N   1      21.467  14.755   8.297  0.00  0.00    -0.281 N 
HETATM    9 Cl   UNK N   1      19.454  18.177   8.875  0.00  0.00    -0.077 Cl
HETATM   10  H   UNK N   1      22.432  16.345   5.599  0.00  0.00     0.173 HD
ENDROOT
BRANCH   8  11
HETATM   11  C   UNK N   1      21.698  13.539   9.106  0.00  0.00     0.235 C 
HETATM   12  C   UNK N   1      20.653  13.234  10.157  0.00  0.00     0.094 C 
HETATM   13  C   UNK N   1      21.401  12.175  10.876  0.00  0.00     0.205 C 
HETATM   14  C   UNK N   1      22.773  12.806  10.940  0.00  0.00     0.181 C 
HETATM   15  F   UNK N   1      20.877  11.921  12.129  0.00  0.00    -0.246 F 
HETATM   16  O   UNK N   1      22.960  13.538   9.746  0.00  0.00    -0.356 OA
BRANCH  14  17
HETATM   17  C   UNK N   1      23.851  11.743  11.084  0.00  0.00     0.199 C 
BRANCH  17  18
HETATM   18  O   UNK N   1      25.027  12.304  11.587  0.00  0.00    -0.398 OA
HETATM   19  H   UNK N   1      25.684  12.726  11.012  0.00  0.00     0.209 HD
ENDBRANCH  17  18
ENDBRANCH  14  17
ENDBRANCH   8  11
TORSDOF 3
ENDMDL
MODEL 2
REMARK VINA RESULT:      -5.8     16.991     18.949
REMARK  3 active torsions:
REMARK  status: ('A' for Active; 'I' for Inactive)
REMARK    1  A    between atoms: C_9  and  N_8 
REMARK    2  A    between atoms: C_12  and  C_14 
REMARK    3  A    between atoms: C_14  and  O_15 
ROOT
HETATM    1  C   UNK N   1      29.807  24.526  -4.352  0.00  0.00     0.128 A 
HETATM    2  C   UNK N   1      30.839  23.773  -3.796  0.00  0.00     0.117 A 
HETATM    3  C   UNK N   1      30.565  22.970  -2.692  0.00  0.00     0.272 A 
HETATM    4  O   UNK N   1      31.446  22.308  -2.172  0.00  0.00    -0.266 OA
HETATM    5  N   UNK N   1      29.298  22.935  -2.179  0.00  0.00    -0.274 N 
HETATM    6  C   UNK N   1      28.295  23.687  -2.726  0.00  0.00     0.331 A 
HETATM    7  O   UNK N   1      27.187  23.655  -2.214  0.00  0.00    -0.246 OA
HETATM    8  N   UNK N   1      28.542  24.484  -3.835  0.00  0.00    -0.281 N 
HETATM    9 Cl   UNK N   1      32.455  23.874  -4.476  0.00  0.00    -0.077 Cl
HETATM   10  H   UNK N   1      29.105  22.361  -1.403  0.00  0.00     0.173 HD
ENDROOT
BRANCH   8  11
HETATM   11  C   UNK N   1      27.530  25.403  -4.400  0.00  0.00     0.235 C 
HETATM   12  C   UNK N   1      27.672  25.719  -5.873  0.00  0.00     0.094 C 
HETATM   13  C   UNK N   1      26.697  26.835  -5.928  0.00  0.00     0.205 C 
HETATM   14  C   UNK N   1      27.071  27.587  -4.672  0.00  0.00     0.181 C 
HETATM   15  F   UNK N   1      26.842  27.603  -7.067  0.00  0.00    -0.246 F 
HETATM   16  O   UNK N   1      27.456  26.632  -3.704  0.00  0.00    -0.356 OA
BRANCH  14  17
HETATM   17  C   UNK N   1      25.898  28.411  -4.165  0.00  0.00     0.199 C 
BRANCH  17  18
HETATM   18  O   UNK N   1      25.428  27.900  -2.953  0.00  0.00    -0.398 OA
HETATM   19  H   UNK N   1      24.945  27.061  -2.901  0.00  0.00     0.209 HD
ENDBRANCH  17  18
ENDBRANCH  14  17
ENDBRANCH   8  11
TORSDOF 3
ENDMDL
MODEL 3
REMARK VINA RESULT:      -5.8     12.096     13.716
REMARK  3 active torsions:
REMARK  status: ('A' for Active; 'I' for Inactive)
REMARK    1  A    between atoms: C_9  and  N_8 
REMARK    2  A    between atoms: C_12  and  C_14 
REMARK    3  A    between atoms: C_14  and  O_15 
ROOT
HETATM    1  C   UNK N   1      34.279  14.252  10.443  0.00  0.00     0.128 A 
HETATM    2  C   UNK N   1      35.059  13.642  11.424  0.00  0.00     0.117 A 
HETATM    3  C   UNK N   1      36.029  14.398  12.078  0.00  0.00     0.272 A 
HETATM    4  O   UNK N   1      36.737  13.894  12.932  0.00  0.00    -0.266 OA
HETATM    5  N   UNK N   1      36.194  15.715  11.749  0.00  0.00    -0.274 N 
HETATM    6  C   UNK N   1      35.430  16.301  10.777  0.00  0.00     0.331 A 
HETATM    7  O   UNK N   1      35.636  17.469  10.489  0.00  0.00    -0.246 OA
HETATM    8  N   UNK N   1      34.449  15.569  10.122  0.00  0.00    -0.281 N 
HETATM    9 Cl   UNK N   1      34.825  11.940  11.791  0.00  0.00    -0.077 Cl
HETATM   10  H   UNK N   1      36.875  16.249  12.218  0.00  0.00     0.173 HD
ENDROOT
BRANCH   8  11
HETATM   11  C   UNK N   1      33.671  16.113   8.988  0.00  0.00     0.235 C 
HETATM   12  C   UNK N   1      32.264  15.578   8.833  0.00  0.00     0.094 C 
HETATM   13  C   UNK N   1      31.990  16.134   7.486  0.00  0.00     0.205 C 
HETATM   14  C   UNK N   1      33.295  15.820   6.791  0.00  0.00     0.181 C 
HETATM   15  F   UNK N   1      30.908  15.528   6.878  0.00  0.00    -0.246 F 
HETATM   16  O   UNK N   1      34.328  15.954   7.746  0.00  0.00    -0.356 OA
BRANCH  14  17
HETATM   17  C   UNK N   1      33.527  16.766   5.623  0.00  0.00     0.199 C 
BRANCH  17  18
HETATM   18  O   UNK N   1      34.194  17.916   6.051  0.00  0.00    -0.398 OA
HETATM   19  H   UNK N   1      33.745  18.772   6.131  0.00  0.00     0.209 HD
ENDBRANCH  17  18
ENDBRANCH  14  17
ENDBRANCH   8  11
TORSDOF 3
ENDMDL
MODEL 4
REMARK VINA RESULT:      -5.7      3.432      6.009
REMARK  3 active torsions:
REMARK  status: ('A' for Active; 'I' for Inactive)
REMARK    1  A    between atoms: C_9  and  N_8 
REMARK    2  A    between atoms: C_12  and  C_14 
REMARK    3  A    between atoms: C_14  and  O_15 
ROOT
HETATM    1  C   UNK N   1      22.652  13.712   9.292  0.00  0.00     0.128 A 
HETATM    2  C   UNK N   1      23.580  13.040  10.085  0.00  0.00     0.117 A 
HETATM    3  C   UNK N   1      23.118  12.227  11.117  0.00  0.00     0.272 A 
HETATM    4  O   UNK N   1      23.902  11.633  11.838  0.00  0.00    -0.266 OA
HETATM    5  N   UNK N   1      21.773  12.103  11.329  0.00  0.00    -0.274 N 
HETATM    6  C   UNK N   1      20.871  12.775  10.551  0.00  0.00     0.331 A 
HETATM    7  O   UNK N   1      19.681  12.665  10.799  0.00  0.00    -0.246 OA
HETATM    8  N   UNK N   1      21.309  13.581   9.510  0.00  0.00    -0.281 N 
HETATM    9 Cl   UNK N   1      25.298  13.254   9.788  0.00  0.00    -0.077 Cl
HETATM   10  H   UNK N   1      21.449  11.521  12.054  0.00  0.00     0.173 HD
ENDROOT
BRANCH   8  11
HETATM   11  C   UNK N   1      20.391  14.419   8.709  0.00  0.00     0.235 C 
HETATM   12  C   UNK N   1      20.966  15.001   7.435  0.00  0.00     0.094 C 
HETATM   13  C   UNK N   1      19.866  15.949   7.139  0.00  0.00     0.205 C 
HETATM   14  C   UNK N   1      19.622  16.524   8.516  0.00  0.00     0.181 C 
HETATM   15  F   UNK N   1      20.237  16.914   6.222  0.00  0.00    -0.246 F 
HETATM   16  O   UNK N   1      19.834  15.486   9.452  0.00  0.00    -0.356 OA
BRANCH  14  17
HETATM   17  C   UNK N   1      18.205  17.063   8.634  0.00  0.00     0.199 C 
BRANCH  17  18
HETATM   18  O   UNK N   1      18.167  18.149   9.511  0.00  0.00    -0.398 OA
HETATM   19  H   UNK N   1      17.594  18.160  10.293  0.00  0.00     0.209 HD
ENDBRANCH  17  18
ENDBRANCH  14  17
ENDBRANCH   8  11
TORSDOF 3
ENDMDL
MODEL 5
REMARK VINA RESULT:      -5.7     14.679     15.812
REMARK  3 active torsions:
REMARK  status: ('A' for Active; 'I' for Inactive)
REMARK    1  A    between atoms: C_9  and  N_8 
REMARK    2  A    between atoms: C_12  and  C_14 
REMARK    3  A    between atoms: C_14  and  O_15 
ROOT
HETATM    1  C   UNK N   1      35.045  12.741  13.751  0.00  0.00     0.128 A 
HETATM    2  C   UNK N   1      34.630  12.010  14.863  0.00  0.00     0.117 A 
HETATM    3  C   UNK N   1      35.135  12.347  16.116  0.00  0.00     0.272 A 
HETATM    4  O   UNK N   1      34.804  11.722  17.108  0.00  0.00    -0.266 OA
HETATM    5  N   UNK N   1      36.021  13.383  16.231  0.00  0.00    -0.274 N 
HETATM    6  C   UNK N   1      36.429  14.088  15.132  0.00  0.00     0.331 A 
HETATM    7  O   UNK N   1      37.249  14.981  15.275  0.00  0.00    -0.246 OA
HETATM    8  N   UNK N   1      35.928  13.776  13.875  0.00  0.00    -0.281 N 
HETATM    9 Cl   UNK N   1      33.513  10.671  14.658  0.00  0.00    -0.077 Cl
HETATM   10  H   UNK N   1      36.370  13.625  17.119  0.00  0.00     0.173 HD
ENDROOT
BRANCH   8  11
HETATM   11  C   UNK N   1      36.416  14.425  12.639  0.00  0.00     0.235 C 
HETATM   12  C   UNK N   1      35.461  15.397  11.980  0.00  0.00     0.094 C 
HETATM   13  C   UNK N   1      36.197  15.559  10.703  0.00  0.00     0.205 C 
HETATM   14  C   UNK N   1      36.564  14.121  10.416  0.00  0.00     0.181 C 
HETATM   15  F   UNK N   1      35.410  16.112   9.711  0.00  0.00    -0.246 F 
HETATM   16  O   UNK N   1      36.823  13.494  11.655  0.00  0.00    -0.356 OA
BRANCH  14  17
HETATM   17  C   UNK N   1      37.789  14.046   9.518  0.00  0.00     0.199 C 
BRANCH  17  18
HETATM   18  O   UNK N   1      38.760  14.958   9.937  0.00  0.00    -0.398 OA
HETATM   19  H   UNK N   1      39.110  15.645   9.349  0.00  0.00     0.209 HD
ENDBRANCH  17  18
ENDBRANCH  14  17
ENDBRANCH   8  11
TORSDOF 3
ENDMDL
MODEL 6
REMARK VINA RESULT:      -5.6      9.236      9.939
REMARK  3 active torsions:
REMARK  status: ('A' for Active; 'I' for Inactive)
REMARK    1  A    between atoms: C_9  and  N_8 
REMARK    2  A    between atoms: C_12  and  C_14 
REMARK    3  A    between atoms: C_14  and  O_15 
ROOT
HETATM    1  C   UNK N   1      30.170  17.205   6.474  0.00  0.00     0.128 A 
HETATM    2  C   UNK N   1      29.012  17.309   5.706  0.00  0.00     0.117 A 
HETATM    3  C   UNK N   1      27.803  17.570   6.345  0.00  0.00     0.272 A 
HETATM    4  O   UNK N   1      26.769  17.655   5.706  0.00  0.00    -0.266 OA
HETATM    5  N   UNK N   1      27.775  17.720   7.704  0.00  0.00    -0.274 N 
HETATM    6  C   UNK N   1      28.916  17.606   8.449  0.00  0.00     0.331 A 
HETATM    7  O   UNK N   1      28.840  17.710   9.664  0.00  0.00    -0.246 OA
HETATM    8  N   UNK N   1      30.134  17.358   7.832  0.00  0.00    -0.281 N 
HETATM    9 Cl   UNK N   1      29.097  17.081   3.966  0.00  0.00    -0.077 Cl
HETATM   10  H   UNK N   1      26.920  17.912   8.152  0.00  0.00     0.173 HD
ENDROOT
BRANCH   8  11
HETATM   11  C   UNK N   1      31.378  17.112   8.592  0.00  0.00     0.235 C 
HETATM   12  C   UNK N   1      32.591  17.903   8.150  0.00  0.00     0.094 C 
HETATM   13  C   UNK N   1      33.606  17.161   8.936  0.00  0.00     0.205 C 
HETATM   14  C   UNK N   1      33.156  15.739   8.689  0.00  0.00     0.181 C 
HETATM   15  F   UNK N   1      34.891  17.394   8.487  0.00  0.00    -0.246 F 
HETATM   16  O   UNK N   1      31.745  15.747   8.617  0.00  0.00    -0.356 OA
BRANCH  14  17
HETATM   17  C   UNK N   1      33.624  14.822   9.808  0.00  0.00     0.199 C 
BRANCH  17  18
HETATM   18  O   UNK N   1      32.928  15.095  10.987  0.00  0.00    -0.398 OA
HETATM   19  H   UNK N   1      33.383  15.263  11.827  0.00  0.00     0.209 HD
ENDBRANCH  17  18
ENDBRANCH  14  17
ENDBRANCH   8  11
TORSDOF 3
ENDMDL
MODEL 7
REMARK VINA RESULT:      -5.5      5.399      6.750
REMARK  3 active torsions:
REMARK  status: ('A' for Active; 'I' for Inactive)
REMARK    1  A    between atoms: C_9  and  N_8 
REMARK    2  A    between atoms: C_12  and  C_14 
REMARK    3  A    between atoms: C_14  and  O_15 
ROOT
HETATM    1  C   UNK N   1      23.252  18.610   4.472  0.00  0.00     0.128 A 
HETATM    2  C   UNK N   1      24.197  19.326   3.739  0.00  0.00     0.117 A 
HETATM    3  C   UNK N   1      23.758  20.304   2.851  0.00  0.00     0.272 A 
HETATM    4  O   UNK N   1      24.556  20.941   2.185  0.00  0.00    -0.266 OA
HETATM    5  N   UNK N   1      22.418  20.543   2.716  0.00  0.00    -0.274 N 
HETATM    6  C   UNK N   1      21.499  19.828   3.433  0.00  0.00     0.331 A 
HETATM    7  O   UNK N   1      20.311  20.048   3.255  0.00  0.00    -0.246 OA
HETATM    8  N   UNK N   1      21.914  18.857   4.333  0.00  0.00    -0.281 N 
HETATM    9 Cl   UNK N   1      25.905  18.961   3.928  0.00  0.00    -0.077 Cl
HETATM   10  H   UNK N   1      22.111  21.241   2.094  0.00  0.00     0.173 HD
ENDROOT
BRANCH   8  11
HETATM   11  C   UNK N   1      20.968  17.975   5.050  0.00  0.00     0.235 C 
HETATM   12  C   UNK N   1      21.456  17.411   6.367  0.00  0.00     0.094 C 
HETATM   13  C   UNK N   1      20.377  16.415   6.565  0.00  0.00     0.205 C 
HETATM   14  C   UNK N   1      20.277  15.839   5.171  0.00  0.00     0.181 C 
HETATM   15  F   UNK N   1      20.709  15.461   7.508  0.00  0.00    -0.246 F 
HETATM   16  O   UNK N   1      20.523  16.891   4.259  0.00  0.00    -0.356 OA
BRANCH  14  17
HETATM   17  C   UNK N   1      18.900  15.241   4.931  0.00  0.00     0.199 C 
BRANCH  17  18
HETATM   18  O   UNK N   1      17.945  15.874   5.730  0.00  0.00    -0.398 OA
HETATM   19  H   UNK N   1      18.181  16.575   6.357  0.00  0.00     0.209 HD
ENDBRANCH  17  18
ENDBRANCH  14  17
ENDBRANCH   8  11
TORSDOF 3
ENDMDL
MODEL 8
REMARK VINA RESULT:      -5.4     16.885     17.815
REMARK  3 active torsions:
REMARK  status: ('A' for Active; 'I' for Inactive)
REMARK    1  A    between atoms: C_9  and  N_8 
REMARK    2  A    between atoms: C_12  and  C_14 
REMARK    3  A    between atoms: C_14  and  O_15 
ROOT
HETATM    1  C   UNK N   1      26.925  26.103  -3.940  0.00  0.00     0.128 A 
HETATM    2  C   UNK N   1      25.959  27.004  -4.386  0.00  0.00     0.117 A 
HETATM    3  C   UNK N   1      25.057  26.593  -5.364  0.00  0.00     0.272 A 
HETATM    4  O   UNK N   1      24.208  27.357  -5.786  0.00  0.00    -0.266 OA
HETATM    5  N   UNK N   1      25.135  25.322  -5.863  0.00  0.00    -0.274 N 
HETATM    6  C   UNK N   1      26.093  24.449  -5.425  0.00  0.00     0.331 A 
HETATM    7  O   UNK N   1      26.150  23.336  -5.925  0.00  0.00    -0.246 OA
HETATM    8  N   UNK N   1      26.994  24.834  -4.442  0.00  0.00    -0.281 N 
HETATM    9 Cl   UNK N   1      25.919  28.634  -3.732  0.00  0.00    -0.077 Cl
HETATM   10  H   UNK N   1      24.491  25.031  -6.549  0.00  0.00     0.173 HD
ENDROOT
BRANCH   8  11
HETATM   11  C   UNK N   1      28.120  23.978  -4.012  0.00  0.00     0.235 C 
HETATM   12  C   UNK N   1      28.121  23.569  -2.554  0.00  0.00     0.094 C 
HETATM   13  C   UNK N   1      29.494  23.013  -2.508  0.00  0.00     0.205 C 
HETATM   14  C   UNK N   1      30.244  24.073  -3.282  0.00  0.00     0.181 C 
HETATM   15  F   UNK N   1      29.961  22.873  -1.215  0.00  0.00    -0.246 F 
HETATM   16  O   UNK N   1      29.382  24.547  -4.297  0.00  0.00    -0.356 OA
BRANCH  14  17
HETATM   17  C   UNK N   1      31.515  23.500  -3.890  0.00  0.00     0.199 C 
BRANCH  17  18
HETATM   18  O   UNK N   1      31.403  22.117  -4.045  0.00  0.00    -0.398 OA
HETATM   19  H   UNK N   1      31.762  21.654  -4.818  0.00  0.00     0.209 HD
ENDBRANCH  17  18
ENDBRANCH  14  17
ENDBRANCH   8  11
TORSDOF 3
ENDMDL
MODEL 9
REMARK VINA RESULT:      -5.4     12.009     13.195
REMARK  3 active torsions:
REMARK  status: ('A' for Active; 'I' for Inactive)
REMARK    1  A    between atoms: C_9  and  N_8 
REMARK    2  A    between atoms: C_12  and  C_14 
REMARK    3  A    between atoms: C_14  and  O_15 
ROOT
HETATM    1  C   UNK N   1      33.789  14.972   9.072  0.00  0.00     0.128 A 
HETATM    2  C   UNK N   1      33.004  15.802   8.275  0.00  0.00     0.117 A 
HETATM    3  C   UNK N   1      33.260  17.171   8.272  0.00  0.00     0.272 A 
HETATM    4  O   UNK N   1      32.585  17.928   7.596  0.00  0.00    -0.266 OA
HETATM    5  N   UNK N   1      34.271  17.671   9.046  0.00  0.00    -0.274 N 
HETATM    6  C   UNK N   1      35.029  16.848   9.833  0.00  0.00     0.331 A 
HETATM    7  O   UNK N   1      35.897  17.341  10.537  0.00  0.00    -0.246 OA
HETATM    8  N   UNK N   1      34.799  15.480   9.841  0.00  0.00    -0.281 N 
HETATM    9 Cl   UNK N   1      31.700  15.114   7.320  0.00  0.00    -0.077 Cl
HETATM   10  H   UNK N   1      34.455  18.638   9.037  0.00  0.00     0.173 HD
ENDROOT
BRANCH   8  11
HETATM   11  C   UNK N   1      35.507  14.557  10.754  0.00  0.00     0.235 C 
HETATM   12  C   UNK N   1      35.313  13.080  10.484  0.00  0.00     0.094 C 
HETATM   13  C   UNK N   1      35.916  12.571  11.739  0.00  0.00     0.205 C 
HETATM   14  C   UNK N   1      35.307  13.525  12.741  0.00  0.00     0.181 C 
HETATM   15  F   UNK N   1      35.576  11.255  11.989  0.00  0.00    -0.246 F 
HETATM   16  O   UNK N   1      35.199  14.787  12.115  0.00  0.00    -0.356 OA
BRANCH  14  17
HETATM   17  C   UNK N   1      36.173  13.624  13.987  0.00  0.00     0.199 C 
BRANCH  17  18
HETATM   18  O   UNK N   1      36.845  14.848  14.019  0.00  0.00    -0.398 OA
HETATM   19  H   UNK N   1      37.455  15.119  13.316  0.00  0.00     0.209 HD
ENDBRANCH  17  18
ENDBRANCH  14  17
ENDBRANCH   8  11
TORSDOF 3
ENDMDL
