MODEL 1
REMARK VINA RESULT:      -8.6      0.000      0.000
REMARK  6 active torsions:
REMARK  status: ('A' for Active; 'I' for Inactive)
REMARK    1  A    between atoms: C_3  and  N_20 
REMARK    2  A    between atoms: C_7  and  C_8 
REMARK    3  A    between atoms: C_8  and  C_9 
REMARK    4  A    between atoms: N_20  and  C_21 
REMARK    5  A    between atoms: C_21  and  C_22 
REMARK    6  A    between atoms: C_25  and  C_29 
ROOT
HETATM    1  C   UNK N   1      32.494  17.789   7.446  0.00  0.00     0.012 A 
HETATM    2  C   UNK N   1      33.724  17.667   8.092  0.00  0.00     0.049 A 
HETATM    3  C   UNK N   1      33.895  16.653   9.038  0.00  0.00     0.101 A 
HETATM    4  N   UNK N   1      32.845  15.853   9.376  0.00  0.00    -0.352 N 
ATOM      5  HN  UNK N   1      32.975  15.140  10.094  1.00  0.00     0.166 HD
HETATM    6  C   UNK N   1      31.633  15.980   8.785  0.00  0.00     0.097 A 
HETATM    7  C   UNK N   1      31.454  16.913   7.766  0.00  0.00    -0.038 A 
ENDROOT
BRANCH   3   8
HETATM    8  N   UNK N   1      35.191  16.322   9.480  0.00  0.00    -0.372 N 
HETATM    9  H   UNK N   1      35.852  17.019   9.696  0.00  0.00     0.161 HD
BRANCH   8  10
HETATM   10  C   UNK N   1      35.509  14.921   9.605  0.00  0.00     0.161 C 
BRANCH  10  11
HETATM   11  C   UNK N   1      35.885  14.483  10.971  0.00  0.00    -0.025 A 
HETATM   12  C   UNK N   1      36.003  13.137  11.331  0.00  0.00     0.012 A 
HETATM   13  C   UNK N   1      36.295  12.804  12.655  0.00  0.00     0.035 A 
HETATM   14  C   UNK N   1      36.469  13.826  13.600  0.00  0.00     0.116 A 
HETATM   15  N   UNK N   1      36.367  15.128  13.217  0.00  0.00    -0.361 N 
HETATM   16  C   UNK N   1      36.077  15.469  11.937  0.00  0.00     0.097 A 
ATOM     17  HN  UNK N   1      36.512  15.864  13.909  1.00  0.00     0.165 HD
BRANCH  14  18
HETATM   18  C   UNK N   1      36.734  13.490  15.032  0.00  0.00     0.432 C 
HETATM   19  F   UNK N   1      37.466  12.320  15.095  0.00  0.00    -0.165 F 
HETATM   20  F   UNK N   1      35.543  13.309  15.714  0.00  0.00    -0.165 F 
HETATM   21  F   UNK N   1      37.445  14.511  15.631  0.00  0.00    -0.165 F 
ENDBRANCH  14  18
ENDBRANCH  10  11
ENDBRANCH   8  10
ENDBRANCH   3   8
BRANCH   7  22
HETATM   22  C   UNK N   1      30.224  16.881   6.927  0.00  0.00     0.081 C 
BRANCH  22  23
HETATM   23  C   UNK N   1      29.143  17.832   7.413  0.00  0.00    -0.024 A 
HETATM   24  C   UNK N   1      28.803  17.976   8.756  0.00  0.00     0.098 A 
HETATM   25  N   UNK N   1      27.816  18.899   8.891  0.00  0.00    -0.351 N 
HETATM   26  C   UNK N   1      27.536  19.328   7.648  0.00  0.00     0.116 A 
HETATM   27  H   UNK N   1      27.392  19.194   9.729  0.00  0.00     0.166 HD
HETATM   28  C   UNK N   1      28.317  18.711   6.719  0.00  0.00     0.018 A 
HETATM   29  N   UNK N   1      26.598  20.253   7.323  0.00  0.00    -0.350 N 
HETATM   30  C   UNK N   1      28.166  19.021   5.366  0.00  0.00     0.041 A 
HETATM   31  C   UNK N   1      27.196  19.968   5.006  0.00  0.00     0.050 A 
HETATM   32  C   UNK N   1      26.414  20.580   6.008  0.00  0.00     0.113 A 
HETATM   33 Cl   UNK N   1      26.949  20.371   3.319  0.00  0.00    -0.083 Cl
ATOM     34  HN  UNK N   1      26.038  20.697   8.049  1.00  0.00     0.166 HD
ENDBRANCH  22  23
ENDBRANCH   7  22
TORSDOF 6
ENDMDL
MODEL 2
REMARK VINA RESULT:      -8.4      2.739      3.654
REMARK  6 active torsions:
REMARK  status: ('A' for Active; 'I' for Inactive)
REMARK    1  A    between atoms: C_3  and  N_20 
REMARK    2  A    between atoms: C_7  and  C_8 
REMARK    3  A    between atoms: C_8  and  C_9 
REMARK    4  A    between atoms: N_20  and  C_21 
REMARK    5  A    between atoms: C_21  and  C_22 
REMARK    6  A    between atoms: C_25  and  C_29 
ROOT
HETATM    1  C   UNK N   1      34.414  15.785   7.490  0.00  0.00     0.012 A 
HETATM    2  C   UNK N   1      34.790  15.516   8.807  0.00  0.00     0.049 A 
HETATM    3  C   UNK N   1      34.941  16.580   9.699  0.00  0.00     0.101 A 
HETATM    4  N   UNK N   1      34.801  17.862   9.260  0.00  0.00    -0.352 N 
ATOM      5  HN  UNK N   1      34.948  18.630   9.915  1.00  0.00     0.166 HD
HETATM    6  C   UNK N   1      34.471  18.144   7.976  0.00  0.00     0.097 A 
HETATM    7  C   UNK N   1      34.214  17.106   7.084  0.00  0.00    -0.038 A 
ENDROOT
BRANCH   3   8
HETATM    8  N   UNK N   1      35.025  16.325  11.082  0.00  0.00    -0.372 N 
HETATM    9  H   UNK N   1      34.385  16.722  11.716  0.00  0.00     0.161 HD
BRANCH   8  10
HETATM   10  C   UNK N   1      36.085  15.457  11.531  0.00  0.00     0.161 C 
BRANCH  10  11
HETATM   11  C   UNK N   1      35.656  14.351  12.422  0.00  0.00    -0.025 A 
HETATM   12  C   UNK N   1      36.084  14.234  13.747  0.00  0.00     0.012 A 
HETATM   13  C   UNK N   1      35.689  13.128  14.501  0.00  0.00     0.035 A 
HETATM   14  C   UNK N   1      34.864  12.156  13.917  0.00  0.00     0.116 A 
HETATM   15  N   UNK N   1      34.447  12.305  12.629  0.00  0.00    -0.361 N 
HETATM   16  C   UNK N   1      34.828  13.369  11.881  0.00  0.00     0.097 A 
ATOM     17  HN  UNK N   1      33.834  11.600  12.220  1.00  0.00     0.165 HD
BRANCH  14  18
HETATM   18  C   UNK N   1      34.470  10.939  14.691  0.00  0.00     0.432 C 
HETATM   19  F   UNK N   1      35.373   9.926  14.432  0.00  0.00    -0.165 F 
HETATM   20  F   UNK N   1      33.205  10.518  14.317  0.00  0.00    -0.165 F 
HETATM   21  F   UNK N   1      34.469  11.222  16.043  0.00  0.00    -0.165 F 
ENDBRANCH  14  18
ENDBRANCH  10  11
ENDBRANCH   8  10
ENDBRANCH   3   8
BRANCH   7  22
HETATM   22  C   UNK N   1      33.592  17.391   5.761  0.00  0.00     0.081 C 
BRANCH  22  23
HETATM   23  C   UNK N   1      32.132  16.977   5.683  0.00  0.00    -0.024 A 
HETATM   24  C   UNK N   1      31.597  16.277   4.604  0.00  0.00     0.098 A 
HETATM   25  N   UNK N   1      30.277  16.037   4.813  0.00  0.00    -0.351 N 
HETATM   26  C   UNK N   1      29.984  16.582   6.007  0.00  0.00     0.116 A 
HETATM   27  H   UNK N   1      29.660  15.561   4.212  0.00  0.00     0.166 HD
HETATM   28  C   UNK N   1      31.079  17.162   6.572  0.00  0.00     0.018 A 
HETATM   29  N   UNK N   1      28.765  16.579   6.600  0.00  0.00    -0.350 N 
HETATM   30  C   UNK N   1      30.970  17.790   7.815  0.00  0.00     0.041 A 
HETATM   31  C   UNK N   1      29.716  17.806   8.443  0.00  0.00     0.050 A 
HETATM   32  C   UNK N   1      28.614  17.189   7.815  0.00  0.00     0.113 A 
HETATM   33 Cl   UNK N   1      29.522  18.605   9.990  0.00  0.00    -0.083 Cl
ATOM     34  HN  UNK N   1      27.971  16.129   6.146  1.00  0.00     0.166 HD
ENDBRANCH  22  23
ENDBRANCH   7  22
TORSDOF 6
ENDMDL
MODEL 3
REMARK VINA RESULT:      -8.3      6.724     12.198
REMARK  6 active torsions:
REMARK  status: ('A' for Active; 'I' for Inactive)
REMARK    1  A    between atoms: C_3  and  N_20 
REMARK    2  A    between atoms: C_7  and  C_8 
REMARK    3  A    between atoms: C_8  and  C_9 
REMARK    4  A    between atoms: N_20  and  C_21 
REMARK    5  A    between atoms: C_21  and  C_22 
REMARK    6  A    between atoms: C_25  and  C_29 
ROOT
HETATM    1  C   UNK N   1      34.500  10.552  15.356  0.00  0.00     0.012 A 
HETATM    2  C   UNK N   1      34.118  11.275  14.225  0.00  0.00     0.049 A 
HETATM    3  C   UNK N   1      34.762  12.481  13.943  0.00  0.00     0.101 A 
HETATM    4  N   UNK N   1      35.690  12.977  14.809  0.00  0.00    -0.352 N 
ATOM      5  HN  UNK N   1      36.127  13.876  14.607  1.00  0.00     0.166 HD
HETATM    6  C   UNK N   1      36.048  12.306  15.930  0.00  0.00     0.097 A 
HETATM    7  C   UNK N   1      35.501  11.052  16.191  0.00  0.00    -0.038 A 
ENDROOT
BRANCH   3   8
HETATM    8  N   UNK N   1      34.611  13.073  12.673  0.00  0.00    -0.372 N 
HETATM    9  H   UNK N   1      33.907  12.779  12.051  0.00  0.00     0.161 HD
BRANCH   8  10
HETATM   10  C   UNK N   1      35.529  14.128  12.321  0.00  0.00     0.161 C 
BRANCH  10  11
HETATM   11  C   UNK N   1      35.039  15.066  11.283  0.00  0.00    -0.025 A 
HETATM   12  C   UNK N   1      34.072  14.714  10.337  0.00  0.00     0.012 A 
HETATM   13  C   UNK N   1      33.712  15.633   9.350  0.00  0.00     0.035 A 
HETATM   14  C   UNK N   1      34.323  16.895   9.327  0.00  0.00     0.116 A 
HETATM   15  N   UNK N   1      35.248  17.217  10.273  0.00  0.00    -0.361 N 
HETATM   16  C   UNK N   1      35.615  16.335  11.234  0.00  0.00     0.097 A 
ATOM     17  HN  UNK N   1      35.674  18.144  10.257  1.00  0.00     0.165 HD
BRANCH  14  18
HETATM   18  C   UNK N   1      33.987  17.875   8.250  0.00  0.00     0.432 C 
HETATM   19  F   UNK N   1      34.828  18.966   8.353  0.00  0.00    -0.165 F 
HETATM   20  F   UNK N   1      32.678  18.305   8.378  0.00  0.00    -0.165 F 
HETATM   21  F   UNK N   1      34.148  17.285   7.011  0.00  0.00    -0.165 F 
ENDBRANCH  14  18
ENDBRANCH  10  11
ENDBRANCH   8  10
ENDBRANCH   3   8
BRANCH   7  22
HETATM   22  C   UNK N   1      36.076  10.191  17.261  0.00  0.00     0.081 C 
BRANCH  22  23
HETATM   23  C   UNK N   1      35.432  10.412  18.620  0.00  0.00    -0.024 A 
HETATM   24  C   UNK N   1      35.799  11.448  19.476  0.00  0.00     0.098 A 
HETATM   25  N   UNK N   1      35.050  11.403  20.608  0.00  0.00    -0.351 N 
HETATM   26  C   UNK N   1      34.226  10.350  20.468  0.00  0.00     0.116 A 
HETATM   27  H   UNK N   1      35.101  12.017  21.376  0.00  0.00     0.166 HD
HETATM   28  C   UNK N   1      34.420   9.720  19.277  0.00  0.00     0.018 A 
HETATM   29  N   UNK N   1      33.309   9.937  21.378  0.00  0.00    -0.350 N 
HETATM   30  C   UNK N   1      33.659   8.595  18.952  0.00  0.00     0.041 A 
HETATM   31  C   UNK N   1      32.710   8.144  19.882  0.00  0.00     0.050 A 
HETATM   32  C   UNK N   1      32.548   8.835  21.102  0.00  0.00     0.113 A 
HETATM   33 Cl   UNK N   1      31.750   6.721  19.535  0.00  0.00    -0.083 Cl
ATOM     34  HN  UNK N   1      33.190  10.440  22.256  1.00  0.00     0.166 HD
ENDBRANCH  22  23
ENDBRANCH   7  22
TORSDOF 6
ENDMDL
MODEL 4
REMARK VINA RESULT:      -8.2      6.559     11.937
REMARK  6 active torsions:
REMARK  status: ('A' for Active; 'I' for Inactive)
REMARK    1  A    between atoms: C_3  and  N_20 
REMARK    2  A    between atoms: C_7  and  C_8 
REMARK    3  A    between atoms: C_8  and  C_9 
REMARK    4  A    between atoms: N_20  and  C_21 
REMARK    5  A    between atoms: C_21  and  C_22 
REMARK    6  A    between atoms: C_25  and  C_29 
ROOT
HETATM    1  C   UNK N   1      34.787  12.681  15.012  0.00  0.00     0.012 A 
HETATM    2  C   UNK N   1      35.156  13.244  13.790  0.00  0.00     0.049 A 
HETATM    3  C   UNK N   1      36.279  14.071  13.736  0.00  0.00     0.101 A 
HETATM    4  N   UNK N   1      36.949  14.385  14.880  0.00  0.00    -0.352 N 
ATOM      5  HN  UNK N   1      37.747  15.019  14.831  1.00  0.00     0.166 HD
HETATM    6  C   UNK N   1      36.584  13.878  16.082  0.00  0.00     0.097 A 
HETATM    7  C   UNK N   1      35.531  12.969  16.158  0.00  0.00    -0.038 A 
ENDROOT
BRANCH   3   8
HETATM    8  N   UNK N   1      36.841  14.406  12.488  0.00  0.00    -0.372 N 
HETATM    9  H   UNK N   1      37.653  14.960  12.424  0.00  0.00     0.161 HD
BRANCH   8  10
HETATM   10  C   UNK N   1      36.182  13.903  11.309  0.00  0.00     0.161 C 
BRANCH  10  11
HETATM   11  C   UNK N   1      35.568  14.939  10.443  0.00  0.00    -0.025 A 
HETATM   12  C   UNK N   1      35.191  14.696   9.119  0.00  0.00     0.012 A 
HETATM   13  C   UNK N   1      34.682  15.742   8.348  0.00  0.00     0.035 A 
HETATM   14  C   UNK N   1      34.552  17.017   8.917  0.00  0.00     0.116 A 
HETATM   15  N   UNK N   1      34.909  17.220  10.215  0.00  0.00    -0.361 N 
HETATM   16  C   UNK N   1      35.412  16.218  10.976  0.00  0.00     0.097 A 
ATOM     17  HN  UNK N   1      34.795  18.148  10.624  1.00  0.00     0.165 HD
BRANCH  14  18
HETATM   18  C   UNK N   1      34.055  18.162   8.094  0.00  0.00     0.432 C 
HETATM   19  F   UNK N   1      32.726  18.391   8.394  0.00  0.00    -0.165 F 
HETATM   20  F   UNK N   1      34.165  17.871   6.745  0.00  0.00    -0.165 F 
HETATM   21  F   UNK N   1      34.792  19.297   8.372  0.00  0.00    -0.165 F 
ENDBRANCH  14  18
ENDBRANCH  10  11
ENDBRANCH   8  10
ENDBRANCH   3   8
BRANCH   7  22
HETATM   22  C   UNK N   1      35.293  12.201  17.412  0.00  0.00     0.081 C 
BRANCH  22  23
HETATM   23  C   UNK N   1      35.665  10.732  17.295  0.00  0.00    -0.024 A 
HETATM   24  C   UNK N   1      36.716  10.274  16.504  0.00  0.00     0.098 A 
HETATM   25  N   UNK N   1      36.820   8.924  16.603  0.00  0.00    -0.351 N 
HETATM   26  C   UNK N   1      35.844   8.536  17.442  0.00  0.00     0.116 A 
HETATM   27  H   UNK N   1      37.476   8.346  16.151  0.00  0.00     0.166 HD
HETATM   28  C   UNK N   1      35.119   9.599  17.890  0.00  0.00     0.018 A 
HETATM   29  N   UNK N   1      35.582   7.259  17.815  0.00  0.00    -0.350 N 
HETATM   30  C   UNK N   1      34.054   9.395  18.768  0.00  0.00     0.041 A 
HETATM   31  C   UNK N   1      33.759   8.080  19.160  0.00  0.00     0.050 A 
HETATM   32  C   UNK N   1      34.542   7.015  18.669  0.00  0.00     0.113 A 
HETATM   33 Cl   UNK N   1      32.415   7.768  20.239  0.00  0.00    -0.083 Cl
ATOM     34  HN  UNK N   1      36.153   6.491  17.462  1.00  0.00     0.166 HD
ENDBRANCH  22  23
ENDBRANCH   7  22
TORSDOF 6
ENDMDL
MODEL 5
REMARK VINA RESULT:      -8.2      6.071     11.201
REMARK  6 active torsions:
REMARK  status: ('A' for Active; 'I' for Inactive)
REMARK    1  A    between atoms: C_3  and  N_20 
REMARK    2  A    between atoms: C_7  and  C_8 
REMARK    3  A    between atoms: C_8  and  C_9 
REMARK    4  A    between atoms: N_20  and  C_21 
REMARK    5  A    between atoms: C_21  and  C_22 
REMARK    6  A    between atoms: C_25  and  C_29 
ROOT
HETATM    1  C   UNK N   1      34.736  12.265  14.026  0.00  0.00     0.012 A 
HETATM    2  C   UNK N   1      35.231  13.324  13.263  0.00  0.00     0.049 A 
HETATM    3  C   UNK N   1      36.577  13.320  12.892  0.00  0.00     0.101 A 
HETATM    4  N   UNK N   1      37.406  12.337  13.344  0.00  0.00    -0.352 N 
ATOM      5  HN  UNK N   1      38.394  12.367  13.094  1.00  0.00     0.166 HD
HETATM    6  C   UNK N   1      36.951  11.321  14.116  0.00  0.00     0.097 A 
HETATM    7  C   UNK N   1      35.594  11.236  14.420  0.00  0.00    -0.038 A 
ENDROOT
BRANCH   3   8
HETATM    8  N   UNK N   1      37.028  14.202  11.891  0.00  0.00    -0.372 N 
HETATM    9  H   UNK N   1      37.570  14.995  12.112  0.00  0.00     0.161 HD
BRANCH   8  10
HETATM   10  C   UNK N   1      36.666  13.898  10.529  0.00  0.00     0.161 C 
BRANCH  10  11
HETATM   11  C   UNK N   1      35.858  14.937   9.847  0.00  0.00    -0.025 A 
HETATM   12  C   UNK N   1      35.507  14.863   8.496  0.00  0.00     0.012 A 
HETATM   13  C   UNK N   1      34.801  15.915   7.911  0.00  0.00     0.035 A 
HETATM   14  C   UNK N   1      34.450  17.027   8.691  0.00  0.00     0.116 A 
HETATM   15  N   UNK N   1      34.788  17.064  10.009  0.00  0.00    -0.361 N 
HETATM   16  C   UNK N   1      35.481  16.055  10.591  0.00  0.00     0.097 A 
ATOM     17  HN  UNK N   1      34.514  17.871  10.570  1.00  0.00     0.165 HD
BRANCH  14  18
HETATM   18  C   UNK N   1      33.737  18.185   8.072  0.00  0.00     0.432 C 
HETATM   19  F   UNK N   1      32.487  18.307   8.647  0.00  0.00    -0.165 F 
HETATM   20  F   UNK N   1      33.586  17.988   6.710  0.00  0.00    -0.165 F 
HETATM   21  F   UNK N   1      34.456  19.347   8.282  0.00  0.00    -0.165 F 
ENDBRANCH  14  18
ENDBRANCH  10  11
ENDBRANCH   8  10
ENDBRANCH   3   8
BRANCH   7  22
HETATM   22  C   UNK N   1      35.038   9.996  15.029  0.00  0.00     0.081 C 
BRANCH  22  23
HETATM   23  C   UNK N   1      35.156   9.968  16.544  0.00  0.00    -0.024 A 
HETATM   24  C   UNK N   1      35.244   8.787  17.278  0.00  0.00     0.098 A 
HETATM   25  N   UNK N   1      35.350   9.069  18.602  0.00  0.00    -0.351 N 
HETATM   26  C   UNK N   1      35.325  10.409  18.701  0.00  0.00     0.116 A 
HETATM   27  H   UNK N   1      35.428   8.422  19.340  0.00  0.00     0.166 HD
HETATM   28  C   UNK N   1      35.211  10.998  17.478  0.00  0.00     0.018 A 
HETATM   29  N   UNK N   1      35.398  11.119  19.854  0.00  0.00    -0.350 N 
HETATM   30  C   UNK N   1      35.162  12.389  17.377  0.00  0.00     0.041 A 
HETATM   31  C   UNK N   1      35.226  13.143  18.558  0.00  0.00     0.050 A 
HETATM   32  C   UNK N   1      35.346  12.485  19.800  0.00  0.00     0.113 A 
HETATM   33 Cl   UNK N   1      35.139  14.891  18.487  0.00  0.00    -0.083 Cl
ATOM     34  HN  UNK N   1      35.488  10.640  20.750  1.00  0.00     0.166 HD
ENDBRANCH  22  23
ENDBRANCH   7  22
TORSDOF 6
ENDMDL
MODEL 6
REMARK VINA RESULT:      -8.1      1.573      1.938
REMARK  6 active torsions:
REMARK  status: ('A' for Active; 'I' for Inactive)
REMARK    1  A    between atoms: C_3  and  N_20 
REMARK    2  A    between atoms: C_7  and  C_8 
REMARK    3  A    between atoms: C_8  and  C_9 
REMARK    4  A    between atoms: N_20  and  C_21 
REMARK    5  A    between atoms: C_21  and  C_22 
REMARK    6  A    between atoms: C_25  and  C_29 
ROOT
HETATM    1  C   UNK N   1      31.763  15.567   7.602  0.00  0.00     0.012 A 
HETATM    2  C   UNK N   1      33.082  15.440   8.039  0.00  0.00     0.049 A 
HETATM    3  C   UNK N   1      33.673  16.502   8.726  0.00  0.00     0.101 A 
HETATM    4  N   UNK N   1      32.992  17.671   8.890  0.00  0.00    -0.352 N 
ATOM      5  HN  UNK N   1      33.449  18.450   9.363  1.00  0.00     0.166 HD
HETATM    6  C   UNK N   1      31.723  17.825   8.440  0.00  0.00     0.097 A 
HETATM    7  C   UNK N   1      31.066  16.753   7.841  0.00  0.00    -0.038 A 
ENDROOT
BRANCH   3   8
HETATM    8  N   UNK N   1      34.877  16.296   9.428  0.00  0.00    -0.372 N 
HETATM    9  H   UNK N   1      35.366  17.046   9.838  0.00  0.00     0.161 HD
BRANCH   8  10
HETATM   10  C   UNK N   1      35.364  14.942   9.524  0.00  0.00     0.161 C 
BRANCH  10  11
HETATM   11  C   UNK N   1      35.728  14.502  10.893  0.00  0.00    -0.025 A 
HETATM   12  C   UNK N   1      35.651  13.170  11.308  0.00  0.00     0.012 A 
HETATM   13  C   UNK N   1      35.948  12.845  12.633  0.00  0.00     0.035 A 
HETATM   14  C   UNK N   1      36.323  13.862  13.523  0.00  0.00     0.116 A 
HETATM   15  N   UNK N   1      36.407  15.149  13.087  0.00  0.00    -0.361 N 
HETATM   16  C   UNK N   1      36.116  15.482  11.806  0.00  0.00     0.097 A 
ATOM     17  HN  UNK N   1      36.697  15.878  13.739  1.00  0.00     0.165 HD
BRANCH  14  18
HETATM   18  C   UNK N   1      36.596  13.543  14.958  0.00  0.00     0.432 C 
HETATM   19  F   UNK N   1      37.370  12.401  15.028  0.00  0.00    -0.165 F 
HETATM   20  F   UNK N   1      35.412  13.323  15.639  0.00  0.00    -0.165 F 
HETATM   21  F   UNK N   1      37.270  14.592  15.553  0.00  0.00    -0.165 F 
ENDBRANCH  14  18
ENDBRANCH  10  11
ENDBRANCH   8  10
ENDBRANCH   3   8
BRANCH   7  22
HETATM   22  C   UNK N   1      29.600  16.818   7.590  0.00  0.00     0.081 C 
BRANCH  22  23
HETATM   23  C   UNK N   1      29.243  17.537   6.300  0.00  0.00    -0.024 A 
HETATM   24  C   UNK N   1      29.714  17.136   5.051  0.00  0.00     0.098 A 
HETATM   25  N   UNK N   1      29.224  17.955   4.085  0.00  0.00    -0.351 N 
HETATM   26  C   UNK N   1      28.459  18.862   4.717  0.00  0.00     0.116 A 
HETATM   27  H   UNK N   1      29.396  17.897   3.117  0.00  0.00     0.166 HD
HETATM   28  C   UNK N   1      28.438  18.646   6.062  0.00  0.00     0.018 A 
HETATM   29  N   UNK N   1      27.783  19.877   4.125  0.00  0.00    -0.350 N 
HETATM   30  C   UNK N   1      27.701  19.493   6.891  0.00  0.00     0.041 A 
HETATM   31  C   UNK N   1      27.000  20.555   6.301  0.00  0.00     0.050 A 
HETATM   32  C   UNK N   1      27.053  20.734   4.903  0.00  0.00     0.113 A 
HETATM   33 Cl   UNK N   1      26.082  21.662   7.301  0.00  0.00    -0.083 Cl
ATOM     34  HN  UNK N   1      27.819  20.001   3.114  1.00  0.00     0.166 HD
ENDBRANCH  22  23
ENDBRANCH   7  22
TORSDOF 6
ENDMDL
MODEL 7
REMARK VINA RESULT:      -8.0      6.246     11.095
REMARK  6 active torsions:
REMARK  status: ('A' for Active; 'I' for Inactive)
REMARK    1  A    between atoms: C_3  and  N_20 
REMARK    2  A    between atoms: C_7  and  C_8 
REMARK    3  A    between atoms: C_8  and  C_9 
REMARK    4  A    between atoms: N_20  and  C_21 
REMARK    5  A    between atoms: C_21  and  C_22 
REMARK    6  A    between atoms: C_25  and  C_29 
ROOT
HETATM    1  C   UNK N   1      34.363  17.258   8.835  0.00  0.00     0.012 A 
HETATM    2  C   UNK N   1      33.242  17.236   8.003  0.00  0.00     0.049 A 
HETATM    3  C   UNK N   1      32.291  16.228   8.175  0.00  0.00     0.101 A 
HETATM    4  N   UNK N   1      32.503  15.239   9.088  0.00  0.00    -0.352 N 
ATOM      5  HN  UNK N   1      31.816  14.490   9.177  1.00  0.00     0.166 HD
HETATM    6  C   UNK N   1      33.602  15.224   9.879  0.00  0.00     0.097 A 
HETATM    7  C   UNK N   1      34.522  16.267   9.807  0.00  0.00    -0.038 A 
ENDROOT
BRANCH   3   8
HETATM    8  N   UNK N   1      31.027  16.349   7.564  0.00  0.00    -0.372 N 
HETATM    9  H   UNK N   1      30.841  15.941   6.687  0.00  0.00     0.161 HD
BRANCH   8  10
HETATM   10  C   UNK N   1      30.017  17.094   8.274  0.00  0.00     0.161 C 
BRANCH  10  11
HETATM   11  C   UNK N   1      29.115  17.901   7.418  0.00  0.00    -0.025 A 
HETATM   12  C   UNK N   1      29.105  17.807   6.023  0.00  0.00     0.012 A 
HETATM   13  C   UNK N   1      28.273  18.649   5.284  0.00  0.00     0.035 A 
HETATM   14  C   UNK N   1      27.457  19.573   5.954  0.00  0.00     0.116 A 
HETATM   15  N   UNK N   1      27.473  19.630   7.314  0.00  0.00    -0.361 N 
HETATM   16  C   UNK N   1      28.281  18.824   8.047  0.00  0.00     0.097 A 
ATOM     17  HN  UNK N   1      26.864  20.294   7.792  1.00  0.00     0.165 HD
BRANCH  14  18
HETATM   18  C   UNK N   1      26.596  20.517   5.180  0.00  0.00     0.432 C 
HETATM   19  F   UNK N   1      25.301  20.036   5.159  0.00  0.00    -0.165 F 
HETATM   20  F   UNK N   1      27.052  20.631   3.878  0.00  0.00    -0.165 F 
HETATM   21  F   UNK N   1      26.614  21.765   5.774  0.00  0.00    -0.165 F 
ENDBRANCH  14  18
ENDBRANCH  10  11
ENDBRANCH   8  10
ENDBRANCH   3   8
BRANCH   7  22
HETATM   22  C   UNK N   1      35.580  16.408  10.845  0.00  0.00     0.081 C 
BRANCH  22  23
HETATM   23  C   UNK N   1      36.381  15.135  11.061  0.00  0.00    -0.024 A 
HETATM   24  C   UNK N   1      37.323  14.664  10.148  0.00  0.00     0.098 A 
HETATM   25  N   UNK N   1      37.885  13.517  10.610  0.00  0.00    -0.351 N 
HETATM   26  C   UNK N   1      37.303  13.267  11.795  0.00  0.00     0.116 A 
HETATM   27  H   UNK N   1      38.580  12.978  10.165  0.00  0.00     0.166 HD
HETATM   28  C   UNK N   1      36.385  14.222  12.111  0.00  0.00     0.018 A 
HETATM   29  N   UNK N   1      37.566  12.206  12.597  0.00  0.00    -0.350 N 
HETATM   30  C   UNK N   1      35.668  14.130  13.305  0.00  0.00     0.041 A 
HETATM   31  C   UNK N   1      35.917  13.036  14.147  0.00  0.00     0.050 A 
HETATM   32  C   UNK N   1      36.880  12.075  13.773  0.00  0.00     0.113 A 
HETATM   33 Cl   UNK N   1      35.023  12.860  15.643  0.00  0.00    -0.083 Cl
ATOM     34  HN  UNK N   1      38.265  11.516  12.327  1.00  0.00     0.166 HD
ENDBRANCH  22  23
ENDBRANCH   7  22
TORSDOF 6
ENDMDL
MODEL 8
REMARK VINA RESULT:      -8.0      8.168     12.718
REMARK  6 active torsions:
REMARK  status: ('A' for Active; 'I' for Inactive)
REMARK    1  A    between atoms: C_3  and  N_20 
REMARK    2  A    between atoms: C_7  and  C_8 
REMARK    3  A    between atoms: C_8  and  C_9 
REMARK    4  A    between atoms: N_20  and  C_21 
REMARK    5  A    between atoms: C_21  and  C_22 
REMARK    6  A    between atoms: C_25  and  C_29 
ROOT
HETATM    1  C   UNK N   1      27.901  19.196   6.025  0.00  0.00     0.012 A 
HETATM    2  C   UNK N   1      27.278  19.858   4.966  0.00  0.00     0.049 A 
HETATM    3  C   UNK N   1      26.726  19.106   3.927  0.00  0.00     0.101 A 
HETATM    4  N   UNK N   1      26.871  17.751   3.915  0.00  0.00    -0.352 N 
ATOM      5  HN  UNK N   1      26.493  17.218   3.132  1.00  0.00     0.166 HD
HETATM    6  C   UNK N   1      27.505  17.094   4.916  0.00  0.00     0.097 A 
HETATM    7  C   UNK N   1      27.978  17.801   6.018  0.00  0.00    -0.038 A 
ENDROOT
BRANCH   3   8
HETATM    8  N   UNK N   1      25.845  19.718   3.013  0.00  0.00    -0.372 N 
HETATM    9  H   UNK N   1      25.969  19.623   2.041  0.00  0.00     0.161 HD
BRANCH   8  10
HETATM   10  C   UNK N   1      24.755  20.488   3.559  0.00  0.00     0.161 C 
BRANCH  10  11
HETATM   11  C   UNK N   1      23.419  19.856   3.438  0.00  0.00    -0.025 A 
HETATM   12  C   UNK N   1      23.096  18.639   4.044  0.00  0.00     0.012 A 
HETATM   13  C   UNK N   1      21.837  18.077   3.828  0.00  0.00     0.035 A 
HETATM   14  C   UNK N   1      20.915  18.746   3.010  0.00  0.00     0.116 A 
HETATM   15  N   UNK N   1      21.250  19.940   2.448  0.00  0.00    -0.361 N 
HETATM   16  C   UNK N   1      22.471  20.497   2.642  0.00  0.00     0.097 A 
ATOM     17  HN  UNK N   1      20.566  20.427   1.868  1.00  0.00     0.165 HD
BRANCH  14  18
HETATM   18  C   UNK N   1      19.580  18.138   2.726  0.00  0.00     0.432 C 
HETATM   19  F   UNK N   1      19.628  17.490   1.506  0.00  0.00    -0.165 F 
HETATM   20  F   UNK N   1      18.604  19.117   2.674  0.00  0.00    -0.165 F 
HETATM   21  F   UNK N   1      19.256  17.230   3.716  0.00  0.00    -0.165 F 
ENDBRANCH  14  18
ENDBRANCH  10  11
ENDBRANCH   8  10
ENDBRANCH   3   8
BRANCH   7  22
HETATM   22  C   UNK N   1      28.428  17.076   7.238  0.00  0.00     0.081 C 
BRANCH  22  23
HETATM   23  C   UNK N   1      29.896  17.298   7.562  0.00  0.00    -0.024 A 
HETATM   24  C   UNK N   1      30.358  17.575   8.847  0.00  0.00     0.098 A 
HETATM   25  N   UNK N   1      31.709  17.715   8.835  0.00  0.00    -0.351 N 
HETATM   26  C   UNK N   1      32.091  17.533   7.559  0.00  0.00     0.116 A 
HETATM   27  H   UNK N   1      32.290  17.911   9.605  0.00  0.00     0.166 HD
HETATM   28  C   UNK N   1      31.026  17.275   6.751  0.00  0.00     0.018 A 
HETATM   29  N   UNK N   1      33.365  17.595   7.099  0.00  0.00    -0.350 N 
HETATM   30  C   UNK N   1      31.223  17.065   5.385  0.00  0.00     0.041 A 
HETATM   31  C   UNK N   1      32.532  17.133   4.885  0.00  0.00     0.050 A 
HETATM   32  C   UNK N   1      33.601  17.402   5.765  0.00  0.00     0.113 A 
HETATM   33 Cl   UNK N   1      32.829  16.905   3.174  0.00  0.00    -0.083 Cl
ATOM     34  HN  UNK N   1      34.136  17.785   7.738  1.00  0.00     0.166 HD
ENDBRANCH  22  23
ENDBRANCH   7  22
TORSDOF 6
ENDMDL
MODEL 9
REMARK VINA RESULT:      -8.0      1.846      2.283
REMARK  6 active torsions:
REMARK  status: ('A' for Active; 'I' for Inactive)
REMARK    1  A    between atoms: C_3  and  N_20 
REMARK    2  A    between atoms: C_7  and  C_8 
REMARK    3  A    between atoms: C_8  and  C_9 
REMARK    4  A    between atoms: N_20  and  C_21 
REMARK    5  A    between atoms: C_21  and  C_22 
REMARK    6  A    between atoms: C_25  and  C_29 
ROOT
HETATM    1  C   UNK N   1      31.866  16.203   8.740  0.00  0.00     0.012 A 
HETATM    2  C   UNK N   1      32.904  15.274   8.824  0.00  0.00     0.049 A 
HETATM    3  C   UNK N   1      34.222  15.716   8.692  0.00  0.00     0.101 A 
HETATM    4  N   UNK N   1      34.476  17.024   8.403  0.00  0.00    -0.352 N 
ATOM      5  HN  UNK N   1      35.442  17.325   8.275  1.00  0.00     0.166 HD
HETATM    6  C   UNK N   1      33.479  17.933   8.282  0.00  0.00     0.097 A 
HETATM    7  C   UNK N   1      32.160  17.549   8.508  0.00  0.00    -0.038 A 
ENDROOT
BRANCH   3   8
HETATM    8  N   UNK N   1      35.284  14.868   9.063  0.00  0.00    -0.372 N 
HETATM    9  H   UNK N   1      36.217  15.084   8.832  0.00  0.00     0.161 HD
BRANCH   8  10
HETATM   10  C   UNK N   1      34.950  13.672   9.796  0.00  0.00     0.161 C 
BRANCH  10  11
HETATM   11  C   UNK N   1      35.294  13.704  11.239  0.00  0.00    -0.025 A 
HETATM   12  C   UNK N   1      35.857  14.822  11.861  0.00  0.00     0.012 A 
HETATM   13  C   UNK N   1      36.214  14.750  13.208  0.00  0.00     0.035 A 
HETATM   14  C   UNK N   1      35.996  13.559  13.916  0.00  0.00     0.116 A 
HETATM   15  N   UNK N   1      35.428  12.492  13.289  0.00  0.00    -0.361 N 
HETATM   16  C   UNK N   1      35.082  12.542  11.979  0.00  0.00     0.097 A 
ATOM     17  HN  UNK N   1      35.259  11.636  13.818  1.00  0.00     0.165 HD
BRANCH  14  18
HETATM   18  C   UNK N   1      36.416  13.446  15.346  0.00  0.00     0.432 C 
HETATM   19  F   UNK N   1      37.334  14.439  15.629  0.00  0.00    -0.165 F 
HETATM   20  F   UNK N   1      37.003  12.214  15.581  0.00  0.00    -0.165 F 
HETATM   21  F   UNK N   1      35.317  13.586  16.172  0.00  0.00    -0.165 F 
ENDBRANCH  14  18
ENDBRANCH  10  11
ENDBRANCH   8  10
ENDBRANCH   3   8
BRANCH   7  22
HETATM   22  C   UNK N   1      31.092  18.577   8.647  0.00  0.00     0.081 C 
BRANCH  22  23
HETATM   23  C   UNK N   1      29.695  18.026   8.420  0.00  0.00    -0.024 A 
HETATM   24  C   UNK N   1      28.758  17.882   9.441  0.00  0.00     0.098 A 
HETATM   25  N   UNK N   1      27.600  17.376   8.942  0.00  0.00    -0.351 N 
HETATM   26  C   UNK N   1      27.806  17.201   7.625  0.00  0.00     0.116 A 
HETATM   27  H   UNK N   1      26.776  17.179   9.444  0.00  0.00     0.166 HD
HETATM   28  C   UNK N   1      29.062  17.583   7.262  0.00  0.00     0.018 A 
HETATM   29  N   UNK N   1      26.904  16.705   6.743  0.00  0.00    -0.350 N 
HETATM   30  C   UNK N   1      29.467  17.468   5.931  0.00  0.00     0.041 A 
HETATM   31  C   UNK N   1      28.553  16.949   5.001  0.00  0.00     0.050 A 
HETATM   32  C   UNK N   1      27.263  16.570   5.430  0.00  0.00     0.113 A 
HETATM   33 Cl   UNK N   1      29.022  16.758   3.325  0.00  0.00    -0.083 Cl
ATOM     34  HN  UNK N   1      25.972  16.436   7.054  1.00  0.00     0.166 HD
ENDBRANCH  22  23
ENDBRANCH   7  22
TORSDOF 6
ENDMDL
