MODEL 1
REMARK VINA RESULT:      -8.3      0.000      0.000
REMARK  8 active torsions:
REMARK  status: ('A' for Active; 'I' for Inactive)
REMARK    1  A    between atoms: C_16  and  C_9 
REMARK    2  A    between atoms: C_17  and  C_9 
REMARK    3  A    between atoms: N_30  and  C_16 
REMARK    4  A    between atoms: N_32  and  C_17 
REMARK    5  A    between atoms: C_26  and  C_22 
REMARK    6  A    between atoms: C_26  and  C_23 
REMARK    7  A    between atoms: N_31  and  C_26 
REMARK    8  A    between atoms: O_33  and  C_27 
ROOT
HETATM    1  C   UNK N   1      34.511  14.872   7.252  0.00  0.00     0.147 C 
HETATM    2  C   UNK N   1      33.729  15.899   9.387  0.00  0.00     0.147 C 
HETATM    3  C   UNK N   1      33.079  14.331   7.066  0.00  0.00     0.293 C 
HETATM    4  C   UNK N   1      32.403  15.177   9.160  0.00  0.00     0.293 C 
HETATM    5  N   UNK N   1      34.819  15.284   8.630  0.00  0.00    -0.409 N 
HETATM    6  N   UNK N   1      32.056  15.146   7.740  0.00  0.00     0.104 N 
ENDROOT
BRANCH   5   7
HETATM    7  C   UNK N   1      35.639  14.367   9.429  0.00  0.00     0.118 C 
BRANCH   7   8
HETATM    8  C   UNK N   1      35.841  14.791  10.881  0.00  0.00     0.040 C 
BRANCH   8   9
HETATM    9  C   UNK N   1      36.742  13.845  11.667  0.00  0.00     0.134 C 
BRANCH   9  10
HETATM   10  N   UNK N   1      36.163  13.446  12.948  0.00  0.00    -0.311 N 
HETATM   11  C   UNK N   1      35.341  12.416  13.209  0.00  0.00     0.064 A 
HETATM   12  C   UNK N   1      34.850  11.441  12.344  0.00  0.00     0.032 A 
HETATM   13  C   UNK N   1      35.003  12.447  14.532  0.00  0.00     0.062 A 
HETATM   14  C   UNK N   1      33.983  10.472  12.886  0.00  0.00     0.002 A 
HETATM   15  C   UNK N   1      33.631  10.508  14.257  0.00  0.00     0.002 A 
HETATM   16  C   UNK N   1      34.147  11.512  15.100  0.00  0.00     0.032 A 
HETATM   17  N   UNK N   1      35.601  13.491  15.136  0.00  0.00    -0.320 N 
HETATM   18  C   UNK N   1      36.302  14.082  14.136  0.00  0.00     0.224 A 
ATOM     19  HN  UNK N   1      35.542  13.772  16.114  1.00  0.00     0.169 HD
BRANCH  18  20
HETATM   20  O   UNK N   1      37.034  15.195  14.312  0.00  0.00    -0.332 OA
HETATM   21  H   UNK N   1      36.739  15.860  14.902  0.00  0.00     0.221 HD
ENDBRANCH  18  20
ENDBRANCH   9  10
ENDBRANCH   8   9
ENDBRANCH   7   8
ENDBRANCH   5   7
BRANCH   6  22
HETATM   22  C   UNK N   1      31.819  16.519   7.208  0.00  0.00     0.289 C 
BRANCH  22  23
HETATM   23  C   UNK N   1      30.650  17.208   7.930  0.00  0.00    -0.021 A 
HETATM   24  C   UNK N   1      29.332  16.867   7.581  0.00  0.00     0.010 A 
HETATM   25  C   UNK N   1      28.240  17.480   8.203  0.00  0.00     0.001 A 
HETATM   26  C   UNK N   1      28.451  18.441   9.192  0.00  0.00     0.000 A 
HETATM   27  C   UNK N   1      29.752  18.788   9.558  0.00  0.00     0.001 A 
HETATM   28  C   UNK N   1      30.842  18.177   8.930  0.00  0.00     0.010 A 
ENDBRANCH  22  23
BRANCH  22  29
HETATM   29  C   UNK N   1      31.894  16.637   5.682  0.00  0.00    -0.021 A 
HETATM   30  C   UNK N   1      30.963  16.025   4.826  0.00  0.00     0.010 A 
HETATM   31  C   UNK N   1      31.048  16.188   3.440  0.00  0.00     0.001 A 
HETATM   32  C   UNK N   1      32.069  16.964   2.890  0.00  0.00     0.000 A 
HETATM   33  C   UNK N   1      32.997  17.584   3.726  0.00  0.00     0.001 A 
HETATM   34  C   UNK N   1      32.902  17.429   5.110  0.00  0.00     0.010 A 
ENDBRANCH  22  29
ENDBRANCH   6  22
TORSDOF 8
ENDMDL
MODEL 2
REMARK VINA RESULT:      -8.0      1.237      2.226
REMARK  8 active torsions:
REMARK  status: ('A' for Active; 'I' for Inactive)
REMARK    1  A    between atoms: C_16  and  C_9 
REMARK    2  A    between atoms: C_17  and  C_9 
REMARK    3  A    between atoms: N_30  and  C_16 
REMARK    4  A    between atoms: N_32  and  C_17 
REMARK    5  A    between atoms: C_26  and  C_22 
REMARK    6  A    between atoms: C_26  and  C_23 
REMARK    7  A    between atoms: N_31  and  C_26 
REMARK    8  A    between atoms: O_33  and  C_27 
ROOT
HETATM    1  C   UNK N   1      34.527  14.920   7.160  0.00  0.00     0.147 C 
HETATM    2  C   UNK N   1      33.819  15.962   9.313  0.00  0.00     0.147 C 
HETATM    3  C   UNK N   1      33.093  14.370   7.032  0.00  0.00     0.293 C 
HETATM    4  C   UNK N   1      32.489  15.230   9.142  0.00  0.00     0.293 C 
HETATM    5  N   UNK N   1      34.883  15.346   8.523  0.00  0.00    -0.409 N 
HETATM    6  N   UNK N   1      32.091  15.185   7.737  0.00  0.00     0.104 N 
ENDROOT
BRANCH   5   7
HETATM    7  C   UNK N   1      35.738  14.440   9.299  0.00  0.00     0.118 C 
BRANCH   7   8
HETATM    8  C   UNK N   1      35.912  14.827  10.765  0.00  0.00     0.040 C 
BRANCH   8   9
HETATM    9  C   UNK N   1      36.647  13.772  11.584  0.00  0.00     0.134 C 
BRANCH   9  10
HETATM   10  N   UNK N   1      35.805  13.170  12.615  0.00  0.00    -0.311 N 
HETATM   11  C   UNK N   1      35.845  13.361  13.944  0.00  0.00     0.064 A 
HETATM   12  C   UNK N   1      36.672  14.200  14.688  0.00  0.00     0.032 A 
HETATM   13  C   UNK N   1      34.911  12.557  14.533  0.00  0.00     0.062 A 
HETATM   14  C   UNK N   1      36.509  14.196  16.086  0.00  0.00     0.002 A 
HETATM   15  C   UNK N   1      35.543  13.359  16.696  0.00  0.00     0.002 A 
HETATM   16  C   UNK N   1      34.727  12.522  15.910  0.00  0.00     0.032 A 
HETATM   17  N   UNK N   1      34.260  11.843  13.596  0.00  0.00    -0.320 N 
HETATM   18  C   UNK N   1      34.834  12.242  12.433  0.00  0.00     0.224 A 
ATOM     19  HN  UNK N   1      33.513  11.163  13.728  1.00  0.00     0.169 HD
BRANCH  18  20
HETATM   20  O   UNK N   1      34.485  11.745  11.235  0.00  0.00    -0.332 OA
HETATM   21  H   UNK N   1      35.100  11.750  10.529  0.00  0.00     0.221 HD
ENDBRANCH  18  20
ENDBRANCH   9  10
ENDBRANCH   8   9
ENDBRANCH   7   8
ENDBRANCH   5   7
BRANCH   6  22
HETATM   22  C   UNK N   1      31.826  16.552   7.201  0.00  0.00     0.289 C 
BRANCH  22  23
HETATM   23  C   UNK N   1      30.619  17.204   7.895  0.00  0.00    -0.021 A 
HETATM   24  C   UNK N   1      30.841  18.140   8.919  0.00  0.00     0.010 A 
HETATM   25  C   UNK N   1      29.771  18.747   9.584  0.00  0.00     0.001 A 
HETATM   26  C   UNK N   1      28.460  18.430   9.230  0.00  0.00     0.000 A 
HETATM   27  C   UNK N   1      28.220  17.507   8.210  0.00  0.00     0.001 A 
HETATM   28  C   UNK N   1      29.292  16.899   7.550  0.00  0.00     0.010 A 
ENDBRANCH  22  23
BRANCH  22  29
HETATM   29  C   UNK N   1      31.937  16.676   5.677  0.00  0.00    -0.021 A 
HETATM   30  C   UNK N   1      32.898  17.485   5.049  0.00  0.00     0.010 A 
HETATM   31  C   UNK N   1      32.987  17.542   3.655  0.00  0.00     0.001 A 
HETATM   32  C   UNK N   1      32.113  16.791   2.869  0.00  0.00     0.000 A 
HETATM   33  C   UNK N   1      31.156  15.977   3.477  0.00  0.00     0.001 A 
HETATM   34  C   UNK N   1      31.079  15.914   4.869  0.00  0.00     0.010 A 
ENDBRANCH  22  29
ENDBRANCH   6  22
TORSDOF 8
ENDMDL
MODEL 3
REMARK VINA RESULT:      -7.9      2.402      9.744
REMARK  8 active torsions:
REMARK  status: ('A' for Active; 'I' for Inactive)
REMARK    1  A    between atoms: C_16  and  C_9 
REMARK    2  A    between atoms: C_17  and  C_9 
REMARK    3  A    between atoms: N_30  and  C_16 
REMARK    4  A    between atoms: N_32  and  C_17 
REMARK    5  A    between atoms: C_26  and  C_22 
REMARK    6  A    between atoms: C_26  and  C_23 
REMARK    7  A    between atoms: N_31  and  C_26 
REMARK    8  A    between atoms: O_33  and  C_27 
ROOT
HETATM    1  C   UNK N   1      36.481  14.090  12.275  0.00  0.00     0.147 C 
HETATM    2  C   UNK N   1      36.942  11.653  12.004  0.00  0.00     0.147 C 
HETATM    3  C   UNK N   1      35.220  13.695  13.069  0.00  0.00     0.293 C 
HETATM    4  C   UNK N   1      35.589  11.401  12.668  0.00  0.00     0.293 C 
HETATM    5  N   UNK N   1      37.032  13.003  11.450  0.00  0.00    -0.409 N 
HETATM    6  N   UNK N   1      35.330  12.380  13.722  0.00  0.00     0.104 N 
ENDROOT
BRANCH   5   7
HETATM    7  C   UNK N   1      36.762  13.063  10.009  0.00  0.00     0.118 C 
BRANCH   7   8
HETATM    8  C   UNK N   1      35.402  13.650   9.639  0.00  0.00     0.040 C 
BRANCH   8   9
HETATM    9  C   UNK N   1      35.479  14.698   8.534  0.00  0.00     0.134 C 
BRANCH   9  10
HETATM   10  N   UNK N   1      34.461  15.738   8.670  0.00  0.00    -0.311 N 
HETATM   11  C   UNK N   1      33.270  15.826   8.055  0.00  0.00     0.064 A 
HETATM   12  C   UNK N   1      32.676  14.943   7.155  0.00  0.00     0.032 A 
HETATM   13  C   UNK N   1      32.662  16.988   8.437  0.00  0.00     0.062 A 
HETATM   14  C   UNK N   1      31.410  15.292   6.646  0.00  0.00     0.002 A 
HETATM   15  C   UNK N   1      30.784  16.499   7.040  0.00  0.00     0.002 A 
HETATM   16  C   UNK N   1      31.417  17.367   7.951  0.00  0.00     0.032 A 
HETATM   17  N   UNK N   1      33.450  17.658   9.298  0.00  0.00    -0.320 N 
HETATM   18  C   UNK N   1      34.543  16.864   9.418  0.00  0.00     0.224 A 
ATOM     19  HN  UNK N   1      33.268  18.552   9.755  1.00  0.00     0.169 HD
BRANCH  18  20
HETATM   20  O   UNK N   1      35.602  17.184  10.181  0.00  0.00    -0.332 OA
HETATM   21  H   UNK N   1      35.476  17.646  10.986  0.00  0.00     0.221 HD
ENDBRANCH  18  20
ENDBRANCH   9  10
ENDBRANCH   8   9
ENDBRANCH   7   8
ENDBRANCH   5   7
BRANCH   6  22
HETATM   22  C   UNK N   1      36.313  12.253  14.837  0.00  0.00     0.289 C 
BRANCH  22  23
HETATM   23  C   UNK N   1      36.375  10.813  15.371  0.00  0.00    -0.021 A 
HETATM   24  C   UNK N   1      37.597  10.119  15.329  0.00  0.00     0.010 A 
HETATM   25  C   UNK N   1      37.693   8.803  15.792  0.00  0.00     0.001 A 
HETATM   26  C   UNK N   1      36.569   8.162  16.311  0.00  0.00     0.000 A 
HETATM   27  C   UNK N   1      35.349   8.837  16.368  0.00  0.00     0.001 A 
HETATM   28  C   UNK N   1      35.254  10.151  15.899  0.00  0.00     0.010 A 
ENDBRANCH  22  23
BRANCH  22  29
HETATM   29  C   UNK N   1      36.280  13.399  15.854  0.00  0.00    -0.021 A 
HETATM   30  C   UNK N   1      35.428  13.398  16.971  0.00  0.00     0.010 A 
HETATM   31  C   UNK N   1      35.455  14.447  17.894  0.00  0.00     0.001 A 
HETATM   32  C   UNK N   1      36.335  15.515  17.712  0.00  0.00     0.000 A 
HETATM   33  C   UNK N   1      37.192  15.528  16.611  0.00  0.00     0.001 A 
HETATM   34  C   UNK N   1      37.170  14.472  15.698  0.00  0.00     0.010 A 
ENDBRANCH  22  29
ENDBRANCH   6  22
TORSDOF 8
ENDMDL
MODEL 4
REMARK VINA RESULT:      -7.7      6.791      9.269
REMARK  8 active torsions:
REMARK  status: ('A' for Active; 'I' for Inactive)
REMARK    1  A    between atoms: C_16  and  C_9 
REMARK    2  A    between atoms: C_17  and  C_9 
REMARK    3  A    between atoms: N_30  and  C_16 
REMARK    4  A    between atoms: N_32  and  C_17 
REMARK    5  A    between atoms: C_26  and  C_22 
REMARK    6  A    between atoms: C_26  and  C_23 
REMARK    7  A    between atoms: N_31  and  C_26 
REMARK    8  A    between atoms: O_33  and  C_27 
ROOT
HETATM    1  C   UNK N   1      28.274  14.289   5.178  0.00  0.00     0.147 C 
HETATM    2  C   UNK N   1      26.377  15.862   5.568  0.00  0.00     0.147 C 
HETATM    3  C   UNK N   1      28.704  15.203   4.013  0.00  0.00     0.293 C 
HETATM    4  C   UNK N   1      26.818  16.589   4.299  0.00  0.00     0.293 C 
HETATM    5  N   UNK N   1      26.883  14.491   5.612  0.00  0.00    -0.409 N 
HETATM    6  N   UNK N   1      28.275  16.601   4.179  0.00  0.00     0.104 N 
ENDROOT
BRANCH   5   7
HETATM    7  C   UNK N   1      25.901  13.492   5.177  0.00  0.00     0.118 C 
BRANCH   7   8
HETATM    8  C   UNK N   1      25.222  12.728   6.310  0.00  0.00     0.040 C 
BRANCH   8   9
HETATM    9  C   UNK N   1      25.161  13.513   7.615  0.00  0.00     0.134 C 
BRANCH   9  10
HETATM   10  N   UNK N   1      23.794  13.712   8.092  0.00  0.00    -0.311 N 
HETATM   11  C   UNK N   1      23.190  13.152   9.153  0.00  0.00     0.064 A 
HETATM   12  C   UNK N   1      23.707  12.263  10.093  0.00  0.00     0.032 A 
HETATM   13  C   UNK N   1      21.893  13.580   9.198  0.00  0.00     0.062 A 
HETATM   14  C   UNK N   1      22.839  11.817  11.109  0.00  0.00     0.002 A 
HETATM   15  C   UNK N   1      21.494  12.259  11.151  0.00  0.00     0.002 A 
HETATM   16  C   UNK N   1      21.007  13.155  10.181  0.00  0.00     0.032 A 
HETATM   17  N   UNK N   1      21.649  14.417   8.173  0.00  0.00    -0.320 N 
HETATM   18  C   UNK N   1      22.834  14.474   7.516  0.00  0.00     0.224 A 
ATOM     19  HN  UNK N   1      20.778  14.896   7.944  1.00  0.00     0.169 HD
BRANCH  18  20
HETATM   20  O   UNK N   1      23.018  15.195   6.397  0.00  0.00    -0.332 OA
HETATM   21  H   UNK N   1      23.506  15.994   6.430  0.00  0.00     0.221 HD
ENDBRANCH  18  20
ENDBRANCH   9  10
ENDBRANCH   8   9
ENDBRANCH   7   8
ENDBRANCH   5   7
BRANCH   6  22
HETATM   22  C   UNK N   1      28.906  17.380   5.283  0.00  0.00     0.289 C 
BRANCH  22  23
HETATM   23  C   UNK N   1      28.203  18.730   5.492  0.00  0.00    -0.021 A 
HETATM   24  C   UNK N   1      27.854  19.502   4.371  0.00  0.00     0.010 A 
HETATM   25  C   UNK N   1      27.225  20.743   4.517  0.00  0.00     0.001 A 
HETATM   26  C   UNK N   1      26.928  21.228   5.791  0.00  0.00     0.000 A 
HETATM   27  C   UNK N   1      27.260  20.472   6.917  0.00  0.00     0.001 A 
HETATM   28  C   UNK N   1      27.893  19.234   6.767  0.00  0.00     0.010 A 
ENDBRANCH  22  23
BRANCH  22  29
HETATM   29  C   UNK N   1      30.439  17.356   5.289  0.00  0.00    -0.021 A 
HETATM   30  C   UNK N   1      31.208  17.655   4.152  0.00  0.00     0.010 A 
HETATM   31  C   UNK N   1      32.605  17.656   4.212  0.00  0.00     0.001 A 
HETATM   32  C   UNK N   1      33.253  17.356   5.411  0.00  0.00     0.000 A 
HETATM   33  C   UNK N   1      32.504  17.065   6.551  0.00  0.00     0.001 A 
HETATM   34  C   UNK N   1      31.109  17.076   6.490  0.00  0.00     0.010 A 
ENDBRANCH  22  29
ENDBRANCH   6  22
TORSDOF 8
ENDMDL
MODEL 5
REMARK VINA RESULT:      -7.7      6.658      9.757
REMARK  8 active torsions:
REMARK  status: ('A' for Active; 'I' for Inactive)
REMARK    1  A    between atoms: C_16  and  C_9 
REMARK    2  A    between atoms: C_17  and  C_9 
REMARK    3  A    between atoms: N_30  and  C_16 
REMARK    4  A    between atoms: N_32  and  C_17 
REMARK    5  A    between atoms: C_26  and  C_22 
REMARK    6  A    between atoms: C_26  and  C_23 
REMARK    7  A    between atoms: N_31  and  C_26 
REMARK    8  A    between atoms: O_33  and  C_27 
ROOT
HETATM    1  C   UNK N   1      26.186  15.888   5.106  0.00  0.00     0.147 C 
HETATM    2  C   UNK N   1      28.128  14.673   4.118  0.00  0.00     0.147 C 
HETATM    3  C   UNK N   1      27.048  16.104   6.366  0.00  0.00     0.293 C 
HETATM    4  C   UNK N   1      28.813  14.820   5.475  0.00  0.00     0.293 C 
HETATM    5  N   UNK N   1      26.677  14.818   4.224  0.00  0.00    -0.409 N 
HETATM    6  N   UNK N   1      28.494  16.107   6.089  0.00  0.00     0.104 N 
ENDROOT
BRANCH   5   7
HETATM    7  C   UNK N   1      25.964  13.536   4.276  0.00  0.00     0.118 C 
BRANCH   7   8
HETATM    8  C   UNK N   1      25.621  13.053   5.682  0.00  0.00     0.040 C 
BRANCH   8   9
HETATM    9  C   UNK N   1      24.210  12.486   5.797  0.00  0.00     0.134 C 
BRANCH   9  10
HETATM   10  N   UNK N   1      23.394  13.198   6.778  0.00  0.00    -0.311 N 
HETATM   11  C   UNK N   1      23.087  12.832   8.033  0.00  0.00     0.064 A 
HETATM   12  C   UNK N   1      23.486  11.702   8.743  0.00  0.00     0.032 A 
HETATM   13  C   UNK N   1      22.255  13.771   8.575  0.00  0.00     0.062 A 
HETATM   14  C   UNK N   1      23.001  11.558  10.057  0.00  0.00     0.002 A 
HETATM   15  C   UNK N   1      22.135  12.529  10.615  0.00  0.00     0.002 A 
HETATM   16  C   UNK N   1      21.751  13.658   9.865  0.00  0.00     0.032 A 
HETATM   17  N   UNK N   1      22.018  14.747   7.680  0.00  0.00    -0.320 N 
HETATM   18  C   UNK N   1      22.729  14.364   6.590  0.00  0.00     0.224 A 
ATOM     19  HN  UNK N   1      21.440  15.580   7.793  1.00  0.00     0.169 HD
BRANCH  18  20
HETATM   20  O   UNK N   1      22.747  15.063   5.443  0.00  0.00    -0.332 OA
HETATM   21  H   UNK N   1      21.987  15.539   5.173  0.00  0.00     0.221 HD
ENDBRANCH  18  20
ENDBRANCH   9  10
ENDBRANCH   8   9
ENDBRANCH   7   8
ENDBRANCH   5   7
BRANCH   6  22
HETATM   22  C   UNK N   1      29.031  17.242   5.285  0.00  0.00     0.289 C 
BRANCH  22  23
HETATM   23  C   UNK N   1      30.565  17.310   5.362  0.00  0.00    -0.021 A 
HETATM   24  C   UNK N   1      31.303  17.478   4.178  0.00  0.00     0.010 A 
HETATM   25  C   UNK N   1      32.700  17.532   4.202  0.00  0.00     0.001 A 
HETATM   26  C   UNK N   1      33.381  17.424   5.414  0.00  0.00     0.000 A 
HETATM   27  C   UNK N   1      32.665  17.265   6.602  0.00  0.00     0.001 A 
HETATM   28  C   UNK N   1      31.268  17.207   6.573  0.00  0.00     0.010 A 
ENDBRANCH  22  23
BRANCH  22  29
HETATM   29  C   UNK N   1      28.244  18.551   5.417  0.00  0.00    -0.021 A 
HETATM   30  C   UNK N   1      28.078  19.218   6.642  0.00  0.00     0.010 A 
HETATM   31  C   UNK N   1      27.382  20.428   6.711  0.00  0.00     0.001 A 
HETATM   32  C   UNK N   1      26.839  20.988   5.555  0.00  0.00     0.000 A 
HETATM   33  C   UNK N   1      27.000  20.343   4.329  0.00  0.00     0.001 A 
HETATM   34  C   UNK N   1      27.706  19.140   4.262  0.00  0.00     0.010 A 
ENDBRANCH  22  29
ENDBRANCH   6  22
TORSDOF 8
ENDMDL
MODEL 6
REMARK VINA RESULT:      -7.6      2.745     10.053
REMARK  8 active torsions:
REMARK  status: ('A' for Active; 'I' for Inactive)
REMARK    1  A    between atoms: C_16  and  C_9 
REMARK    2  A    between atoms: C_17  and  C_9 
REMARK    3  A    between atoms: N_30  and  C_16 
REMARK    4  A    between atoms: N_32  and  C_17 
REMARK    5  A    between atoms: C_26  and  C_22 
REMARK    6  A    between atoms: C_26  and  C_23 
REMARK    7  A    between atoms: N_31  and  C_26 
REMARK    8  A    between atoms: O_33  and  C_27 
ROOT
HETATM    1  C   UNK N   1      35.849  14.791  12.311  0.00  0.00     0.147 C 
HETATM    2  C   UNK N   1      37.115  12.829  11.431  0.00  0.00     0.147 C 
HETATM    3  C   UNK N   1      34.933  13.788  13.040  0.00  0.00     0.293 C 
HETATM    4  C   UNK N   1      36.045  11.948  12.074  0.00  0.00     0.293 C 
HETATM    5  N   UNK N   1      36.638  14.195  11.221  0.00  0.00    -0.409 N 
HETATM    6  N   UNK N   1      35.595  12.510  13.346  0.00  0.00     0.104 N 
ENDROOT
BRANCH   5   7
HETATM    7  C   UNK N   1      36.174  14.448   9.852  0.00  0.00     0.118 C 
BRANCH   7   8
HETATM    8  C   UNK N   1      34.826  15.158   9.756  0.00  0.00     0.040 C 
BRANCH   8   9
HETATM    9  C   UNK N   1      34.883  16.454   8.955  0.00  0.00     0.134 C 
BRANCH   9  10
HETATM   10  N   UNK N   1      34.088  16.396   7.730  0.00  0.00    -0.311 N 
HETATM   11  C   UNK N   1      32.798  16.725   7.555  0.00  0.00     0.064 A 
HETATM   12  C   UNK N   1      31.887  17.235   8.477  0.00  0.00     0.032 A 
HETATM   13  C   UNK N   1      32.449  16.467   6.259  0.00  0.00     0.062 A 
HETATM   14  C   UNK N   1      30.576  17.482   8.024  0.00  0.00     0.002 A 
HETATM   15  C   UNK N   1      30.216  17.209   6.682  0.00  0.00     0.002 A 
HETATM   16  C   UNK N   1      31.165  16.691   5.780  0.00  0.00     0.032 A 
HETATM   17  N   UNK N   1      33.505  15.971   5.588  0.00  0.00    -0.320 N 
HETATM   18  C   UNK N   1      34.492  15.940   6.519  0.00  0.00     0.224 A 
ATOM     19  HN  UNK N   1      33.554  15.686   4.611  1.00  0.00     0.169 HD
BRANCH  18  20
HETATM   20  O   UNK N   1      35.728  15.480   6.263  0.00  0.00    -0.332 OA
HETATM   21  H   UNK N   1      36.374  16.053   5.899  0.00  0.00     0.221 HD
ENDBRANCH  18  20
ENDBRANCH   9  10
ENDBRANCH   8   9
ENDBRANCH   7   8
ENDBRANCH   5   7
BRANCH   6  22
HETATM   22  C   UNK N   1      36.697  12.536  14.350  0.00  0.00     0.289 C 
BRANCH  22  23
HETATM   23  C   UNK N   1      37.233  11.124  14.635  0.00  0.00    -0.021 A 
HETATM   24  C   UNK N   1      36.359  10.149  15.145  0.00  0.00     0.010 A 
HETATM   25  C   UNK N   1      36.809   8.857  15.430  0.00  0.00     0.001 A 
HETATM   26  C   UNK N   1      38.143   8.516  15.203  0.00  0.00     0.000 A 
HETATM   27  C   UNK N   1      39.024   9.469  14.689  0.00  0.00     0.001 A 
HETATM   28  C   UNK N   1      38.572  10.762  14.410  0.00  0.00     0.010 A 
ENDBRANCH  22  23
BRANCH  22  29
HETATM   29  C   UNK N   1      36.457  13.470  15.542  0.00  0.00    -0.021 A 
HETATM   30  C   UNK N   1      35.536  13.178  16.562  0.00  0.00     0.010 A 
HETATM   31  C   UNK N   1      35.373  14.041  17.649  0.00  0.00     0.001 A 
HETATM   32  C   UNK N   1      36.129  15.212  17.731  0.00  0.00     0.000 A 
HETATM   33  C   UNK N   1      37.053  15.513  16.730  0.00  0.00     0.001 A 
HETATM   34  C   UNK N   1      37.221  14.642  15.652  0.00  0.00     0.010 A 
ENDBRANCH  22  29
ENDBRANCH   6  22
TORSDOF 8
ENDMDL
MODEL 7
REMARK VINA RESULT:      -7.5      2.637      9.647
REMARK  8 active torsions:
REMARK  status: ('A' for Active; 'I' for Inactive)
REMARK    1  A    between atoms: C_16  and  C_9 
REMARK    2  A    between atoms: C_17  and  C_9 
REMARK    3  A    between atoms: N_30  and  C_16 
REMARK    4  A    between atoms: N_32  and  C_17 
REMARK    5  A    between atoms: C_26  and  C_22 
REMARK    6  A    between atoms: C_26  and  C_23 
REMARK    7  A    between atoms: N_31  and  C_26 
REMARK    8  A    between atoms: O_33  and  C_27 
ROOT
HETATM    1  C   UNK N   1      36.133  12.232  10.953  0.00  0.00     0.147 C 
HETATM    2  C   UNK N   1      34.646  13.989  11.914  0.00  0.00     0.147 C 
HETATM    3  C   UNK N   1      37.294  12.882  11.731  0.00  0.00     0.293 C 
HETATM    4  C   UNK N   1      35.905  14.624  12.503  0.00  0.00     0.293 C 
HETATM    5  N   UNK N   1      34.958  13.103  10.794  0.00  0.00    -0.409 N 
HETATM    6  N   UNK N   1      36.855  13.602  12.937  0.00  0.00     0.104 N 
ENDROOT
BRANCH   5   7
HETATM    7  C   UNK N   1      34.772  13.733   9.482  0.00  0.00     0.118 C 
BRANCH   7   8
HETATM    8  C   UNK N   1      33.594  14.699   9.399  0.00  0.00     0.040 C 
BRANCH   8   9
HETATM    9  C   UNK N   1      33.980  16.079   8.880  0.00  0.00     0.134 C 
BRANCH   9  10
HETATM   10  N   UNK N   1      33.408  16.370   7.567  0.00  0.00    -0.311 N 
HETATM   11  C   UNK N   1      32.154  16.745   7.267  0.00  0.00     0.064 A 
HETATM   12  C   UNK N   1      31.079  16.988   8.121  0.00  0.00     0.032 A 
HETATM   13  C   UNK N   1      32.040  16.859   5.910  0.00  0.00     0.062 A 
HETATM   14  C   UNK N   1      29.856  17.362   7.531  0.00  0.00     0.002 A 
HETATM   15  C   UNK N   1      29.740  17.474   6.124  0.00  0.00     0.002 A 
HETATM   16  C   UNK N   1      30.848  17.218   5.294  0.00  0.00     0.032 A 
HETATM   17  N   UNK N   1      33.214  16.559   5.324  0.00  0.00    -0.320 N 
HETATM   18  C   UNK N   1      34.029  16.264   6.367  0.00  0.00     0.224 A 
ATOM     19  HN  UNK N   1      33.439  16.556   4.329  1.00  0.00     0.169 HD
BRANCH  18  20
HETATM   20  O   UNK N   1      35.308  15.883   6.214  0.00  0.00    -0.332 OA
HETATM   21  H   UNK N   1      35.956  16.510   5.962  0.00  0.00     0.221 HD
ENDBRANCH  18  20
ENDBRANCH   9  10
ENDBRANCH   8   9
ENDBRANCH   7   8
ENDBRANCH   5   7
BRANCH   6  22
HETATM   22  C   UNK N   1      36.303  12.785  14.056  0.00  0.00     0.289 C 
BRANCH  22  23
HETATM   23  C   UNK N   1      36.258  13.583  15.368  0.00  0.00    -0.021 A 
HETATM   24  C   UNK N   1      37.112  14.688  15.527  0.00  0.00     0.010 A 
HETATM   25  C   UNK N   1      37.113  15.432  16.711  0.00  0.00     0.001 A 
HETATM   26  C   UNK N   1      36.253  15.087  17.753  0.00  0.00     0.000 A 
HETATM   27  C   UNK N   1      35.392  13.998  17.610  0.00  0.00     0.001 A 
HETATM   28  C   UNK N   1      35.397  13.252  16.428  0.00  0.00     0.010 A 
ENDBRANCH  22  23
BRANCH  22  29
HETATM   29  C   UNK N   1      36.813  11.340  14.107  0.00  0.00    -0.021 A 
HETATM   30  C   UNK N   1      38.148  11.016  14.399  0.00  0.00     0.010 A 
HETATM   31  C   UNK N   1      38.564   9.683  14.470  0.00  0.00     0.001 A 
HETATM   32  C   UNK N   1      37.648   8.654  14.248  0.00  0.00     0.000 A 
HETATM   33  C   UNK N   1      36.317   8.958  13.963  0.00  0.00     0.001 A 
HETATM   34  C   UNK N   1      35.903  10.290  13.905  0.00  0.00     0.010 A 
ENDBRANCH  22  29
ENDBRANCH   6  22
TORSDOF 8
ENDMDL
MODEL 8
REMARK VINA RESULT:      -7.5      2.722      9.647
REMARK  8 active torsions:
REMARK  status: ('A' for Active; 'I' for Inactive)
REMARK    1  A    between atoms: C_16  and  C_9 
REMARK    2  A    between atoms: C_17  and  C_9 
REMARK    3  A    between atoms: N_30  and  C_16 
REMARK    4  A    between atoms: N_32  and  C_17 
REMARK    5  A    between atoms: C_26  and  C_22 
REMARK    6  A    between atoms: C_26  and  C_23 
REMARK    7  A    between atoms: N_31  and  C_26 
REMARK    8  A    between atoms: O_33  and  C_27 
ROOT
HETATM    1  C   UNK N   1      36.088  14.806  12.270  0.00  0.00     0.147 C 
HETATM    2  C   UNK N   1      37.337  12.818  11.425  0.00  0.00     0.147 C 
HETATM    3  C   UNK N   1      35.101  13.822  12.929  0.00  0.00     0.293 C 
HETATM    4  C   UNK N   1      36.205  11.962  11.991  0.00  0.00     0.293 C 
HETATM    5  N   UNK N   1      36.917  14.202  11.215  0.00  0.00    -0.409 N 
HETATM    6  N   UNK N   1      35.702  12.517  13.246  0.00  0.00     0.104 N 
ENDROOT
BRANCH   5   7
HETATM    7  C   UNK N   1      36.539  14.493   9.827  0.00  0.00     0.118 C 
BRANCH   7   8
HETATM    8  C   UNK N   1      36.553  13.284   8.895  0.00  0.00     0.040 C 
BRANCH   8   9
HETATM    9  C   UNK N   1      35.457  13.327   7.836  0.00  0.00     0.134 C 
BRANCH   9  10
HETATM   10  N   UNK N   1      34.273  14.060   8.278  0.00  0.00    -0.311 N 
HETATM   11  C   UNK N   1      33.910  15.319   7.981  0.00  0.00     0.064 A 
HETATM   12  C   UNK N   1      34.543  16.245   7.153  0.00  0.00     0.032 A 
HETATM   13  C   UNK N   1      32.758  15.616   8.652  0.00  0.00     0.062 A 
HETATM   14  C   UNK N   1      33.945  17.514   7.027  0.00  0.00     0.002 A 
HETATM   15  C   UNK N   1      32.754  17.821   7.727  0.00  0.00     0.002 A 
HETATM   16  C   UNK N   1      32.145  16.859   8.556  0.00  0.00     0.032 A 
HETATM   17  N   UNK N   1      32.366  14.557   9.385  0.00  0.00    -0.320 N 
HETATM   18  C   UNK N   1      33.317  13.623   9.134  0.00  0.00     0.224 A 
ATOM     19  HN  UNK N   1      31.548  14.476   9.987  1.00  0.00     0.169 HD
BRANCH  18  20
HETATM   20  O   UNK N   1      33.315  12.404   9.699  0.00  0.00    -0.332 OA
HETATM   21  H   UNK N   1      32.626  12.161  10.284  0.00  0.00     0.221 HD
ENDBRANCH  18  20
ENDBRANCH   9  10
ENDBRANCH   8   9
ENDBRANCH   7   8
ENDBRANCH   5   7
BRANCH   6  22
HETATM   22  C   UNK N   1      36.747  12.489  14.311  0.00  0.00     0.289 C 
BRANCH  22  23
HETATM   23  C   UNK N   1      37.236  11.058  14.582  0.00  0.00    -0.021 A 
HETATM   24  C   UNK N   1      36.301  10.070  14.937  0.00  0.00     0.010 A 
HETATM   25  C   UNK N   1      36.706   8.759  15.205  0.00  0.00     0.001 A 
HETATM   26  C   UNK N   1      38.055   8.413  15.117  0.00  0.00     0.000 A 
HETATM   27  C   UNK N   1      38.997   9.379  14.759  0.00  0.00     0.001 A 
HETATM   28  C   UNK N   1      38.589  10.690  14.496  0.00  0.00     0.010 A 
ENDBRANCH  22  23
BRANCH  22  29
HETATM   29  C   UNK N   1      36.460  13.394  15.514  0.00  0.00    -0.021 A 
HETATM   30  C   UNK N   1      35.512  13.070  16.500  0.00  0.00     0.010 A 
HETATM   31  C   UNK N   1      35.307  13.907  17.600  0.00  0.00     0.001 A 
HETATM   32  C   UNK N   1      36.046  15.083  17.730  0.00  0.00     0.000 A 
HETATM   33  C   UNK N   1      36.995  15.417  16.764  0.00  0.00     0.001 A 
HETATM   34  C   UNK N   1      37.206  14.572  15.672  0.00  0.00     0.010 A 
ENDBRANCH  22  29
ENDBRANCH   6  22
TORSDOF 8
ENDMDL
MODEL 9
REMARK VINA RESULT:      -7.5      7.055     11.528
REMARK  8 active torsions:
REMARK  status: ('A' for Active; 'I' for Inactive)
REMARK    1  A    between atoms: C_16  and  C_9 
REMARK    2  A    between atoms: C_17  and  C_9 
REMARK    3  A    between atoms: N_30  and  C_16 
REMARK    4  A    between atoms: N_32  and  C_17 
REMARK    5  A    between atoms: C_26  and  C_22 
REMARK    6  A    between atoms: C_26  and  C_23 
REMARK    7  A    between atoms: N_31  and  C_26 
REMARK    8  A    between atoms: O_33  and  C_27 
ROOT
HETATM    1  C   UNK N   1      26.327  16.436   3.619  0.00  0.00     0.147 C 
HETATM    2  C   UNK N   1      28.441  15.441   2.745  0.00  0.00     0.147 C 
HETATM    3  C   UNK N   1      26.896  16.232   5.037  0.00  0.00     0.293 C 
HETATM    4  C   UNK N   1      28.816  15.153   4.197  0.00  0.00     0.293 C 
HETATM    5  N   UNK N   1      27.000  15.636   2.585  0.00  0.00    -0.409 N 
HETATM    6  N   UNK N   1      28.367  16.227   5.080  0.00  0.00     0.104 N 
ENDROOT
BRANCH   5   7
HETATM    7  C   UNK N   1      26.298  14.438   2.111  0.00  0.00     0.118 C 
BRANCH   7   8
HETATM    8  C   UNK N   1      24.912  14.700   1.528  0.00  0.00     0.040 C 
BRANCH   8   9
HETATM    9  C   UNK N   1      23.796  13.982   2.278  0.00  0.00     0.134 C 
BRANCH   9  10
HETATM   10  N   UNK N   1      22.766  14.895   2.768  0.00  0.00    -0.311 N 
HETATM   11  C   UNK N   1      22.588  15.362   4.015  0.00  0.00     0.064 A 
HETATM   12  C   UNK N   1      23.350  15.130   5.159  0.00  0.00     0.032 A 
HETATM   13  C   UNK N   1      21.471  16.148   4.036  0.00  0.00     0.062 A 
HETATM   14  C   UNK N   1      22.926  15.743   6.354  0.00  0.00     0.002 A 
HETATM   15  C   UNK N   1      21.765  16.554   6.374  0.00  0.00     0.002 A 
HETATM   16  C   UNK N   1      21.020  16.763   5.198  0.00  0.00     0.032 A 
HETATM   17  N   UNK N   1      20.919  16.196   2.809  0.00  0.00    -0.320 N 
HETATM   18  C   UNK N   1      21.737  15.417   2.058  0.00  0.00     0.224 A 
ATOM     19  HN  UNK N   1      20.084  16.700   2.514  1.00  0.00     0.169 HD
BRANCH  18  20
HETATM   20  O   UNK N   1      21.525  15.175   0.754  0.00  0.00    -0.332 OA
HETATM   21  H   UNK N   1      22.034  14.527   0.309  0.00  0.00     0.221 HD
ENDBRANCH  18  20
ENDBRANCH   9  10
ENDBRANCH   8   9
ENDBRANCH   7   8
ENDBRANCH   5   7
BRANCH   6  22
HETATM   22  C   UNK N   1      29.061  17.511   4.772  0.00  0.00     0.289 C 
BRANCH  22  23
HETATM   23  C   UNK N   1      30.567  17.420   5.064  0.00  0.00    -0.021 A 
HETATM   24  C   UNK N   1      30.995  17.062   6.354  0.00  0.00     0.010 A 
HETATM   25  C   UNK N   1      32.355  16.982   6.666  0.00  0.00     0.001 A 
HETATM   26  C   UNK N   1      33.312  17.251   5.687  0.00  0.00     0.000 A 
HETATM   27  C   UNK N   1      32.907  17.601   4.398  0.00  0.00     0.001 A 
HETATM   28  C   UNK N   1      31.546  17.686   4.092  0.00  0.00     0.010 A 
ENDBRANCH  22  23
BRANCH  22  29
HETATM   29  C   UNK N   1      28.313  18.770   5.226  0.00  0.00    -0.021 A 
HETATM   30  C   UNK N   1      27.751  19.686   4.322  0.00  0.00     0.010 A 
HETATM   31  C   UNK N   1      27.045  20.803   4.779  0.00  0.00     0.001 A 
HETATM   32  C   UNK N   1      26.894  21.021   6.149  0.00  0.00     0.000 A 
HETATM   33  C   UNK N   1      27.440  20.117   7.060  0.00  0.00     0.001 A 
HETATM   34  C   UNK N   1      28.134  18.996   6.599  0.00  0.00     0.010 A 
ENDBRANCH  22  29
ENDBRANCH   6  22
TORSDOF 8
ENDMDL
