MODEL 1
REMARK VINA RESULT:      -7.8      0.000      0.000
REMARK  7 active torsions:
REMARK  status: ('A' for Active; 'I' for Inactive)
REMARK    1  A    between atoms: C_6  and  C_3 
REMARK    2  A    between atoms: C_13  and  C_3 
REMARK    3  A    between atoms: C_21  and  C_6 
REMARK    4  A    between atoms: N_26  and  C_13 
REMARK    5  A    between atoms: C_21  and  C_16 
REMARK    6  A    between atoms: N_27  and  C_18 
REMARK    7  A    between atoms: O_29  and  C_22 
ROOT
HETATM    1  C   UNK N   1      35.358  12.979   9.778  0.00  0.00     0.056 C 
HETATM    2  C   UNK N   1      35.001  13.732  12.160  0.00  0.00     0.056 C 
HETATM    3  C   UNK N   1      36.858  13.089  10.025  0.00  0.00     0.274 C 
HETATM    4  C   UNK N   1      36.526  13.692  12.341  0.00  0.00     0.274 C 
HETATM    5  C   UNK N   1      34.579  13.918  10.692  0.00  0.00     0.097 C 
HETATM    6  N   UNK N   1      37.176  12.755  11.417  0.00  0.00     0.088 N 
ENDROOT
BRANCH   5   7
HETATM    7  N   UNK N   1      34.611  15.296  10.178  0.00  0.00    -0.306 N 
HETATM    8  C   UNK N   1      33.651  15.849   9.415  0.00  0.00     0.065 A 
HETATM    9  C   UNK N   1      32.472  15.272   8.942  0.00  0.00     0.032 A 
HETATM   10  C   UNK N   1      33.992  17.136   9.127  0.00  0.00     0.062 A 
HETATM   11  C   UNK N   1      31.634  16.067   8.141  0.00  0.00     0.002 A 
HETATM   12  C   UNK N   1      31.987  17.403   7.843  0.00  0.00     0.002 A 
HETATM   13  C   UNK N   1      33.185  17.955   8.344  0.00  0.00     0.032 A 
HETATM   14  N   UNK N   1      35.172  17.438   9.704  0.00  0.00    -0.320 N 
HETATM   15  C   UNK N   1      35.525  16.291  10.340  0.00  0.00     0.225 A 
ATOM     16  HN  UNK N   1      35.680  18.321   9.670  1.00  0.00     0.169 HD
BRANCH  15  17
HETATM   17  O   UNK N   1      36.654  16.174  11.060  0.00  0.00    -0.332 OA
HETATM   18  H   UNK N   1      36.743  15.479  11.682  0.00  0.00     0.221 HD
ENDBRANCH  15  17
ENDBRANCH   5   7
BRANCH   6  19
HETATM   19  C   UNK N   1      37.018  11.343  11.838  0.00  0.00     0.272 C 
BRANCH  19  20
HETATM   20  C   UNK N   1      37.093  11.039  13.346  0.00  0.00     0.038 C 
BRANCH  20  21
HETATM   21  C   UNK N   1      36.021  10.036  13.764  0.00  0.00     0.085 C 
BRANCH  21  22
HETATM   22  C   UNK N   1      34.825  10.695  14.377  0.00  0.00     0.159 C 
HETATM   23  O   UNK N   1      33.748  10.628  13.803  0.00  0.00    -0.292 OA
BRANCH  22  24
HETATM   24  C   UNK N   1      34.922  11.346  15.702  0.00  0.00     0.010 A 
HETATM   25  C   UNK N   1      35.273  10.599  16.836  0.00  0.00     0.018 A 
HETATM   26  C   UNK N   1      35.399  11.227  18.080  0.00  0.00     0.043 A 
HETATM   27  C   UNK N   1      35.172  12.601  18.196  0.00  0.00     0.116 A 
HETATM   28  C   UNK N   1      34.817  13.349  17.071  0.00  0.00     0.043 A 
HETATM   29  F   UNK N   1      35.298  13.211  19.397  0.00  0.00    -0.206 F 
HETATM   30  C   UNK N   1      34.696  12.724  15.829  0.00  0.00     0.018 A 
ENDBRANCH  22  24
ENDBRANCH  21  22
ENDBRANCH  20  21
ENDBRANCH  19  20
ENDBRANCH   6  19
TORSDOF 7
ENDMDL
MODEL 2
REMARK VINA RESULT:      -7.5     12.336     16.365
REMARK  7 active torsions:
REMARK  status: ('A' for Active; 'I' for Inactive)
REMARK    1  A    between atoms: C_6  and  C_3 
REMARK    2  A    between atoms: C_13  and  C_3 
REMARK    3  A    between atoms: C_21  and  C_6 
REMARK    4  A    between atoms: N_26  and  C_13 
REMARK    5  A    between atoms: C_21  and  C_16 
REMARK    6  A    between atoms: N_27  and  C_18 
REMARK    7  A    between atoms: O_29  and  C_22 
ROOT
HETATM    1  C   UNK N   1      21.962  13.915   6.193  0.00  0.00     0.056 C 
HETATM    2  C   UNK N   1      21.488  16.198   7.159  0.00  0.00     0.056 C 
HETATM    3  C   UNK N   1      20.493  13.840   5.793  0.00  0.00     0.274 C 
HETATM    4  C   UNK N   1      20.061  16.073   6.605  0.00  0.00     0.274 C 
HETATM    5  C   UNK N   1      22.159  14.833   7.394  0.00  0.00     0.097 C 
HETATM    6  N   UNK N   1      19.984  15.172   5.450  0.00  0.00     0.088 N 
ENDROOT
BRANCH   5   7
HETATM    7  N   UNK N   1      21.804  14.143   8.644  0.00  0.00    -0.306 N 
HETATM    8  C   UNK N   1      22.666  13.439   9.398  0.00  0.00     0.065 A 
HETATM    9  C   UNK N   1      24.021  13.193   9.176  0.00  0.00     0.032 A 
HETATM   10  C   UNK N   1      22.011  12.946  10.487  0.00  0.00     0.062 A 
HETATM   11  C   UNK N   1      24.704  12.405  10.119  0.00  0.00     0.002 A 
HETATM   12  C   UNK N   1      24.024  11.894  11.249  0.00  0.00     0.002 A 
HETATM   13  C   UNK N   1      22.655  12.167  11.444  0.00  0.00     0.032 A 
HETATM   14  N   UNK N   1      20.720  13.329  10.457  0.00  0.00    -0.320 N 
HETATM   15  C   UNK N   1      20.624  14.061   9.317  0.00  0.00     0.225 A 
ATOM     16  HN  UNK N   1      19.986  13.118  11.132  1.00  0.00     0.169 HD
BRANCH  15  17
HETATM   17  O   UNK N   1      19.481  14.645   8.919  0.00  0.00    -0.332 OA
HETATM   18  H   UNK N   1      19.339  14.825   8.010  0.00  0.00     0.221 HD
ENDBRANCH  15  17
ENDBRANCH   5   7
BRANCH   6  19
HETATM   19  C   UNK N   1      20.487  15.801   4.206  0.00  0.00     0.272 C 
BRANCH  19  20
HETATM   20  C   UNK N   1      19.860  17.143   3.785  0.00  0.00     0.038 C 
BRANCH  20  21
HETATM   21  C   UNK N   1      20.864  18.013   3.036  0.00  0.00     0.085 C 
BRANCH  21  22
HETATM   22  C   UNK N   1      21.585  18.966   3.938  0.00  0.00     0.159 C 
HETATM   23  O   UNK N   1      20.998  19.437   4.901  0.00  0.00    -0.292 OA
BRANCH  22  24
HETATM   24  C   UNK N   1      23.017  19.270   3.720  0.00  0.00     0.010 A 
HETATM   25  C   UNK N   1      23.399  20.358   2.921  0.00  0.00     0.018 A 
HETATM   26  C   UNK N   1      24.753  20.661   2.747  0.00  0.00     0.043 A 
HETATM   27  C   UNK N   1      25.731  19.878   3.368  0.00  0.00     0.116 A 
HETATM   28  C   UNK N   1      25.356  18.791   4.161  0.00  0.00     0.043 A 
HETATM   29  F   UNK N   1      27.041  20.173   3.206  0.00  0.00    -0.206 F 
HETATM   30  C   UNK N   1      24.006  18.490   4.338  0.00  0.00     0.018 A 
ENDBRANCH  22  24
ENDBRANCH  21  22
ENDBRANCH  20  21
ENDBRANCH  19  20
ENDBRANCH   6  19
TORSDOF 7
ENDMDL
MODEL 3
REMARK VINA RESULT:      -7.3      2.106      3.027
REMARK  7 active torsions:
REMARK  status: ('A' for Active; 'I' for Inactive)
REMARK    1  A    between atoms: C_6  and  C_3 
REMARK    2  A    between atoms: C_13  and  C_3 
REMARK    3  A    between atoms: C_21  and  C_6 
REMARK    4  A    between atoms: N_26  and  C_13 
REMARK    5  A    between atoms: C_21  and  C_16 
REMARK    6  A    between atoms: N_27  and  C_18 
REMARK    7  A    between atoms: O_29  and  C_22 
ROOT
HETATM    1  C   UNK N   1      34.878  15.960   9.781  0.00  0.00     0.056 C 
HETATM    2  C   UNK N   1      35.569  13.738   8.804  0.00  0.00     0.056 C 
HETATM    3  C   UNK N   1      34.249  15.194  10.939  0.00  0.00     0.274 C 
HETATM    4  C   UNK N   1      35.014  13.072  10.073  0.00  0.00     0.274 C 
HETATM    5  C   UNK N   1      34.927  15.106   8.519  0.00  0.00     0.097 C 
HETATM    6  N   UNK N   1      35.016  13.978  11.228  0.00  0.00     0.088 N 
ENDROOT
BRANCH   5   7
HETATM    7  N   UNK N   1      33.615  15.080   7.853  0.00  0.00    -0.306 N 
HETATM    8  C   UNK N   1      33.259  15.886   6.836  0.00  0.00     0.065 A 
HETATM    9  C   UNK N   1      34.001  16.894   6.220  0.00  0.00     0.032 A 
HETATM   10  C   UNK N   1      31.986  15.588   6.452  0.00  0.00     0.062 A 
HETATM   11  C   UNK N   1      33.388  17.609   5.177  0.00  0.00     0.002 A 
HETATM   12  C   UNK N   1      32.067  17.299   4.778  0.00  0.00     0.002 A 
HETATM   13  C   UNK N   1      31.349  16.270   5.420  0.00  0.00     0.032 A 
HETATM   14  N   UNK N   1      31.503  14.582   7.208  0.00  0.00    -0.320 N 
HETATM   15  C   UNK N   1      32.524  14.293   8.056  0.00  0.00     0.225 A 
ATOM     16  HN  UNK N   1      30.585  14.142   7.155  1.00  0.00     0.169 HD
BRANCH  15  17
HETATM   17  O   UNK N   1      32.451  13.321   8.981  0.00  0.00    -0.332 OA
HETATM   18  H   UNK N   1      32.916  12.518   8.854  0.00  0.00     0.221 HD
ENDBRANCH  15  17
ENDBRANCH   5   7
BRANCH   6  19
HETATM   19  C   UNK N   1      36.365  14.140  11.818  0.00  0.00     0.272 C 
BRANCH  19  20
HETATM   20  C   UNK N   1      36.725  13.251  13.023  0.00  0.00     0.038 C 
BRANCH  20  21
HETATM   21  C   UNK N   1      36.128  13.801  14.315  0.00  0.00     0.085 C 
BRANCH  21  22
HETATM   22  C   UNK N   1      35.100  12.888  14.908  0.00  0.00     0.159 C 
HETATM   23  O   UNK N   1      34.264  12.378  14.179  0.00  0.00    -0.292 OA
BRANCH  22  24
HETATM   24  C   UNK N   1      35.147  12.538  16.345  0.00  0.00     0.010 A 
HETATM   25  C   UNK N   1      35.241  11.197  16.747  0.00  0.00     0.018 A 
HETATM   26  C   UNK N   1      35.322  10.874  18.105  0.00  0.00     0.043 A 
HETATM   27  C   UNK N   1      35.305  11.888  19.068  0.00  0.00     0.116 A 
HETATM   28  C   UNK N   1      35.206  13.224  18.674  0.00  0.00     0.043 A 
HETATM   29  F   UNK N   1      35.388  11.578  20.382  0.00  0.00    -0.206 F 
HETATM   30  C   UNK N   1      35.131  13.547  17.319  0.00  0.00     0.018 A 
ENDBRANCH  22  24
ENDBRANCH  21  22
ENDBRANCH  20  21
ENDBRANCH  19  20
ENDBRANCH   6  19
TORSDOF 7
ENDMDL
MODEL 4
REMARK VINA RESULT:      -7.3      3.347      8.219
REMARK  7 active torsions:
REMARK  status: ('A' for Active; 'I' for Inactive)
REMARK    1  A    between atoms: C_6  and  C_3 
REMARK    2  A    between atoms: C_13  and  C_3 
REMARK    3  A    between atoms: C_21  and  C_6 
REMARK    4  A    between atoms: N_26  and  C_13 
REMARK    5  A    between atoms: C_21  and  C_16 
REMARK    6  A    between atoms: N_27  and  C_18 
REMARK    7  A    between atoms: O_29  and  C_22 
ROOT
HETATM    1  C   UNK N   1      34.058  13.765  10.017  0.00  0.00     0.056 C 
HETATM    2  C   UNK N   1      36.308  12.683   9.650  0.00  0.00     0.056 C 
HETATM    3  C   UNK N   1      34.626  15.032   9.389  0.00  0.00     0.274 C 
HETATM    4  C   UNK N   1      36.742  13.965   8.923  0.00  0.00     0.274 C 
HETATM    5  C   UNK N   1      35.161  12.921  10.647  0.00  0.00     0.097 C 
HETATM    6  N   UNK N   1      35.606  14.697   8.351  0.00  0.00     0.088 N 
ENDROOT
BRANCH   5   7
HETATM    7  N   UNK N   1      35.546  13.459  11.962  0.00  0.00    -0.306 N 
HETATM    8  C   UNK N   1      35.217  12.902  13.140  0.00  0.00     0.065 A 
HETATM    9  C   UNK N   1      34.459  11.755  13.382  0.00  0.00     0.032 A 
HETATM   10  C   UNK N   1      35.743  13.647  14.152  0.00  0.00     0.062 A 
HETATM   11  C   UNK N   1      34.244  11.388  14.722  0.00  0.00     0.002 A 
HETATM   12  C   UNK N   1      34.791  12.161  15.772  0.00  0.00     0.002 A 
HETATM   13  C   UNK N   1      35.557  13.311  15.489  0.00  0.00     0.032 A 
HETATM   14  N   UNK N   1      36.426  14.692  13.644  0.00  0.00    -0.320 N 
HETATM   15  C   UNK N   1      36.286  14.549  12.300  0.00  0.00     0.225 A 
ATOM     16  HN  UNK N   1      36.928  15.420  14.150  1.00  0.00     0.169 HD
BRANCH  15  17
HETATM   17  O   UNK N   1      36.839  15.396  11.415  0.00  0.00    -0.332 OA
HETATM   18  H   UNK N   1      37.771  15.436  11.324  0.00  0.00     0.221 HD
ENDBRANCH  15  17
ENDBRANCH   5   7
BRANCH   6  19
HETATM   19  C   UNK N   1      35.102  14.076   7.104  0.00  0.00     0.272 C 
BRANCH  19  20
HETATM   20  C   UNK N   1      33.847  14.693   6.460  0.00  0.00     0.038 C 
BRANCH  20  21
HETATM   21  C   UNK N   1      34.172  16.011   5.763  0.00  0.00     0.085 C 
BRANCH  21  22
HETATM   22  C   UNK N   1      33.722  17.204   6.548  0.00  0.00     0.159 C 
HETATM   23  O   UNK N   1      34.506  18.120   6.742  0.00  0.00    -0.292 OA
BRANCH  22  24
HETATM   24  C   UNK N   1      32.321  17.314   7.010  0.00  0.00     0.010 A 
HETATM   25  C   UNK N   1      32.035  17.681   8.333  0.00  0.00     0.018 A 
HETATM   26  C   UNK N   1      30.709  17.818   8.754  0.00  0.00     0.043 A 
HETATM   27  C   UNK N   1      29.662  17.587   7.856  0.00  0.00     0.116 A 
HETATM   28  C   UNK N   1      29.940  17.216   6.539  0.00  0.00     0.043 A 
HETATM   29  F   UNK N   1      28.378  17.725   8.260  0.00  0.00    -0.206 F 
HETATM   30  C   UNK N   1      31.263  17.084   6.117  0.00  0.00     0.018 A 
ENDBRANCH  22  24
ENDBRANCH  21  22
ENDBRANCH  20  21
ENDBRANCH  19  20
ENDBRANCH   6  19
TORSDOF 7
ENDMDL
MODEL 5
REMARK VINA RESULT:      -7.2      1.763      1.980
REMARK  7 active torsions:
REMARK  status: ('A' for Active; 'I' for Inactive)
REMARK    1  A    between atoms: C_6  and  C_3 
REMARK    2  A    between atoms: C_13  and  C_3 
REMARK    3  A    between atoms: C_21  and  C_6 
REMARK    4  A    between atoms: N_26  and  C_13 
REMARK    5  A    between atoms: C_21  and  C_16 
REMARK    6  A    between atoms: N_27  and  C_18 
REMARK    7  A    between atoms: O_29  and  C_22 
ROOT
HETATM    1  C   UNK N   1      35.922  14.008   9.121  0.00  0.00     0.056 C 
HETATM    2  C   UNK N   1      34.253  14.738  10.867  0.00  0.00     0.056 C 
HETATM    3  C   UNK N   1      37.009  14.670   9.961  0.00  0.00     0.274 C 
HETATM    4  C   UNK N   1      35.435  15.264  11.695  0.00  0.00     0.274 C 
HETATM    5  C   UNK N   1      34.566  14.661   9.362  0.00  0.00     0.097 C 
HETATM    6  N   UNK N   1      36.689  14.566  11.389  0.00  0.00     0.088 N 
ENDROOT
BRANCH   5   7
HETATM    7  N   UNK N   1      34.448  15.920   8.610  0.00  0.00    -0.306 N 
HETATM    8  C   UNK N   1      33.930  16.025   7.374  0.00  0.00     0.065 A 
HETATM    9  C   UNK N   1      33.427  15.017   6.550  0.00  0.00     0.032 A 
HETATM   10  C   UNK N   1      33.963  17.329   6.982  0.00  0.00     0.062 A 
HETATM   11  C   UNK N   1      32.951  15.391   5.281  0.00  0.00     0.002 A 
HETATM   12  C   UNK N   1      32.984  16.745   4.875  0.00  0.00     0.002 A 
HETATM   13  C   UNK N   1      33.496  17.737   5.737  0.00  0.00     0.032 A 
HETATM   14  N   UNK N   1      34.496  18.088   7.961  0.00  0.00    -0.320 N 
HETATM   15  C   UNK N   1      34.783  17.196   8.944  0.00  0.00     0.225 A 
ATOM     16  HN  UNK N   1      34.648  19.096   7.961  1.00  0.00     0.169 HD
BRANCH  15  17
HETATM   17  O   UNK N   1      35.326  17.555  10.119  0.00  0.00    -0.332 OA
HETATM   18  H   UNK N   1      35.962  17.003  10.530  0.00  0.00     0.221 HD
ENDBRANCH  15  17
ENDBRANCH   5   7
BRANCH   6  19
HETATM   19  C   UNK N   1      36.757  13.224  12.013  0.00  0.00     0.272 C 
BRANCH  19  20
HETATM   20  C   UNK N   1      36.007  13.020  13.342  0.00  0.00     0.038 C 
BRANCH  20  21
HETATM   21  C   UNK N   1      36.901  12.359  14.388  0.00  0.00     0.085 C 
BRANCH  21  22
HETATM   22  C   UNK N   1      36.138  11.459  15.310  0.00  0.00     0.159 C 
HETATM   23  O   UNK N   1      35.912  10.308  14.969  0.00  0.00    -0.292 OA
BRANCH  22  24
HETATM   24  C   UNK N   1      35.737  11.929  16.655  0.00  0.00     0.010 A 
HETATM   25  C   UNK N   1      35.713  11.040  17.740  0.00  0.00     0.018 A 
HETATM   26  C   UNK N   1      35.368  11.497  19.016  0.00  0.00     0.043 A 
HETATM   27  C   UNK N   1      35.043  12.843  19.213  0.00  0.00     0.116 A 
HETATM   28  C   UNK N   1      35.061  13.731  18.135  0.00  0.00     0.043 A 
HETATM   29  F   UNK N   1      34.714  13.288  20.447  0.00  0.00    -0.206 F 
HETATM   30  C   UNK N   1      35.410  13.277  16.864  0.00  0.00     0.018 A 
ENDBRANCH  22  24
ENDBRANCH  21  22
ENDBRANCH  20  21
ENDBRANCH  19  20
ENDBRANCH   6  19
TORSDOF 7
ENDMDL
MODEL 6
REMARK VINA RESULT:      -7.1      5.220     10.290
REMARK  7 active torsions:
REMARK  status: ('A' for Active; 'I' for Inactive)
REMARK    1  A    between atoms: C_6  and  C_3 
REMARK    2  A    between atoms: C_13  and  C_3 
REMARK    3  A    between atoms: C_21  and  C_6 
REMARK    4  A    between atoms: N_26  and  C_13 
REMARK    5  A    between atoms: C_21  and  C_16 
REMARK    6  A    between atoms: N_27  and  C_18 
REMARK    7  A    between atoms: O_29  and  C_22 
ROOT
HETATM    1  C   UNK N   1      32.397  15.185   7.854  0.00  0.00     0.056 C 
HETATM    2  C   UNK N   1      34.309  16.159   6.527  0.00  0.00     0.056 C 
HETATM    3  C   UNK N   1      31.686  16.525   7.711  0.00  0.00     0.274 C 
HETATM    4  C   UNK N   1      33.458  17.424   6.336  0.00  0.00     0.274 C 
HETATM    5  C   UNK N   1      33.910  15.354   7.775  0.00  0.00     0.097 C 
HETATM    6  N   UNK N   1      32.019  17.149   6.426  0.00  0.00     0.088 N 
ENDROOT
BRANCH   5   7
HETATM    7  N   UNK N   1      34.452  15.833   9.057  0.00  0.00    -0.306 N 
HETATM    8  C   UNK N   1      34.792  15.039  10.087  0.00  0.00     0.065 A 
HETATM    9  C   UNK N   1      34.699  13.650  10.185  0.00  0.00     0.032 A 
HETATM   10  C   UNK N   1      35.268  15.805  11.107  0.00  0.00     0.062 A 
HETATM   11  C   UNK N   1      35.112  13.053  11.389  0.00  0.00     0.002 A 
HETATM   12  C   UNK N   1      35.606  13.849  12.449  0.00  0.00     0.002 A 
HETATM   13  C   UNK N   1      35.691  15.250  12.311  0.00  0.00     0.032 A 
HETATM   14  N   UNK N   1      35.249  17.105  10.751  0.00  0.00    -0.320 N 
HETATM   15  C   UNK N   1      34.745  17.089   9.490  0.00  0.00     0.225 A 
ATOM     16  HN  UNK N   1      35.545  17.911  11.300  1.00  0.00     0.169 HD
BRANCH  15  17
HETATM   17  O   UNK N   1      34.573  18.204   8.759  0.00  0.00    -0.332 OA
HETATM   18  H   UNK N   1      35.029  18.990   8.989  0.00  0.00     0.221 HD
ENDBRANCH  15  17
ENDBRANCH   5   7
BRANCH   6  19
HETATM   19  C   UNK N   1      31.484  16.518   5.196  0.00  0.00     0.272 C 
BRANCH  19  20
HETATM   20  C   UNK N   1      30.716  17.419   4.212  0.00  0.00     0.038 C 
BRANCH  20  21
HETATM   21  C   UNK N   1      29.501  16.699   3.634  0.00  0.00     0.085 C 
BRANCH  21  22
HETATM   22  C   UNK N   1      28.268  16.898   4.459  0.00  0.00     0.159 C 
HETATM   23  O   UNK N   1      27.597  15.926   4.772  0.00  0.00    -0.292 OA
BRANCH  22  24
HETATM   24  C   UNK N   1      27.910  18.242   4.964  0.00  0.00     0.010 A 
HETATM   25  C   UNK N   1      28.066  18.555   6.323  0.00  0.00     0.018 A 
HETATM   26  C   UNK N   1      27.761  19.839   6.788  0.00  0.00     0.043 A 
HETATM   27  C   UNK N   1      27.296  20.813   5.899  0.00  0.00     0.116 A 
HETATM   28  C   UNK N   1      27.134  20.505   4.546  0.00  0.00     0.043 A 
HETATM   29  F   UNK N   1      27.005  22.056   6.346  0.00  0.00    -0.206 F 
HETATM   30  C   UNK N   1      27.443  19.227   4.081  0.00  0.00     0.018 A 
ENDBRANCH  22  24
ENDBRANCH  21  22
ENDBRANCH  20  21
ENDBRANCH  19  20
ENDBRANCH   6  19
TORSDOF 7
ENDMDL
MODEL 7
REMARK VINA RESULT:      -7.1      3.762      9.050
REMARK  7 active torsions:
REMARK  status: ('A' for Active; 'I' for Inactive)
REMARK    1  A    between atoms: C_6  and  C_3 
REMARK    2  A    between atoms: C_13  and  C_3 
REMARK    3  A    between atoms: C_21  and  C_6 
REMARK    4  A    between atoms: N_26  and  C_13 
REMARK    5  A    between atoms: C_21  and  C_16 
REMARK    6  A    between atoms: N_27  and  C_18 
REMARK    7  A    between atoms: O_29  and  C_22 
ROOT
HETATM    1  C   UNK N   1      34.630  12.923  11.664  0.00  0.00     0.056 C 
HETATM    2  C   UNK N   1      37.143  12.987  11.435  0.00  0.00     0.056 C 
HETATM    3  C   UNK N   1      34.624  14.427  11.418  0.00  0.00     0.274 C 
HETATM    4  C   UNK N   1      37.015  14.476  11.076  0.00  0.00     0.274 C 
HETATM    5  C   UNK N   1      35.956  12.469  12.266  0.00  0.00     0.097 C 
HETATM    6  N   UNK N   1      35.705  14.803  10.501  0.00  0.00     0.088 N 
ENDROOT
BRANCH   5   7
HETATM    7  N   UNK N   1      36.001  12.754  13.709  0.00  0.00    -0.306 N 
HETATM    8  C   UNK N   1      35.645  11.885  14.670  0.00  0.00     0.065 A 
HETATM    9  C   UNK N   1      35.156  10.584  14.533  0.00  0.00     0.032 A 
HETATM   10  C   UNK N   1      35.820  12.466  15.889  0.00  0.00     0.062 A 
HETATM   11  C   UNK N   1      34.840   9.881  15.708  0.00  0.00     0.002 A 
HETATM   12  C   UNK N   1      35.023  10.484  16.974  0.00  0.00     0.002 A 
HETATM   13  C   UNK N   1      35.524  11.798  17.074  0.00  0.00     0.032 A 
HETATM   14  N   UNK N   1      36.299  13.716  15.736  0.00  0.00    -0.320 N 
HETATM   15  C   UNK N   1      36.399  13.863  14.389  0.00  0.00     0.225 A 
ATOM     16  HN  UNK N   1      36.531  14.393  16.462  1.00  0.00     0.169 HD
BRANCH  15  17
HETATM   17  O   UNK N   1      36.857  14.986  13.810  0.00  0.00    -0.332 OA
HETATM   18  H   UNK N   1      37.104  14.979  12.906  0.00  0.00     0.221 HD
ENDBRANCH  15  17
ENDBRANCH   5   7
BRANCH   6  19
HETATM   19  C   UNK N   1      35.585  14.379   9.087  0.00  0.00     0.272 C 
BRANCH  19  20
HETATM   20  C   UNK N   1      34.960  15.379   8.096  0.00  0.00     0.038 C 
BRANCH  20  21
HETATM   21  C   UNK N   1      34.613  16.697   8.782  0.00  0.00     0.085 C 
BRANCH  21  22
HETATM   22  C   UNK N   1      34.272  17.781   7.807  0.00  0.00     0.159 C 
HETATM   23  O   UNK N   1      34.943  18.802   7.792  0.00  0.00    -0.292 OA
BRANCH  22  24
HETATM   24  C   UNK N   1      33.192  17.586   6.816  0.00  0.00     0.010 A 
HETATM   25  C   UNK N   1      33.474  17.616   5.442  0.00  0.00     0.018 A 
HETATM   26  C   UNK N   1      32.455  17.395   4.509  0.00  0.00     0.043 A 
HETATM   27  C   UNK N   1      31.150  17.146   4.945  0.00  0.00     0.116 A 
HETATM   28  C   UNK N   1      30.862  17.119   6.311  0.00  0.00     0.043 A 
HETATM   29  F   UNK N   1      30.164  16.927   4.045  0.00  0.00    -0.206 F 
HETATM   30  C   UNK N   1      31.879  17.335   7.242  0.00  0.00     0.018 A 
ENDBRANCH  22  24
ENDBRANCH  21  22
ENDBRANCH  20  21
ENDBRANCH  19  20
ENDBRANCH   6  19
TORSDOF 7
ENDMDL
MODEL 8
REMARK VINA RESULT:      -6.9      4.066      8.957
REMARK  7 active torsions:
REMARK  status: ('A' for Active; 'I' for Inactive)
REMARK    1  A    between atoms: C_6  and  C_3 
REMARK    2  A    between atoms: C_13  and  C_3 
REMARK    3  A    between atoms: C_21  and  C_6 
REMARK    4  A    between atoms: N_26  and  C_13 
REMARK    5  A    between atoms: C_21  and  C_16 
REMARK    6  A    between atoms: N_27  and  C_18 
REMARK    7  A    between atoms: O_29  and  C_22 
ROOT
HETATM    1  C   UNK N   1      34.623  13.711  10.072  0.00  0.00     0.056 C 
HETATM    2  C   UNK N   1      36.560  15.235  10.611  0.00  0.00     0.056 C 
HETATM    3  C   UNK N   1      33.700  14.913  10.241  0.00  0.00     0.274 C 
HETATM    4  C   UNK N   1      35.561  16.402  10.637  0.00  0.00     0.274 C 
HETATM    5  C   UNK N   1      35.897  13.876  10.892  0.00  0.00     0.097 C 
HETATM    6  N   UNK N   1      34.374  16.143   9.813  0.00  0.00     0.088 N 
ENDROOT
BRANCH   5   7
HETATM    7  N   UNK N   1      35.656  13.552  12.307  0.00  0.00    -0.306 N 
HETATM    8  C   UNK N   1      35.052  12.432  12.741  0.00  0.00     0.065 A 
HETATM    9  C   UNK N   1      34.524  11.379  11.993  0.00  0.00     0.032 A 
HETATM   10  C   UNK N   1      35.003  12.447  14.102  0.00  0.00     0.062 A 
HETATM   11  C   UNK N   1      33.924  10.318  12.695  0.00  0.00     0.002 A 
HETATM   12  C   UNK N   1      33.874  10.334  14.108  0.00  0.00     0.002 A 
HETATM   13  C   UNK N   1      34.423  11.413  14.831  0.00  0.00     0.032 A 
HETATM   14  N   UNK N   1      35.580  13.572  14.569  0.00  0.00    -0.320 N 
HETATM   15  C   UNK N   1      35.969  14.228  13.445  0.00  0.00     0.225 A 
ATOM     16  HN  UNK N   1      35.696  13.863  15.539  1.00  0.00     0.169 HD
BRANCH  15  17
HETATM   17  O   UNK N   1      36.608  15.410  13.474  0.00  0.00    -0.332 OA
HETATM   18  H   UNK N   1      36.116  16.208  13.486  0.00  0.00     0.221 HD
ENDBRANCH  15  17
ENDBRANCH   5   7
BRANCH   6  19
HETATM   19  C   UNK N   1      34.642  16.312   8.366  0.00  0.00     0.272 C 
BRANCH  19  20
HETATM   20  C   UNK N   1      33.829  17.382   7.613  0.00  0.00     0.038 C 
BRANCH  20  21
HETATM   21  C   UNK N   1      32.489  17.642   8.295  0.00  0.00     0.085 C 
BRANCH  21  22
HETATM   22  C   UNK N   1      31.367  16.874   7.669  0.00  0.00     0.159 C 
HETATM   23  O   UNK N   1      31.443  15.656   7.599  0.00  0.00    -0.292 OA
BRANCH  22  24
HETATM   24  C   UNK N   1      30.141  17.569   7.219  0.00  0.00     0.010 A 
HETATM   25  C   UNK N   1      29.720  17.475   5.884  0.00  0.00     0.018 A 
HETATM   26  C   UNK N   1      28.540  18.104   5.473  0.00  0.00     0.043 A 
HETATM   27  C   UNK N   1      27.779  18.832   6.392  0.00  0.00     0.116 A 
HETATM   28  C   UNK N   1      28.196  18.933   7.721  0.00  0.00     0.043 A 
HETATM   29  F   UNK N   1      26.635  19.438   5.998  0.00  0.00    -0.206 F 
HETATM   30  C   UNK N   1      29.369  18.302   8.133  0.00  0.00     0.018 A 
ENDBRANCH  22  24
ENDBRANCH  21  22
ENDBRANCH  20  21
ENDBRANCH  19  20
ENDBRANCH   6  19
TORSDOF 7
ENDMDL
MODEL 9
REMARK VINA RESULT:      -6.9     12.919     17.362
REMARK  7 active torsions:
REMARK  status: ('A' for Active; 'I' for Inactive)
REMARK    1  A    between atoms: C_6  and  C_3 
REMARK    2  A    between atoms: C_13  and  C_3 
REMARK    3  A    between atoms: C_21  and  C_6 
REMARK    4  A    between atoms: N_26  and  C_13 
REMARK    5  A    between atoms: C_21  and  C_16 
REMARK    6  A    between atoms: N_27  and  C_18 
REMARK    7  A    between atoms: O_29  and  C_22 
ROOT
HETATM    1  C   UNK N   1      21.684  14.384   6.549  0.00  0.00     0.056 C 
HETATM    2  C   UNK N   1      20.955  16.426   7.839  0.00  0.00     0.056 C 
HETATM    3  C   UNK N   1      20.227  14.184   6.148  0.00  0.00     0.274 C 
HETATM    4  C   UNK N   1      19.542  16.206   7.279  0.00  0.00     0.274 C 
HETATM    5  C   UNK N   1      21.793  15.136   7.870  0.00  0.00     0.097 C 
HETATM    6  N   UNK N   1      19.551  15.478   6.005  0.00  0.00     0.088 N 
ENDROOT
BRANCH   5   7
HETATM    7  N   UNK N   1      21.553  14.235   9.008  0.00  0.00    -0.306 N 
HETATM    8  C   UNK N   1      22.503  13.501   9.614  0.00  0.00     0.065 A 
HETATM    9  C   UNK N   1      23.862  13.412   9.311  0.00  0.00     0.032 A 
HETATM   10  C   UNK N   1      21.941  12.792  10.632  0.00  0.00     0.062 A 
HETATM   11  C   UNK N   1      24.649  12.551  10.096  0.00  0.00     0.002 A 
HETATM   12  C   UNK N   1      24.066  11.816  11.154  0.00  0.00     0.002 A 
HETATM   13  C   UNK N   1      22.689  11.935  11.434  0.00  0.00     0.032 A 
HETATM   14  N   UNK N   1      20.623  13.061  10.706  0.00  0.00    -0.320 N 
HETATM   15  C   UNK N   1      20.416  13.948   9.698  0.00  0.00     0.225 A 
ATOM     16  HN  UNK N   1      19.941  12.686  11.363  1.00  0.00     0.169 HD
BRANCH  15  17
HETATM   17  O   UNK N   1      19.212  14.484   9.434  0.00  0.00    -0.332 OA
HETATM   18  H   UNK N   1      19.106  15.415   9.424  0.00  0.00     0.221 HD
ENDBRANCH  15  17
ENDBRANCH   5   7
BRANCH   6  19
HETATM   19  C   UNK N   1      19.945  16.337   4.864  0.00  0.00     0.272 C 
BRANCH  19  20
HETATM   20  C   UNK N   1      19.809  15.745   3.449  0.00  0.00     0.038 C 
BRANCH  20  21
HETATM   21  C   UNK N   1      20.569  16.580   2.423  0.00  0.00     0.085 C 
BRANCH  21  22
HETATM   22  C   UNK N   1      20.613  15.933   1.074  0.00  0.00     0.159 C 
HETATM   23  O   UNK N   1      20.295  16.584   0.090  0.00  0.00    -0.292 OA
BRANCH  22  24
HETATM   24  C   UNK N   1      21.118  14.551   0.920  0.00  0.00     0.010 A 
HETATM   25  C   UNK N   1      20.224  13.481   0.768  0.00  0.00     0.018 A 
HETATM   26  C   UNK N   1      20.708  12.181   0.587  0.00  0.00     0.043 A 
HETATM   27  C   UNK N   1      22.086  11.945   0.560  0.00  0.00     0.116 A 
HETATM   28  C   UNK N   1      22.981  13.006   0.716  0.00  0.00     0.043 A 
HETATM   29  F   UNK N   1      22.556  10.689   0.380  0.00  0.00    -0.206 F 
HETATM   30  C   UNK N   1      22.499  14.303   0.891  0.00  0.00     0.018 A 
ENDBRANCH  22  24
ENDBRANCH  21  22
ENDBRANCH  20  21
ENDBRANCH  19  20
ENDBRANCH   6  19
TORSDOF 7
ENDMDL
