MODEL 1
REMARK VINA RESULT:      -8.7      0.000      0.000
REMARK  4 active torsions:
REMARK  status: ('A' for Active; 'I' for Inactive)
REMARK    1  A    between atoms: C_4  and  C_12 
REMARK    2  A    between atoms: C_12  and  N_13 
REMARK    3  A    between atoms: C_18  and  O_23 
REMARK    4  A    between atoms: O_23  and  C_24 
ROOT
HETATM    1  C   UNK N   1      35.533  13.230  12.510  0.00  0.00     0.079 C 
HETATM    2  C   UNK N   1      35.873  14.164  13.503  0.00  0.00     0.060 C 
HETATM    3  C   UNK N   1      36.696  13.779  14.586  0.00  0.00     0.049 C 
HETATM    4  C   UNK N   1      37.112  12.445  14.732  0.00  0.00     0.046 C 
HETATM    5  C   UNK N   1      36.824  11.530  13.732  0.00  0.00     0.038 C 
HETATM    6  C   UNK N   1      36.117  11.946  12.614  0.00  0.00     0.061 C 
HETATM    7 Cl   UNK N   1      37.276   9.841  13.892  0.00  0.00    -0.084 Cl
HETATM    8  C   UNK N   1      37.140  14.759  15.533  0.00  0.00     0.099 C 
HETATM    9  N   UNK N   1      37.523  15.515  16.321  0.00  0.00    -0.191 NA
ENDROOT
BRANCH   1  10
HETATM   10  O   UNK N   1      34.594  13.508  11.510  0.00  0.00    -0.308 OA
BRANCH  10  11
HETATM   11  C   UNK N   1      35.006  13.920  10.257  0.00  0.00     0.111 C 
HETATM   12  C   UNK N   1      34.981  13.053   9.130  0.00  0.00     0.069 C 
HETATM   13  C   UNK N   1      34.960  13.605   7.824  0.00  0.00     0.029 C 
HETATM   14 Cl   UNK N   1      34.810  11.319   9.298  0.00  0.00    -0.081 Cl
HETATM   15  C   UNK N   1      34.871  14.996   7.647  0.00  0.00     0.034 C 
HETATM   16  C   UNK N   1      35.024  15.793   8.775  0.00  0.00     0.065 C 
HETATM   17  N   UNK N   1      34.799  17.103   8.908  0.00  0.00    -0.286 N 
HETATM   18  C   UNK N   1      35.230  15.284  10.008  0.00  0.00     0.045 C 
HETATM   19  N   UNK N   1      35.020  17.464  10.166  0.00  0.00    -0.308 N 
HETATM   20  C   UNK N   1      35.334  16.364  10.871  0.00  0.00     0.124 C 
ATOM     21  HN  UNK N   1      34.961  18.413  10.534  1.00  0.00     0.186 HD
BRANCH  17  22
HETATM   22  C   UNK N   1      34.023  17.884   7.969  0.00  0.00     0.208 C 
BRANCH  22  23
HETATM   23  C   UNK N   1      32.616  17.490   8.024  0.00  0.00     0.059 A 
HETATM   24  C   UNK N   1      31.898  17.227   6.923  0.00  0.00     0.035 A 
HETATM   25  C   UNK N   1      32.249  17.192   5.586  0.00  0.00     0.018 A 
HETATM   26  C   UNK N   1      30.636  17.036   7.353  0.00  0.00     0.132 A 
HETATM   27  C   UNK N   1      31.216  16.951   4.676  0.00  0.00     0.018 A 
HETATM   28  C   UNK N   1      29.892  16.769   5.152  0.00  0.00     0.090 A 
HETATM   29  N   UNK N   1      29.615  16.811   6.496  0.00  0.00    -0.351 N 
ATOM     30  HN  UNK N   1      28.664  16.676   6.839  1.00  0.00     0.166 HD
HETATM   31  N   UNK N   1      30.574  17.157   8.692  0.00  0.00    -0.284 N 
HETATM   32  N   UNK N   1      31.806  17.443   9.113  0.00  0.00    -0.301 N 
HETATM   33  H   UNK N   1      29.772  17.054   9.254  0.00  0.00     0.188 HD
ATOM     34  HN  UNK N   1      32.090  17.599  10.079  1.00  0.00     0.186 HD
ENDBRANCH  22  23
ENDBRANCH  17  22
ENDBRANCH  10  11
ENDBRANCH   1  10
TORSDOF 4
ENDMDL
MODEL 2
REMARK VINA RESULT:      -8.7      3.034      4.253
REMARK  4 active torsions:
REMARK  status: ('A' for Active; 'I' for Inactive)
REMARK    1  A    between atoms: C_4  and  C_12 
REMARK    2  A    between atoms: C_12  and  N_13 
REMARK    3  A    between atoms: C_18  and  O_23 
REMARK    4  A    between atoms: O_23  and  C_24 
ROOT
HETATM    1  C   UNK N   1      34.385  11.840  15.342  0.00  0.00     0.079 C 
HETATM    2  C   UNK N   1      34.657  10.562  15.859  0.00  0.00     0.060 C 
HETATM    3  C   UNK N   1      35.106  10.418  17.192  0.00  0.00     0.049 C 
HETATM    4  C   UNK N   1      35.368  11.546  17.987  0.00  0.00     0.046 C 
HETATM    5  C   UNK N   1      35.053  12.807  17.503  0.00  0.00     0.038 C 
HETATM    6  C   UNK N   1      34.502  12.930  16.237  0.00  0.00     0.061 C 
HETATM    7 Cl   UNK N   1      35.410  14.249  18.436  0.00  0.00    -0.084 Cl
HETATM    8  C   UNK N   1      35.268   9.110  17.755  0.00  0.00     0.099 C 
HETATM    9  N   UNK N   1      35.414   8.075  18.253  0.00  0.00    -0.191 NA
ENDROOT
BRANCH   1  10
HETATM   10  O   UNK N   1      34.099  12.055  13.989  0.00  0.00    -0.308 OA
BRANCH  10  11
HETATM   11  C   UNK N   1      35.098  11.965  13.038  0.00  0.00     0.111 C 
HETATM   12  C   UNK N   1      35.238  10.829  12.194  0.00  0.00     0.069 C 
HETATM   13  C   UNK N   1      35.939  10.951  10.968  0.00  0.00     0.029 C 
HETATM   14 Cl   UNK N   1      34.433   9.314  12.539  0.00  0.00    -0.081 Cl
HETATM   15  C   UNK N   1      36.411  12.206  10.547  0.00  0.00     0.034 C 
HETATM   16  C   UNK N   1      36.355  13.249  11.464  0.00  0.00     0.065 C 
HETATM   17  N   UNK N   1      36.557  14.553  11.259  0.00  0.00    -0.286 N 
HETATM   18  C   UNK N   1      35.855  13.102  12.709  0.00  0.00     0.045 C 
HETATM   19  N   UNK N   1      36.357  15.216  12.391  0.00  0.00    -0.308 N 
HETATM   20  C   UNK N   1      35.962  14.337  13.328  0.00  0.00     0.124 C 
ATOM     21  HN  UNK N   1      36.482  16.218  12.526  1.00  0.00     0.186 HD
BRANCH  17  22
HETATM   22  C   UNK N   1      36.548  15.171   9.950  0.00  0.00     0.208 C 
BRANCH  22  23
HETATM   23  C   UNK N   1      35.254  15.803   9.698  0.00  0.00     0.059 A 
HETATM   24  C   UNK N   1      34.312  15.235   8.933  0.00  0.00     0.035 A 
HETATM   25  C   UNK N   1      34.266  14.011   8.292  0.00  0.00     0.018 A 
HETATM   26  C   UNK N   1      33.333  16.155   8.824  0.00  0.00     0.132 A 
HETATM   27  C   UNK N   1      33.140  13.762   7.502  0.00  0.00     0.018 A 
HETATM   28  C   UNK N   1      32.131  14.753   7.389  0.00  0.00     0.090 A 
HETATM   29  N   UNK N   1      32.238  15.946   8.059  0.00  0.00    -0.351 N 
ATOM     30  HN  UNK N   1      31.510  16.657   7.982  1.00  0.00     0.166 HD
HETATM   31  N   UNK N   1      33.650  17.261   9.522  0.00  0.00    -0.284 N 
HETATM   32  N   UNK N   1      34.849  17.046  10.065  0.00  0.00    -0.301 N 
HETATM   33  H   UNK N   1      33.103  18.074   9.614  0.00  0.00     0.188 HD
ATOM     34  HN  UNK N   1      35.368  17.698  10.652  1.00  0.00     0.186 HD
ENDBRANCH  22  23
ENDBRANCH  17  22
ENDBRANCH  10  11
ENDBRANCH   1  10
TORSDOF 4
ENDMDL
MODEL 3
REMARK VINA RESULT:      -8.5      2.476      3.314
REMARK  4 active torsions:
REMARK  status: ('A' for Active; 'I' for Inactive)
REMARK    1  A    between atoms: C_4  and  C_12 
REMARK    2  A    between atoms: C_12  and  N_13 
REMARK    3  A    between atoms: C_18  and  O_23 
REMARK    4  A    between atoms: O_23  and  C_24 
ROOT
HETATM    1  C   UNK N   1      34.992  11.831  15.378  0.00  0.00     0.079 C 
HETATM    2  C   UNK N   1      34.727  12.541  16.561  0.00  0.00     0.060 C 
HETATM    3  C   UNK N   1      35.269  12.099  17.790  0.00  0.00     0.049 C 
HETATM    4  C   UNK N   1      36.005  10.905  17.861  0.00  0.00     0.046 C 
HETATM    5  C   UNK N   1      36.315  10.226  16.692  0.00  0.00     0.038 C 
HETATM    6  C   UNK N   1      35.878  10.733  15.477  0.00  0.00     0.061 C 
HETATM    7 Cl   UNK N   1      37.186   8.703  16.733  0.00  0.00    -0.084 Cl
HETATM    8  C   UNK N   1      35.097  12.888  18.974  0.00  0.00     0.099 C 
HETATM    9  N   UNK N   1      34.984  13.491  19.955  0.00  0.00    -0.191 NA
ENDROOT
BRANCH   1  10
HETATM   10  O   UNK N   1      34.353  12.125  14.168  0.00  0.00    -0.308 OA
BRANCH  10  11
HETATM   11  C   UNK N   1      35.059  12.111  12.980  0.00  0.00     0.111 C 
HETATM   12  C   UNK N   1      34.961  11.035  12.055  0.00  0.00     0.069 C 
HETATM   13  C   UNK N   1      35.307  11.247  10.697  0.00  0.00     0.029 C 
HETATM   14 Cl   UNK N   1      34.268   9.490  12.500  0.00  0.00    -0.081 Cl
HETATM   15  C   UNK N   1      35.656  12.533  10.250  0.00  0.00     0.034 C 
HETATM   16  C   UNK N   1      35.854  13.512  11.218  0.00  0.00     0.065 C 
HETATM   17  N   UNK N   1      36.002  14.828  11.054  0.00  0.00    -0.286 N 
HETATM   18  C   UNK N   1      35.706  13.275  12.538  0.00  0.00     0.045 C 
HETATM   19  N   UNK N   1      36.117  15.412  12.240  0.00  0.00    -0.308 N 
HETATM   20  C   UNK N   1      35.983  14.468  13.188  0.00  0.00     0.124 C 
ATOM     21  HN  UNK N   1      36.280  16.405  12.404  1.00  0.00     0.186 HD
BRANCH  17  22
HETATM   22  C   UNK N   1      35.645  15.532   9.840  0.00  0.00     0.208 C 
BRANCH  22  23
HETATM   23  C   UNK N   1      34.194  15.526   9.659  0.00  0.00     0.059 A 
HETATM   24  C   UNK N   1      33.597  16.095   8.603  0.00  0.00     0.035 A 
HETATM   25  C   UNK N   1      34.115  16.721   7.484  0.00  0.00     0.018 A 
HETATM   26  C   UNK N   1      32.275  16.009   8.846  0.00  0.00     0.132 A 
HETATM   27  C   UNK N   1      33.190  17.279   6.597  0.00  0.00     0.018 A 
HETATM   28  C   UNK N   1      31.804  17.190   6.884  0.00  0.00     0.090 A 
HETATM   29  N   UNK N   1      31.358  16.548   8.012  0.00  0.00    -0.351 N 
ATOM     30  HN  UNK N   1      30.361  16.479   8.215  1.00  0.00     0.166 HD
HETATM   31  N   UNK N   1      32.054  15.381  10.016  0.00  0.00    -0.284 N 
HETATM   32  N   UNK N   1      33.249  15.081  10.526  0.00  0.00    -0.301 N 
HETATM   33  H   UNK N   1      31.178  15.181  10.419  0.00  0.00     0.188 HD
ATOM     34  HN  UNK N   1      33.422  14.604  11.410  1.00  0.00     0.186 HD
ENDBRANCH  22  23
ENDBRANCH  17  22
ENDBRANCH  10  11
ENDBRANCH   1  10
TORSDOF 4
ENDMDL
MODEL 4
REMARK VINA RESULT:      -8.3      8.202     13.743
REMARK  4 active torsions:
REMARK  status: ('A' for Active; 'I' for Inactive)
REMARK    1  A    between atoms: C_4  and  C_12 
REMARK    2  A    between atoms: C_12  and  N_13 
REMARK    3  A    between atoms: C_18  and  O_23 
REMARK    4  A    between atoms: O_23  and  C_24 
ROOT
HETATM    1  C   UNK N   1      21.588  15.736   2.861  0.00  0.00     0.079 C 
HETATM    2  C   UNK N   1      21.597  17.039   3.385  0.00  0.00     0.060 C 
HETATM    3  C   UNK N   1      20.789  18.042   2.804  0.00  0.00     0.049 C 
HETATM    4  C   UNK N   1      20.036  17.777   1.648  0.00  0.00     0.046 C 
HETATM    5  C   UNK N   1      19.981  16.482   1.155  0.00  0.00     0.038 C 
HETATM    6  C   UNK N   1      20.684  15.478   1.803  0.00  0.00     0.061 C 
HETATM    7 Cl   UNK N   1      19.097  16.110  -0.315  0.00  0.00    -0.084 Cl
HETATM    8  C   UNK N   1      20.708  19.338   3.411  0.00  0.00     0.099 C 
HETATM    9  N   UNK N   1      20.611  20.398   3.865  0.00  0.00    -0.191 NA
ENDROOT
BRANCH   1  10
HETATM   10  O   UNK N   1      22.485  14.750   3.288  0.00  0.00    -0.308 OA
BRANCH  10  11
HETATM   11  C   UNK N   1      23.843  14.897   3.076  0.00  0.00     0.111 C 
HETATM   12  C   UNK N   1      24.433  14.701   1.797  0.00  0.00     0.069 C 
HETATM   13  C   UNK N   1      25.691  15.290   1.510  0.00  0.00     0.029 C 
HETATM   14 Cl   UNK N   1      23.585  13.890   0.498  0.00  0.00    -0.081 Cl
HETATM   15  C   UNK N   1      26.305  16.135   2.449  0.00  0.00     0.034 C 
HETATM   16  C   UNK N   1      25.745  16.189   3.721  0.00  0.00     0.065 C 
HETATM   17  N   UNK N   1      26.015  17.036   4.716  0.00  0.00    -0.286 N 
HETATM   18  C   UNK N   1      24.645  15.487   4.066  0.00  0.00     0.045 C 
HETATM   19  N   UNK N   1      25.221  16.777   5.747  0.00  0.00    -0.308 N 
HETATM   20  C   UNK N   1      24.384  15.786   5.394  0.00  0.00     0.124 C 
ATOM     21  HN  UNK N   1      25.242  17.248   6.651  1.00  0.00     0.186 HD
BRANCH  17  22
HETATM   22  C   UNK N   1      26.720  18.288   4.537  0.00  0.00     0.208 C 
BRANCH  22  23
HETATM   23  C   UNK N   1      27.120  18.835   5.833  0.00  0.00     0.059 A 
HETATM   24  C   UNK N   1      28.173  18.368   6.517  0.00  0.00     0.035 A 
HETATM   25  C   UNK N   1      29.111  17.400   6.209  0.00  0.00     0.018 A 
HETATM   26  C   UNK N   1      28.148  19.011   7.700  0.00  0.00     0.132 A 
HETATM   27  C   UNK N   1      30.051  17.103   7.200  0.00  0.00     0.018 A 
HETATM   28  C   UNK N   1      29.993  17.782   8.444  0.00  0.00     0.090 A 
HETATM   29  N   UNK N   1      29.038  18.738   8.681  0.00  0.00    -0.351 N 
ATOM     30  HN  UNK N   1      28.999  19.229   9.574  1.00  0.00     0.166 HD
HETATM   31  N   UNK N   1      27.115  19.873   7.743  0.00  0.00    -0.284 N 
HETATM   32  N   UNK N   1      26.471  19.763   6.582  0.00  0.00    -0.301 N 
HETATM   33  H   UNK N   1      26.880  20.471   8.489  0.00  0.00     0.188 HD
ATOM     34  HN  UNK N   1      25.639  20.283   6.304  1.00  0.00     0.186 HD
ENDBRANCH  22  23
ENDBRANCH  17  22
ENDBRANCH  10  11
ENDBRANCH   1  10
TORSDOF 4
ENDMDL
MODEL 5
REMARK VINA RESULT:      -8.2      1.752      2.175
REMARK  4 active torsions:
REMARK  status: ('A' for Active; 'I' for Inactive)
REMARK    1  A    between atoms: C_4  and  C_12 
REMARK    2  A    between atoms: C_12  and  N_13 
REMARK    3  A    between atoms: C_18  and  O_23 
REMARK    4  A    between atoms: O_23  and  C_24 
ROOT
HETATM    1  C   UNK N   1      35.378  12.627  12.227  0.00  0.00     0.079 C 
HETATM    2  C   UNK N   1      36.121  11.442  12.097  0.00  0.00     0.060 C 
HETATM    3  C   UNK N   1      37.067  11.087  13.085  0.00  0.00     0.049 C 
HETATM    4  C   UNK N   1      37.338  11.948  14.162  0.00  0.00     0.046 C 
HETATM    5  C   UNK N   1      36.574  13.093  14.325  0.00  0.00     0.038 C 
HETATM    6  C   UNK N   1      35.567  13.373  13.414  0.00  0.00     0.061 C 
HETATM    7 Cl   UNK N   1      36.908  14.227  15.622  0.00  0.00    -0.084 Cl
HETATM    8  C   UNK N   1      37.737   9.822  13.014  0.00  0.00     0.099 C 
HETATM    9  N   UNK N   1      38.303   8.812  12.998  0.00  0.00    -0.191 NA
ENDROOT
BRANCH   1  10
HETATM   10  O   UNK N   1      34.553  13.110  11.205  0.00  0.00    -0.308 OA
BRANCH  10  11
HETATM   11  C   UNK N   1      35.100  13.719  10.090  0.00  0.00     0.111 C 
HETATM   12  C   UNK N   1      35.238  13.038   8.849  0.00  0.00     0.069 C 
HETATM   13  C   UNK N   1      35.357  13.787   7.651  0.00  0.00     0.029 C 
HETATM   14 Cl   UNK N   1      35.103  11.297   8.726  0.00  0.00    -0.081 Cl
HETATM   15  C   UNK N   1      35.246  15.188   7.680  0.00  0.00     0.034 C 
HETATM   16  C   UNK N   1      35.237  15.801   8.929  0.00  0.00     0.065 C 
HETATM   17  N   UNK N   1      34.957  17.070   9.232  0.00  0.00    -0.286 N 
HETATM   18  C   UNK N   1      35.309  15.107  10.084  0.00  0.00     0.045 C 
HETATM   19  N   UNK N   1      35.013  17.233  10.548  0.00  0.00    -0.308 N 
HETATM   20  C   UNK N   1      35.274  16.040  11.109  0.00  0.00     0.124 C 
ATOM     21  HN  UNK N   1      34.880  18.112  11.047  1.00  0.00     0.186 HD
BRANCH  17  22
HETATM   22  C   UNK N   1      34.275  17.979   8.335  0.00  0.00     0.208 C 
BRANCH  22  23
HETATM   23  C   UNK N   1      32.900  17.535   8.112  0.00  0.00     0.059 A 
HETATM   24  C   UNK N   1      32.388  17.365   6.885  0.00  0.00     0.035 A 
HETATM   25  C   UNK N   1      32.957  17.483   5.630  0.00  0.00     0.018 A 
HETATM   26  C   UNK N   1      31.084  17.087   7.074  0.00  0.00     0.132 A 
HETATM   27  C   UNK N   1      32.102  17.305   4.539  0.00  0.00     0.018 A 
HETATM   28  C   UNK N   1      30.728  17.029   4.764  0.00  0.00     0.090 A 
HETATM   29  N   UNK N   1      30.232  16.919   6.038  0.00  0.00    -0.351 N 
ATOM     30  HN  UNK N   1      29.245  16.717   6.200  1.00  0.00     0.166 HD
HETATM   31  N   UNK N   1      30.796  17.064   8.389  0.00  0.00    -0.284 N 
HETATM   32  N   UNK N   1      31.926  17.345   9.038  0.00  0.00    -0.301 N 
HETATM   33  H   UNK N   1      29.919  16.875   8.794  0.00  0.00     0.188 HD
ATOM     34  HN  UNK N   1      32.038  17.408  10.049  1.00  0.00     0.186 HD
ENDBRANCH  22  23
ENDBRANCH  17  22
ENDBRANCH  10  11
ENDBRANCH   1  10
TORSDOF 4
ENDMDL
MODEL 6
REMARK VINA RESULT:      -8.2     15.666     18.987
REMARK  4 active torsions:
REMARK  status: ('A' for Active; 'I' for Inactive)
REMARK    1  A    between atoms: C_4  and  C_12 
REMARK    2  A    between atoms: C_12  and  N_13 
REMARK    3  A    between atoms: C_18  and  O_23 
REMARK    4  A    between atoms: O_23  and  C_24 
ROOT
HETATM    1  C   UNK N   1      31.108  22.144  -5.707  0.00  0.00     0.079 C 
HETATM    2  C   UNK N   1      30.057  22.447  -4.826  0.00  0.00     0.060 C 
HETATM    3  C   UNK N   1      30.230  22.283  -3.433  0.00  0.00     0.049 C 
HETATM    4  C   UNK N   1      31.417  21.737  -2.916  0.00  0.00     0.046 C 
HETATM    5  C   UNK N   1      32.477  21.484  -3.773  0.00  0.00     0.038 C 
HETATM    6  C   UNK N   1      32.339  21.759  -5.124  0.00  0.00     0.061 C 
HETATM    7 Cl   UNK N   1      33.961  20.753  -3.185  0.00  0.00    -0.084 Cl
HETATM    8  C   UNK N   1      29.201  22.704  -2.528  0.00  0.00     0.099 C 
HETATM    9  N   UNK N   1      28.399  23.029  -1.760  0.00  0.00    -0.191 NA
ENDROOT
BRANCH   1  10
HETATM   10  O   UNK N   1      30.941  22.129  -7.096  0.00  0.00    -0.308 OA
BRANCH  10  11
HETATM   11  C   UNK N   1      29.682  21.991  -7.650  0.00  0.00     0.111 C 
HETATM   12  C   UNK N   1      29.044  20.726  -7.769  0.00  0.00     0.069 C 
HETATM   13  C   UNK N   1      27.633  20.664  -7.897  0.00  0.00     0.029 C 
HETATM   14 Cl   UNK N   1      29.926  19.223  -7.601  0.00  0.00    -0.081 Cl
HETATM   15  C   UNK N   1      26.865  21.837  -7.813  0.00  0.00     0.034 C 
HETATM   16  C   UNK N   1      27.548  23.049  -7.821  0.00  0.00     0.065 C 
HETATM   17  N   UNK N   1      27.079  24.272  -7.565  0.00  0.00    -0.286 N 
HETATM   18  C   UNK N   1      28.893  23.129  -7.885  0.00  0.00     0.045 C 
HETATM   19  N   UNK N   1      28.072  25.149  -7.630  0.00  0.00    -0.308 N 
HETATM   20  C   UNK N   1      29.211  24.478  -7.872  0.00  0.00     0.124 C 
ATOM     21  HN  UNK N   1      27.986  26.159  -7.517  1.00  0.00     0.186 HD
BRANCH  17  22
HETATM   22  C   UNK N   1      25.820  24.527  -6.897  0.00  0.00     0.208 C 
BRANCH  22  23
HETATM   23  C   UNK N   1      26.050  24.842  -5.488  0.00  0.00     0.059 A 
HETATM   24  C   UNK N   1      25.864  26.070  -4.984  0.00  0.00     0.035 A 
HETATM   25  C   UNK N   1      25.396  27.236  -5.562  0.00  0.00     0.018 A 
HETATM   26  C   UNK N   1      26.298  26.008  -3.711  0.00  0.00     0.132 A 
HETATM   27  C   UNK N   1      25.398  28.377  -4.754  0.00  0.00     0.018 A 
HETATM   28  C   UNK N   1      25.876  28.290  -3.421  0.00  0.00     0.090 A 
HETATM   29  N   UNK N   1      26.321  27.096  -2.910  0.00  0.00    -0.351 N 
ATOM     30  HN  UNK N   1      26.660  27.032  -1.950  1.00  0.00     0.166 HD
HETATM   31  N   UNK N   1      26.725  24.764  -3.422  0.00  0.00    -0.284 N 
HETATM   32  N   UNK N   1      26.575  24.037  -4.529  0.00  0.00    -0.301 N 
HETATM   33  H   UNK N   1      27.081  24.452  -2.559  0.00  0.00     0.188 HD
ATOM     34  HN  UNK N   1      26.811  23.051  -4.636  1.00  0.00     0.186 HD
ENDBRANCH  22  23
ENDBRANCH  17  22
ENDBRANCH  10  11
ENDBRANCH   1  10
TORSDOF 4
ENDMDL
MODEL 7
REMARK VINA RESULT:      -8.2      6.951     12.342
REMARK  4 active torsions:
REMARK  status: ('A' for Active; 'I' for Inactive)
REMARK    1  A    between atoms: C_4  and  C_12 
REMARK    2  A    between atoms: C_12  and  N_13 
REMARK    3  A    between atoms: C_18  and  O_23 
REMARK    4  A    between atoms: O_23  and  C_24 
ROOT
HETATM    1  C   UNK N   1      22.622  15.342   4.264  0.00  0.00     0.079 C 
HETATM    2  C   UNK N   1      22.412  16.211   5.348  0.00  0.00     0.060 C 
HETATM    3  C   UNK N   1      21.445  17.238   5.257  0.00  0.00     0.049 C 
HETATM    4  C   UNK N   1      20.743  17.458   4.060  0.00  0.00     0.046 C 
HETATM    5  C   UNK N   1      20.906  16.574   3.004  0.00  0.00     0.038 C 
HETATM    6  C   UNK N   1      21.771  15.500   3.145  0.00  0.00     0.061 C 
HETATM    7 Cl   UNK N   1      20.093  16.836   1.470  0.00  0.00    -0.084 Cl
HETATM    8  C   UNK N   1      21.147  18.047   6.402  0.00  0.00     0.099 C 
HETATM    9  N   UNK N   1      20.874  18.725   7.299  0.00  0.00    -0.191 NA
ENDROOT
BRANCH   1  10
HETATM   10  O   UNK N   1      23.673  14.419   4.237  0.00  0.00    -0.308 OA
BRANCH  10  11
HETATM   11  C   UNK N   1      24.969  14.838   3.997  0.00  0.00     0.111 C 
HETATM   12  C   UNK N   1      25.450  15.091   2.682  0.00  0.00     0.069 C 
HETATM   13  C   UNK N   1      26.576  15.932   2.500  0.00  0.00     0.029 C 
HETATM   14 Cl   UNK N   1      24.599  14.528   1.260  0.00  0.00    -0.081 Cl
HETATM   15  C   UNK N   1      27.155  16.585   3.602  0.00  0.00     0.034 C 
HETATM   16  C   UNK N   1      26.723  16.204   4.867  0.00  0.00     0.065 C 
HETATM   17  N   UNK N   1      26.969  16.788   6.043  0.00  0.00    -0.286 N 
HETATM   18  C   UNK N   1      25.774  15.265   5.064  0.00  0.00     0.045 C 
HETATM   19  N   UNK N   1      26.326  16.136   7.004  0.00  0.00    -0.308 N 
HETATM   20  C   UNK N   1      25.607  15.152   6.436  0.00  0.00     0.124 C 
ATOM     21  HN  UNK N   1      26.371  16.345   8.001  1.00  0.00     0.186 HD
BRANCH  17  22
HETATM   22  C   UNK N   1      27.467  18.140   6.180  0.00  0.00     0.208 C 
BRANCH  22  23
HETATM   23  C   UNK N   1      28.228  18.275   7.422  0.00  0.00     0.059 A 
HETATM   24  C   UNK N   1      29.481  17.819   7.551  0.00  0.00     0.035 A 
HETATM   25  C   UNK N   1      30.338  17.221   6.645  0.00  0.00     0.018 A 
HETATM   26  C   UNK N   1      29.798  17.998   8.848  0.00  0.00     0.132 A 
HETATM   27  C   UNK N   1      31.572  16.794   7.142  0.00  0.00     0.018 A 
HETATM   28  C   UNK N   1      31.876  16.978   8.516  0.00  0.00     0.090 A 
HETATM   29  N   UNK N   1      30.980  17.586   9.359  0.00  0.00    -0.351 N 
ATOM     30  HN  UNK N   1      31.200  17.723  10.346  1.00  0.00     0.166 HD
HETATM   31  N   UNK N   1      28.773  18.572   9.505  0.00  0.00    -0.284 N 
HETATM   32  N   UNK N   1      27.792  18.742   8.619  0.00  0.00    -0.301 N 
HETATM   33  H   UNK N   1      28.751  18.818  10.458  0.00  0.00     0.188 HD
ATOM     34  HN  UNK N   1      26.877  19.151   8.807  1.00  0.00     0.186 HD
ENDBRANCH  22  23
ENDBRANCH  17  22
ENDBRANCH  10  11
ENDBRANCH   1  10
TORSDOF 4
ENDMDL
MODEL 8
REMARK VINA RESULT:      -8.0     10.860     13.752
REMARK  4 active torsions:
REMARK  status: ('A' for Active; 'I' for Inactive)
REMARK    1  A    between atoms: C_4  and  C_12 
REMARK    2  A    between atoms: C_12  and  N_13 
REMARK    3  A    between atoms: C_18  and  O_23 
REMARK    4  A    between atoms: O_23  and  C_24 
ROOT
HETATM    1  C   UNK N   1      26.205  16.465   3.690  0.00  0.00     0.079 C 
HETATM    2  C   UNK N   1      25.402  17.556   3.316  0.00  0.00     0.060 C 
HETATM    3  C   UNK N   1      25.910  18.872   3.398  0.00  0.00     0.049 C 
HETATM    4  C   UNK N   1      27.187  19.116   3.931  0.00  0.00     0.046 C 
HETATM    5  C   UNK N   1      28.005  18.044   4.254  0.00  0.00     0.038 C 
HETATM    6  C   UNK N   1      27.540  16.752   4.058  0.00  0.00     0.061 C 
HETATM    7 Cl   UNK N   1      29.586  18.296   4.972  0.00  0.00    -0.084 Cl
HETATM    8  C   UNK N   1      25.135  19.972   2.905  0.00  0.00     0.099 C 
HETATM    9  N   UNK N   1      24.546  20.891   2.521  0.00  0.00    -0.191 NA
ENDROOT
BRANCH   1  10
HETATM   10  O   UNK N   1      25.702  15.162   3.785  0.00  0.00    -0.308 OA
BRANCH  10  11
HETATM   11  C   UNK N   1      24.571  14.901   4.536  0.00  0.00     0.111 C 
HETATM   12  C   UNK N   1      24.475  15.262   5.908  0.00  0.00     0.069 C 
HETATM   13  C   UNK N   1      23.196  15.406   6.504  0.00  0.00     0.029 C 
HETATM   14 Cl   UNK N   1      25.882  15.698   6.853  0.00  0.00    -0.081 Cl
HETATM   15  C   UNK N   1      22.035  15.283   5.723  0.00  0.00     0.034 C 
HETATM   16  C   UNK N   1      22.188  14.808   4.424  0.00  0.00     0.065 C 
HETATM   17  N   UNK N   1      21.291  14.779   3.436  0.00  0.00    -0.286 N 
HETATM   18  C   UNK N   1      23.389  14.490   3.899  0.00  0.00     0.045 C 
HETATM   19  N   UNK N   1      21.856  14.293   2.339  0.00  0.00    -0.308 N 
HETATM   20  C   UNK N   1      23.154  14.059   2.603  0.00  0.00     0.124 C 
ATOM     21  HN  UNK N   1      21.388  14.125   1.449  1.00  0.00     0.186 HD
BRANCH  17  22
HETATM   22  C   UNK N   1      20.068  15.556   3.437  0.00  0.00     0.208 C 
BRANCH  22  23
HETATM   23  C   UNK N   1      20.092  16.538   2.354  0.00  0.00     0.059 A 
HETATM   24  C   UNK N   1      20.510  17.798   2.534  0.00  0.00     0.035 A 
HETATM   25  C   UNK N   1      21.037  18.441   3.639  0.00  0.00     0.018 A 
HETATM   26  C   UNK N   1      20.264  18.429   1.370  0.00  0.00     0.132 A 
HETATM   27  C   UNK N   1      21.304  19.805   3.499  0.00  0.00     0.018 A 
HETATM   28  C   UNK N   1      21.020  20.451   2.268  0.00  0.00     0.090 A 
HETATM   29  N   UNK N   1      20.502  19.750   1.208  0.00  0.00    -0.351 N 
ATOM     30  HN  UNK N   1      20.303  20.213   0.322  1.00  0.00     0.166 HD
HETATM   31  N   UNK N   1      19.723  17.576   0.480  0.00  0.00    -0.284 N 
HETATM   32  N   UNK N   1      19.612  16.397   1.092  0.00  0.00    -0.301 N 
HETATM   33  H   UNK N   1      19.461  17.782  -0.446  0.00  0.00     0.188 HD
ATOM     34  HN  UNK N   1      19.235  15.542   0.685  1.00  0.00     0.186 HD
ENDBRANCH  22  23
ENDBRANCH  17  22
ENDBRANCH  10  11
ENDBRANCH   1  10
TORSDOF 4
ENDMDL
MODEL 9
REMARK VINA RESULT:      -7.9      4.889     10.120
REMARK  4 active torsions:
REMARK  status: ('A' for Active; 'I' for Inactive)
REMARK    1  A    between atoms: C_4  and  C_12 
REMARK    2  A    between atoms: C_12  and  N_13 
REMARK    3  A    between atoms: C_18  and  O_23 
REMARK    4  A    between atoms: O_23  and  C_24 
ROOT
HETATM    1  C   UNK N   1      27.352  18.572   5.142  0.00  0.00     0.079 C 
HETATM    2  C   UNK N   1      26.735  19.487   4.273  0.00  0.00     0.060 C 
HETATM    3  C   UNK N   1      25.444  19.220   3.762  0.00  0.00     0.049 C 
HETATM    4  C   UNK N   1      24.798  18.005   4.043  0.00  0.00     0.046 C 
HETATM    5  C   UNK N   1      25.376  17.120   4.940  0.00  0.00     0.038 C 
HETATM    6  C   UNK N   1      26.589  17.444   5.528  0.00  0.00     0.061 C 
HETATM    7 Cl   UNK N   1      24.635  15.566   5.284  0.00  0.00    -0.084 Cl
HETATM    8  C   UNK N   1      24.767  20.207   2.973  0.00  0.00     0.099 C 
HETATM    9  N   UNK N   1      24.183  20.973   2.332  0.00  0.00    -0.191 NA
ENDROOT
BRANCH   1  10
HETATM   10  O   UNK N   1      28.685  18.703   5.545  0.00  0.00    -0.308 OA
BRANCH  10  11
HETATM   11  C   UNK N   1      29.455  17.583   5.798  0.00  0.00     0.111 C 
HETATM   12  C   UNK N   1      29.922  16.735   4.756  0.00  0.00     0.069 C 
HETATM   13  C   UNK N   1      31.047  15.903   4.983  0.00  0.00     0.029 C 
HETATM   14 Cl   UNK N   1      29.254  16.800   3.139  0.00  0.00    -0.081 Cl
HETATM   15  C   UNK N   1      31.751  15.984   6.197  0.00  0.00     0.034 C 
HETATM   16  C   UNK N   1      31.178  16.734   7.218  0.00  0.00     0.065 C 
HETATM   17  N   UNK N   1      31.720  17.118   8.376  0.00  0.00    -0.286 N 
HETATM   18  C   UNK N   1      30.006  17.388   7.075  0.00  0.00     0.045 C 
HETATM   19  N   UNK N   1      30.851  17.865   9.045  0.00  0.00    -0.308 N 
HETATM   20  C   UNK N   1      29.753  18.017   8.284  0.00  0.00     0.124 C 
ATOM     21  HN  UNK N   1      30.992  18.257   9.976  1.00  0.00     0.186 HD
BRANCH  17  22
HETATM   22  C   UNK N   1      33.143  17.102   8.641  0.00  0.00     0.208 C 
BRANCH  22  23
HETATM   23  C   UNK N   1      33.532  15.826   9.239  0.00  0.00     0.059 A 
HETATM   24  C   UNK N   1      34.413  14.999   8.660  0.00  0.00     0.035 A 
HETATM   25  C   UNK N   1      35.166  15.122   7.506  0.00  0.00     0.018 A 
HETATM   26  C   UNK N   1      34.416  13.886   9.419  0.00  0.00     0.132 A 
HETATM   27  C   UNK N   1      35.943  14.017   7.148  0.00  0.00     0.018 A 
HETATM   28  C   UNK N   1      35.917  12.851   7.954  0.00  0.00     0.090 A 
HETATM   29  N   UNK N   1      35.150  12.799   9.091  0.00  0.00    -0.351 N 
ATOM     30  HN  UNK N   1      35.134  11.962   9.674  1.00  0.00     0.166 HD
HETATM   31  N   UNK N   1      33.572  14.026  10.458  0.00  0.00    -0.284 N 
HETATM   32  N   UNK N   1      33.017  15.233  10.346  0.00  0.00    -0.301 N 
HETATM   33  H   UNK N   1      33.397  13.364  11.165  0.00  0.00     0.188 HD
ATOM     34  HN  UNK N   1      32.329  15.639  10.980  1.00  0.00     0.186 HD
ENDBRANCH  22  23
ENDBRANCH  17  22
ENDBRANCH  10  11
ENDBRANCH   1  10
TORSDOF 4
ENDMDL
