MODEL 1
REMARK VINA RESULT:      -6.5      0.000      0.000
REMARK  3 active torsions:
REMARK  status: ('A' for Active; 'I' for Inactive)
REMARK    1  A    between atoms: N_20  and  C_12 
REMARK    2  A    between atoms: C_16  and  C_14 
REMARK    3  A    between atoms: N_20  and  C_14 
ROOT
HETATM    1  C   UNK N   1      29.368  22.994  -1.850  0.00  0.00     0.013 C 
HETATM    2  C   UNK N   1      30.241  22.959  -2.679  0.00  0.00    -0.087 C 
HETATM    3  C   UNK N   1      31.242  22.959  -3.745  0.00  0.00     0.364 C 
ENDROOT
BRANCH   3   4
HETATM    4  N   UNK N   1      30.653  23.606  -4.902  0.00  0.00     0.099 N 
HETATM    5  C   UNK N   1      31.711  23.859  -5.873  0.00  0.00     0.311 C 
BRANCH   4   6
HETATM    6  C   UNK N   1      29.668  22.712  -5.490  0.00  0.00     0.312 C 
BRANCH   6   7
HETATM    7  C   UNK N   1      28.334  23.361  -5.830  0.00  0.00    -0.016 C 
HETATM    8  C   UNK N   1      28.158  24.497  -5.167  0.00  0.00     0.024 C 
HETATM    9  C   UNK N   1      27.095  25.485  -5.134  0.00  0.00    -0.002 A 
HETATM   10  C   UNK N   1      27.378  26.628  -4.376  0.00  0.00     0.014 A 
HETATM   11  C   UNK N   1      25.855  25.380  -5.790  0.00  0.00     0.086 A 
HETATM   12  C   UNK N   1      26.461  27.671  -4.276  0.00  0.00     0.001 A 
HETATM   13  C   UNK N   1      25.240  27.578  -4.934  0.00  0.00     0.003 A 
HETATM   14  C   UNK N   1      24.941  26.437  -5.676  0.00  0.00     0.038 A 
HETATM   15  O   UNK N   1      25.460  24.335  -6.543  0.00  0.00    -0.309 OA
HETATM   16  C   UNK N   1      26.030  23.226  -7.062  0.00  0.00     0.086 A 
HETATM   17  C   UNK N   1      25.208  22.508  -7.945  0.00  0.00     0.038 A 
HETATM   18  C   UNK N   1      27.353  22.755  -6.806  0.00  0.00     0.006 A 
HETATM   19  C   UNK N   1      25.650  21.366  -8.600  0.00  0.00     0.003 A 
HETATM   20  C   UNK N   1      26.946  20.926  -8.400  0.00  0.00     0.001 A 
HETATM   21  C   UNK N   1      27.772  21.611  -7.518  0.00  0.00     0.015 A 
ENDBRANCH   6   7
ENDBRANCH   4   6
ENDBRANCH   3   4
TORSDOF 3
ENDMDL
MODEL 2
REMARK VINA RESULT:      -6.4      0.900      4.572
REMARK  3 active torsions:
REMARK  status: ('A' for Active; 'I' for Inactive)
REMARK    1  A    between atoms: N_20  and  C_12 
REMARK    2  A    between atoms: C_16  and  C_14 
REMARK    3  A    between atoms: N_20  and  C_14 
ROOT
HETATM    1  C   UNK N   1      31.546  21.759  -5.524  0.00  0.00     0.013 C 
HETATM    2  C   UNK N   1      31.264  22.295  -4.483  0.00  0.00    -0.087 C 
HETATM    3  C   UNK N   1      30.834  22.947  -3.247  0.00  0.00     0.364 C 
ENDROOT
BRANCH   3   4
HETATM    4  N   UNK N   1      29.394  23.113  -3.316  0.00  0.00     0.099 N 
HETATM    5  C   UNK N   1      28.862  23.068  -1.959  0.00  0.00     0.311 C 
BRANCH   4   6
HETATM    6  C   UNK N   1      29.099  24.411  -3.903  0.00  0.00     0.312 C 
BRANCH   6   7
HETATM    7  C   UNK N   1      27.937  24.421  -4.885  0.00  0.00    -0.016 C 
HETATM    8  C   UNK N   1      27.995  23.396  -5.726  0.00  0.00     0.024 C 
HETATM    9  C   UNK N   1      27.154  22.947  -6.820  0.00  0.00    -0.002 A 
HETATM   10  C   UNK N   1      27.519  21.713  -7.374  0.00  0.00     0.014 A 
HETATM   11  C   UNK N   1      26.040  23.633  -7.336  0.00  0.00     0.086 A 
HETATM   12  C   UNK N   1      26.786  21.145  -8.413  0.00  0.00     0.001 A 
HETATM   13  C   UNK N   1      25.677  21.813  -8.915  0.00  0.00     0.003 A 
HETATM   14  C   UNK N   1      25.315  23.050  -8.385  0.00  0.00     0.038 A 
HETATM   15  O   UNK N   1      25.590  24.825  -6.897  0.00  0.00    -0.309 OA
HETATM   16  C   UNK N   1      25.835  25.644  -5.852  0.00  0.00     0.086 A 
HETATM   17  C   UNK N   1      24.956  26.735  -5.748  0.00  0.00     0.038 A 
HETATM   18  C   UNK N   1      26.865  25.487  -4.876  0.00  0.00     0.006 A 
HETATM   19  C   UNK N   1      25.040  27.652  -4.709  0.00  0.00     0.003 A 
HETATM   20  C   UNK N   1      26.002  27.485  -3.730  0.00  0.00     0.001 A 
HETATM   21  C   UNK N   1      26.893  26.423  -3.821  0.00  0.00     0.015 A 
ENDBRANCH   6   7
ENDBRANCH   4   6
ENDBRANCH   3   4
TORSDOF 3
ENDMDL
MODEL 3
REMARK VINA RESULT:      -6.3      1.929      5.087
REMARK  3 active torsions:
REMARK  status: ('A' for Active; 'I' for Inactive)
REMARK    1  A    between atoms: N_20  and  C_12 
REMARK    2  A    between atoms: C_16  and  C_14 
REMARK    3  A    between atoms: N_20  and  C_14 
ROOT
HETATM    1  C   UNK N   1      27.432  27.250  -7.593  0.00  0.00     0.013 C 
HETATM    2  C   UNK N   1      26.677  27.313  -6.658  0.00  0.00    -0.087 C 
HETATM    3  C   UNK N   1      25.820  27.340  -5.474  0.00  0.00     0.364 C 
ENDROOT
BRANCH   3   4
HETATM    4  N   UNK N   1      26.506  26.620  -4.418  0.00  0.00     0.099 N 
HETATM    5  C   UNK N   1      26.180  27.251  -3.145  0.00  0.00     0.311 C 
BRANCH   4   6
HETATM    6  C   UNK N   1      26.035  25.244  -4.404  0.00  0.00     0.312 C 
BRANCH   6   7
HETATM    7  C   UNK N   1      27.057  24.210  -4.853  0.00  0.00    -0.016 C 
HETATM    8  C   UNK N   1      28.036  24.072  -3.967  0.00  0.00     0.024 C 
HETATM    9  C   UNK N   1      29.221  23.237  -3.905  0.00  0.00    -0.002 A 
HETATM   10  C   UNK N   1      29.933  23.315  -2.701  0.00  0.00     0.014 A 
HETATM   11  C   UNK N   1      29.681  22.384  -4.925  0.00  0.00     0.086 A 
HETATM   12  C   UNK N   1      31.076  22.550  -2.489  0.00  0.00     0.001 A 
HETATM   13  C   UNK N   1      31.526  21.696  -3.489  0.00  0.00     0.003 A 
HETATM   14  C   UNK N   1      30.836  21.623  -4.697  0.00  0.00     0.038 A 
HETATM   15  O   UNK N   1      29.093  22.222  -6.126  0.00  0.00    -0.309 OA
HETATM   16  C   UNK N   1      27.929  22.583  -6.707  0.00  0.00     0.086 A 
HETATM   17  C   UNK N   1      27.706  22.010  -7.970  0.00  0.00     0.038 A 
HETATM   18  C   UNK N   1      26.941  23.453  -6.156  0.00  0.00     0.006 A 
HETATM   19  C   UNK N   1      26.541  22.242  -8.689  0.00  0.00     0.003 A 
HETATM   20  C   UNK N   1      25.554  23.043  -8.146  0.00  0.00     0.001 A 
HETATM   21  C   UNK N   1      25.759  23.634  -6.905  0.00  0.00     0.015 A 
ENDBRANCH   6   7
ENDBRANCH   4   6
ENDBRANCH   3   4
TORSDOF 3
ENDMDL
MODEL 4
REMARK VINA RESULT:      -6.3      1.800      5.584
REMARK  3 active torsions:
REMARK  status: ('A' for Active; 'I' for Inactive)
REMARK    1  A    between atoms: N_20  and  C_12 
REMARK    2  A    between atoms: C_16  and  C_14 
REMARK    3  A    between atoms: N_20  and  C_14 
ROOT
HETATM    1  C   UNK N   1      28.287  20.312  -8.174  0.00  0.00     0.013 C 
HETATM    2  C   UNK N   1      27.355  20.963  -8.571  0.00  0.00    -0.087 C 
HETATM    3  C   UNK N   1      26.263  21.827  -9.016  0.00  0.00     0.364 C 
ENDROOT
BRANCH   3   4
HETATM    4  N   UNK N   1      26.575  23.180  -8.597  0.00  0.00     0.099 N 
HETATM    5  C   UNK N   1      26.141  24.096  -9.645  0.00  0.00     0.311 C 
BRANCH   4   6
HETATM    6  C   UNK N   1      25.845  23.473  -7.374  0.00  0.00     0.312 C 
BRANCH   6   7
HETATM    7  C   UNK N   1      26.687  24.053  -6.247  0.00  0.00    -0.016 C 
HETATM    8  C   UNK N   1      27.726  23.278  -5.960  0.00  0.00     0.024 C 
HETATM    9  C   UNK N   1      28.813  23.371  -5.005  0.00  0.00    -0.002 A 
HETATM   10  C   UNK N   1      29.791  22.375  -5.128  0.00  0.00     0.014 A 
HETATM   11  C   UNK N   1      28.951  24.355  -4.009  0.00  0.00     0.086 A 
HETATM   12  C   UNK N   1      30.907  22.355  -4.296  0.00  0.00     0.001 A 
HETATM   13  C   UNK N   1      31.054  23.333  -3.320  0.00  0.00     0.003 A 
HETATM   14  C   UNK N   1      30.078  24.317  -3.176  0.00  0.00     0.038 A 
HETATM   15  O   UNK N   1      28.081  25.359  -3.783  0.00  0.00    -0.309 OA
HETATM   16  C   UNK N   1      27.004  25.884  -4.404  0.00  0.00     0.086 A 
HETATM   17  C   UNK N   1      26.524  27.073  -3.832  0.00  0.00     0.038 A 
HETATM   18  C   UNK N   1      26.350  25.355  -5.558  0.00  0.00     0.006 A 
HETATM   19  C   UNK N   1      25.448  27.768  -4.370  0.00  0.00     0.003 A 
HETATM   20  C   UNK N   1      24.836  27.294  -5.516  0.00  0.00     0.001 A 
HETATM   21  C   UNK N   1      25.283  26.111  -6.090  0.00  0.00     0.015 A 
ENDBRANCH   6   7
ENDBRANCH   4   6
ENDBRANCH   3   4
TORSDOF 3
ENDMDL
MODEL 5
REMARK VINA RESULT:      -6.0      1.899      5.370
REMARK  3 active torsions:
REMARK  status: ('A' for Active; 'I' for Inactive)
REMARK    1  A    between atoms: N_20  and  C_12 
REMARK    2  A    between atoms: C_16  and  C_14 
REMARK    3  A    between atoms: N_20  and  C_14 
ROOT
HETATM    1  C   UNK N   1      29.296  19.210  -7.795  0.00  0.00     0.013 C 
HETATM    2  C   UNK N   1      28.595  19.958  -8.425  0.00  0.00    -0.087 C 
HETATM    3  C   UNK N   1      27.784  20.938  -9.147  0.00  0.00     0.364 C 
ENDROOT
BRANCH   3   4
HETATM    4  N   UNK N   1      28.176  22.257  -8.688  0.00  0.00     0.099 N 
HETATM    5  C   UNK N   1      28.336  23.118  -9.854  0.00  0.00     0.311 C 
BRANCH   4   6
HETATM    6  C   UNK N   1      27.124  22.792  -7.839  0.00  0.00     0.312 C 
BRANCH   6   7
HETATM    7  C   UNK N   1      27.584  23.273  -6.471  0.00  0.00    -0.016 C 
HETATM    8  C   UNK N   1      28.577  22.529  -5.997  0.00  0.00     0.024 C 
HETATM    9  C   UNK N   1      29.362  22.564  -4.778  0.00  0.00    -0.002 A 
HETATM   10  C   UNK N   1      30.424  21.650  -4.736  0.00  0.00     0.014 A 
HETATM   11  C   UNK N   1      29.145  23.420  -3.684  0.00  0.00     0.086 A 
HETATM   12  C   UNK N   1      31.279  21.590  -3.639  0.00  0.00     0.001 A 
HETATM   13  C   UNK N   1      31.076  22.444  -2.563  0.00  0.00     0.003 A 
HETATM   14  C   UNK N   1      30.013  23.343  -2.585  0.00  0.00     0.038 A 
HETATM   15  O   UNK N   1      28.160  24.336  -3.597  0.00  0.00    -0.309 OA
HETATM   16  C   UNK N   1      27.241  24.871  -4.428  0.00  0.00     0.086 A 
HETATM   17  C   UNK N   1      26.523  25.950  -3.885  0.00  0.00     0.038 A 
HETATM   18  C   UNK N   1      26.963  24.456  -5.765  0.00  0.00     0.006 A 
HETATM   19  C   UNK N   1      25.568  26.643  -4.618  0.00  0.00     0.003 A 
HETATM   20  C   UNK N   1      25.323  26.283  -5.930  0.00  0.00     0.001 A 
HETATM   21  C   UNK N   1      26.010  25.209  -6.484  0.00  0.00     0.015 A 
ENDBRANCH   6   7
ENDBRANCH   4   6
ENDBRANCH   3   4
TORSDOF 3
ENDMDL
MODEL 6
REMARK VINA RESULT:      -5.9      1.929      5.767
REMARK  3 active torsions:
REMARK  status: ('A' for Active; 'I' for Inactive)
REMARK    1  A    between atoms: N_20  and  C_12 
REMARK    2  A    between atoms: C_16  and  C_14 
REMARK    3  A    between atoms: N_20  and  C_14 
ROOT
HETATM    1  C   UNK N   1      27.952  28.381  -7.017  0.00  0.00     0.013 C 
HETATM    2  C   UNK N   1      27.041  27.865  -6.422  0.00  0.00    -0.087 C 
HETATM    3  C   UNK N   1      25.994  27.224  -5.628  0.00  0.00     0.364 C 
ENDROOT
BRANCH   3   4
HETATM    4  N   UNK N   1      26.579  26.839  -4.358  0.00  0.00     0.099 N 
HETATM    5  C   UNK N   1      25.992  27.669  -3.312  0.00  0.00     0.311 C 
BRANCH   4   6
HETATM    6  C   UNK N   1      26.259  25.444  -4.096  0.00  0.00     0.312 C 
BRANCH   6   7
HETATM    7  C   UNK N   1      27.053  24.438  -4.917  0.00  0.00    -0.016 C 
HETATM    8  C   UNK N   1      26.289  23.824  -5.812  0.00  0.00     0.024 C 
HETATM    9  C   UNK N   1      26.543  22.813  -6.822  0.00  0.00    -0.002 A 
HETATM   10  C   UNK N   1      25.456  22.533  -7.660  0.00  0.00     0.014 A 
HETATM   11  C   UNK N   1      27.758  22.130  -7.015  0.00  0.00     0.086 A 
HETATM   12  C   UNK N   1      25.563  21.604  -8.692  0.00  0.00     0.001 A 
HETATM   13  C   UNK N   1      26.765  20.938  -8.894  0.00  0.00     0.003 A 
HETATM   14  C   UNK N   1      27.847  21.195  -8.055  0.00  0.00     0.038 A 
HETATM   15  O   UNK N   1      28.872  22.303  -6.277  0.00  0.00    -0.309 OA
HETATM   16  C   UNK N   1      29.303  23.170  -5.336  0.00  0.00     0.086 A 
HETATM   17  C   UNK N   1      30.653  23.020  -4.981  0.00  0.00     0.038 A 
HETATM   18  C   UNK N   1      28.529  24.194  -4.710  0.00  0.00     0.006 A 
HETATM   19  C   UNK N   1      31.269  23.856  -4.058  0.00  0.00     0.003 A 
HETATM   20  C   UNK N   1      30.546  24.882  -3.480  0.00  0.00     0.001 A 
HETATM   21  C   UNK N   1      29.204  25.040  -3.804  0.00  0.00     0.015 A 
ENDBRANCH   6   7
ENDBRANCH   4   6
ENDBRANCH   3   4
TORSDOF 3
ENDMDL
MODEL 7
REMARK VINA RESULT:      -5.8      1.776      4.340
REMARK  3 active torsions:
REMARK  status: ('A' for Active; 'I' for Inactive)
REMARK    1  A    between atoms: N_20  and  C_12 
REMARK    2  A    between atoms: C_16  and  C_14 
REMARK    3  A    between atoms: N_20  and  C_14 
ROOT
HETATM    1  C   UNK N   1      29.478  19.139  -7.717  0.00  0.00     0.013 C 
HETATM    2  C   UNK N   1      28.688  19.919  -8.185  0.00  0.00    -0.087 C 
HETATM    3  C   UNK N   1      27.765  20.930  -8.697  0.00  0.00     0.364 C 
ENDROOT
BRANCH   3   4
HETATM    4  N   UNK N   1      28.071  22.182  -8.031  0.00  0.00     0.099 N 
HETATM    5  C   UNK N   1      28.088  23.242  -9.033  0.00  0.00     0.311 C 
BRANCH   4   6
HETATM    6  C   UNK N   1      27.029  22.463  -7.057  0.00  0.00     0.312 C 
BRANCH   6   7
HETATM    7  C   UNK N   1      27.374  23.543  -6.042  0.00  0.00    -0.016 C 
HETATM    8  C   UNK N   1      26.497  24.540  -6.068  0.00  0.00     0.024 C 
HETATM    9  C   UNK N   1      26.361  25.776  -5.321  0.00  0.00    -0.002 A 
HETATM   10  C   UNK N   1      25.188  26.496  -5.584  0.00  0.00     0.014 A 
HETATM   11  C   UNK N   1      27.283  26.277  -4.384  0.00  0.00     0.086 A 
HETATM   12  C   UNK N   1      24.911  27.688  -4.920  0.00  0.00     0.001 A 
HETATM   13  C   UNK N   1      25.813  28.178  -3.984  0.00  0.00     0.003 A 
HETATM   14  C   UNK N   1      26.991  27.480  -3.728  0.00  0.00     0.038 A 
HETATM   15  O   UNK N   1      28.446  25.685  -4.047  0.00  0.00    -0.309 OA
HETATM   16  C   UNK N   1      29.042  24.494  -4.265  0.00  0.00     0.086 A 
HETATM   17  C   UNK N   1      30.225  24.292  -3.535  0.00  0.00     0.038 A 
HETATM   18  C   UNK N   1      28.577  23.459  -5.131  0.00  0.00     0.006 A 
HETATM   19  C   UNK N   1      30.943  23.106  -3.608  0.00  0.00     0.003 A 
HETATM   20  C   UNK N   1      30.478  22.077  -4.406  0.00  0.00     0.001 A 
HETATM   21  C   UNK N   1      29.319  22.259  -5.150  0.00  0.00     0.015 A 
ENDBRANCH   6   7
ENDBRANCH   4   6
ENDBRANCH   3   4
TORSDOF 3
ENDMDL
MODEL 8
REMARK VINA RESULT:      -5.8     14.130     16.031
REMARK  3 active torsions:
REMARK  status: ('A' for Active; 'I' for Inactive)
REMARK    1  A    between atoms: N_20  and  C_12 
REMARK    2  A    between atoms: C_16  and  C_14 
REMARK    3  A    between atoms: N_20  and  C_14 
ROOT
HETATM    1  C   UNK N   1      36.653  14.018   8.630  0.00  0.00     0.013 C 
HETATM    2  C   UNK N   1      35.632  14.266   9.218  0.00  0.00    -0.087 C 
HETATM    3  C   UNK N   1      34.411  14.657   9.920  0.00  0.00     0.364 C 
ENDROOT
BRANCH   3   4
HETATM    4  N   UNK N   1      34.334  16.105   9.895  0.00  0.00     0.099 N 
HETATM    5  C   UNK N   1      35.423  16.636  10.707  0.00  0.00     0.311 C 
BRANCH   4   6
HETATM    6  C   UNK N   1      34.493  16.561   8.524  0.00  0.00     0.312 C 
BRANCH   6   7
HETATM    7  C   UNK N   1      33.198  16.688   7.735  0.00  0.00    -0.016 C 
HETATM    8  C   UNK N   1      32.236  17.252   8.456  0.00  0.00     0.024 C 
HETATM    9  C   UNK N   1      30.855  17.603   8.185  0.00  0.00    -0.002 A 
HETATM   10  C   UNK N   1      30.219  18.318   9.209  0.00  0.00     0.014 A 
HETATM   11  C   UNK N   1      30.142  17.294   7.013  0.00  0.00     0.086 A 
HETATM   12  C   UNK N   1      28.900  18.745   9.077  0.00  0.00     0.001 A 
HETATM   13  C   UNK N   1      28.197  18.454   7.914  0.00  0.00     0.003 A 
HETATM   14  C   UNK N   1      28.814  17.728   6.897  0.00  0.00     0.038 A 
HETATM   15  O   UNK N   1      30.635  16.610   5.962  0.00  0.00    -0.309 OA
HETATM   16  C   UNK N   1      31.844  16.168   5.556  0.00  0.00     0.086 A 
HETATM   17  C   UNK N   1      31.864  15.630   4.259  0.00  0.00     0.038 A 
HETATM   18  C   UNK N   1      33.059  16.216   6.306  0.00  0.00     0.006 A 
HETATM   19  C   UNK N   1      33.033  15.168   3.670  0.00  0.00     0.003 A 
HETATM   20  C   UNK N   1      34.225  15.253   4.366  0.00  0.00     0.001 A 
HETATM   21  C   UNK N   1      34.228  15.766   5.657  0.00  0.00     0.015 A 
ENDBRANCH   6   7
ENDBRANCH   4   6
ENDBRANCH   3   4
TORSDOF 3
ENDMDL
MODEL 9
REMARK VINA RESULT:      -5.7     11.273     13.463
REMARK  3 active torsions:
REMARK  status: ('A' for Active; 'I' for Inactive)
REMARK    1  A    between atoms: N_20  and  C_12 
REMARK    2  A    between atoms: C_16  and  C_14 
REMARK    3  A    between atoms: N_20  and  C_14 
ROOT
HETATM    1  C   UNK N   1      21.051  14.836   8.658  0.00  0.00     0.013 C 
HETATM    2  C   UNK N   1      20.956  15.027   7.473  0.00  0.00    -0.087 C 
HETATM    3  C   UNK N   1      20.930  15.235   6.026  0.00  0.00     0.364 C 
ENDROOT
BRANCH   3   4
HETATM    4  N   UNK N   1      22.251  14.925   5.513  0.00  0.00     0.099 N 
HETATM    5  C   UNK N   1      22.460  13.486   5.625  0.00  0.00     0.311 C 
BRANCH   4   6
HETATM    6  C   UNK N   1      22.315  15.310   4.113  0.00  0.00     0.312 C 
BRANCH   6   7
HETATM    7  C   UNK N   1      22.766  16.741   3.860  0.00  0.00    -0.016 C 
HETATM    8  C   UNK N   1      24.070  16.888   4.063  0.00  0.00     0.024 C 
HETATM    9  C   UNK N   1      24.981  18.012   3.956  0.00  0.00    -0.002 A 
HETATM   10  C   UNK N   1      26.333  17.692   4.140  0.00  0.00     0.014 A 
HETATM   11  C   UNK N   1      24.617  19.343   3.684  0.00  0.00     0.086 A 
HETATM   12  C   UNK N   1      27.323  18.666   4.039  0.00  0.00     0.001 A 
HETATM   13  C   UNK N   1      26.968  19.979   3.757  0.00  0.00     0.003 A 
HETATM   14  C   UNK N   1      25.625  20.312   3.590  0.00  0.00     0.038 A 
HETATM   15  O   UNK N   1      23.357  19.780   3.493  0.00  0.00    -0.309 OA
HETATM   16  C   UNK N   1      22.139  19.223   3.320  0.00  0.00     0.086 A 
HETATM   17  C   UNK N   1      21.124  20.134   2.983  0.00  0.00     0.038 A 
HETATM   18  C   UNK N   1      21.817  17.837   3.432  0.00  0.00     0.006 A 
HETATM   19  C   UNK N   1      19.821  19.726   2.729  0.00  0.00     0.003 A 
HETATM   20  C   UNK N   1      19.507  18.381   2.786  0.00  0.00     0.001 A 
HETATM   21  C   UNK N   1      20.490  17.462   3.133  0.00  0.00     0.015 A 
ENDBRANCH   6   7
ENDBRANCH   4   6
ENDBRANCH   3   4
TORSDOF 3
ENDMDL
