MODEL 1
REMARK VINA RESULT:      -7.2      0.000      0.000
REMARK  2 active torsions:
REMARK  status: ('A' for Active; 'I' for Inactive)
REMARK    1  A    between atoms: C_6  and  C_23 
REMARK       I    between atoms: C_9  and  N_17 
REMARK    2  A    between atoms: N_13  and  C_14 
REMARK       I    between atoms: C_27  and  N_31 
ROOT
HETATM    1  C   UNK N   1      28.796  18.311   9.434  0.00  0.00     0.089 C 
HETATM    2  C   UNK N   1      29.804  17.534   8.657  0.00  0.00     0.081 A 
HETATM    3  N   UNK N   1      30.988  17.140   9.195  0.00  0.00    -0.341 N 
ATOM      4  HN  UNK N   1      31.332  17.306  10.141  1.00  0.00     0.167 HD
HETATM    5  C   UNK N   1      31.600  16.481   8.195  0.00  0.00     0.107 A 
HETATM    6  C   UNK N   1      32.847  15.855   8.165  0.00  0.00     0.092 A 
HETATM    7  N   UNK N   1      33.211  15.257   6.994  0.00  0.00    -0.188 N 
ATOM      8  HN  UNK N   1      34.116  14.790   6.942  1.00  0.00     0.184 HD
HETATM    9  C   UNK N   1      32.405  15.261   5.884  0.00  0.00     0.682 A 
HETATM   10  N   UNK N   1      31.181  15.881   5.932  0.00  0.00    -0.174 N 
ATOM     11  HN  UNK N   1      30.569  15.893   5.117  1.00  0.00     0.186 HD
HETATM   12  C   UNK N   1      30.809  16.480   7.093  0.00  0.00     0.154 A 
HETATM   13  N   UNK N   1      29.666  17.139   7.357  0.00  0.00    -0.317 N 
HETATM   14  N   UNK N   1      32.840  14.596   4.704  0.00  0.00    -0.213 N 
HETATM   15  C   UNK N   1      34.152  13.954   4.712  0.00  0.00     0.167 C 
HETATM   16  C   UNK N   1      34.377  13.076   3.485  0.00  0.00     0.188 C 
HETATM   17  O   UNK N   1      33.901  13.731   2.345  0.00  0.00    -0.388 OA
HETATM   18  C   UNK N   1      32.509  13.634   2.443  0.00  0.00     0.188 C 
HETATM   19  C   UNK N   1      31.991  14.592   3.521  0.00  0.00     0.167 C 
ENDROOT
BRANCH   6  20
HETATM   20  C   UNK N   1      33.778  15.803   9.316  0.00  0.00     0.025 A 
HETATM   21  C   UNK N   1      34.604  16.876   9.664  0.00  0.00     0.121 A 
HETATM   22  N   UNK N   1      35.441  16.771  10.729  0.00  0.00    -0.201 N 
HETATM   23  C   UNK N   1      35.489  15.631  11.470  0.00  0.00     0.675 A 
ATOM     24  HN  UNK N   1      36.042  17.557  10.977  1.00  0.00     0.183 HD
HETATM   25  N   UNK N   1      34.694  14.578  11.151  0.00  0.00    -0.201 N 
HETATM   26  N   UNK N   1      36.364  15.541  12.570  0.00  0.00    -0.234 N 
HETATM   27  C   UNK N   1      33.845  14.644  10.095  0.00  0.00     0.121 A 
ATOM     28  HN  UNK N   1      34.735  13.727  11.712  1.00  0.00     0.183 HD
HETATM   29  H   UNK N   1      36.397  14.717  13.106  0.00  0.00     0.174 HD
HETATM   30  H   UNK N   1      36.942  16.303  12.802  0.00  0.00     0.174 HD
ENDBRANCH   6  20
BRANCH  13  31
HETATM   31  C   UNK N   1      28.534  17.374   6.442  0.00  0.00     0.085 C 
HETATM   32  C   UNK N   1      28.553  18.542   5.471  0.00  0.00     0.032 C 
HETATM   33  C   UNK N   1      27.325  16.455   6.482  0.00  0.00     0.032 C 
ENDBRANCH  13  31
TORSDOF 2
ENDMDL
MODEL 2
REMARK VINA RESULT:      -7.2      2.270      5.164
REMARK  2 active torsions:
REMARK  status: ('A' for Active; 'I' for Inactive)
REMARK    1  A    between atoms: C_6  and  C_23 
REMARK       I    between atoms: C_9  and  N_17 
REMARK    2  A    between atoms: N_13  and  C_14 
REMARK       I    between atoms: C_27  and  N_31 
ROOT
HETATM    1  C   UNK N   1      36.076  13.965   4.871  0.00  0.00     0.089 C 
HETATM    2  C   UNK N   1      35.037  14.577   5.747  0.00  0.00     0.081 A 
HETATM    3  N   UNK N   1      35.194  14.685   7.093  0.00  0.00    -0.341 N 
ATOM      4  HN  UNK N   1      35.990  14.385   7.656  1.00  0.00     0.167 HD
HETATM    5  C   UNK N   1      34.062  15.278   7.510  0.00  0.00     0.107 A 
HETATM    6  C   UNK N   1      33.662  15.641   8.797  0.00  0.00     0.092 A 
HETATM    7  N   UNK N   1      32.441  16.237   8.920  0.00  0.00    -0.188 N 
ATOM      8  HN  UNK N   1      32.121  16.515   9.848  1.00  0.00     0.184 HD
HETATM    9  C   UNK N   1      31.627  16.476   7.842  0.00  0.00     0.682 A 
HETATM   10  N   UNK N   1      32.037  16.113   6.584  0.00  0.00    -0.174 N 
ATOM     11  HN  UNK N   1      31.445  16.284   5.771  1.00  0.00     0.186 HD
HETATM   12  C   UNK N   1      33.251  15.518   6.450  0.00  0.00     0.154 A 
HETATM   13  N   UNK N   1      33.842  15.086   5.321  0.00  0.00    -0.317 N 
HETATM   14  N   UNK N   1      30.376  17.124   8.044  0.00  0.00    -0.213 N 
HETATM   15  C   UNK N   1      29.992  17.486   9.405  0.00  0.00     0.167 C 
HETATM   16  C   UNK N   1      28.762  18.388   9.443  0.00  0.00     0.188 C 
HETATM   17  O   UNK N   1      27.814  17.927   8.525  0.00  0.00    -0.388 OA
HETATM   18  C   UNK N   1      28.330  18.294   7.277  0.00  0.00     0.188 C 
HETATM   19  C   UNK N   1      29.505  17.384   6.906  0.00  0.00     0.167 C 
ENDROOT
BRANCH   6  20
HETATM   20  C   UNK N   1      34.478  15.420  10.013  0.00  0.00     0.025 A 
HETATM   21  C   UNK N   1      35.564  16.234  10.348  0.00  0.00     0.121 A 
HETATM   22  N   UNK N   1      36.279  15.983  11.476  0.00  0.00    -0.201 N 
HETATM   23  C   UNK N   1      35.952  14.946  12.293  0.00  0.00     0.675 A 
ATOM     24  HN  UNK N   1      37.071  16.580  11.714  1.00  0.00     0.183 HD
HETATM   25  N   UNK N   1      34.900  14.144  11.988  0.00  0.00    -0.201 N 
HETATM   26  N   UNK N   1      36.706  14.701  13.457  0.00  0.00    -0.234 N 
HETATM   27  C   UNK N   1      34.162  14.362  10.871  0.00  0.00     0.121 A 
ATOM     28  HN  UNK N   1      34.661  13.369  12.607  1.00  0.00     0.183 HD
HETATM   29  H   UNK N   1      36.469  13.951  14.048  0.00  0.00     0.174 HD
HETATM   30  H   UNK N   1      37.470  15.280  13.679  0.00  0.00     0.174 HD
ENDBRANCH   6  20
BRANCH  13  31
HETATM   31  C   UNK N   1      33.310  15.151   3.948  0.00  0.00     0.085 C 
HETATM   32  C   UNK N   1      33.223  16.478   3.214  0.00  0.00     0.032 C 
HETATM   33  C   UNK N   1      32.821  13.885   3.265  0.00  0.00     0.032 C 
ENDBRANCH  13  31
TORSDOF 2
ENDMDL
MODEL 3
REMARK VINA RESULT:      -6.9      3.189      4.730
REMARK  2 active torsions:
REMARK  status: ('A' for Active; 'I' for Inactive)
REMARK    1  A    between atoms: C_6  and  C_23 
REMARK       I    between atoms: C_9  and  N_17 
REMARK    2  A    between atoms: N_13  and  C_14 
REMARK       I    between atoms: C_27  and  N_31 
ROOT
HETATM    1  C   UNK N   1      26.596  21.179   6.405  0.00  0.00     0.089 C 
HETATM    2  C   UNK N   1      27.110  19.853   5.956  0.00  0.00     0.081 A 
HETATM    3  N   UNK N   1      28.238  19.300   6.474  0.00  0.00    -0.341 N 
ATOM      4  HN  UNK N   1      28.851  19.684   7.193  1.00  0.00     0.167 HD
HETATM    5  C   UNK N   1      28.359  18.130   5.821  0.00  0.00     0.107 A 
HETATM    6  C   UNK N   1      29.332  17.136   5.936  0.00  0.00     0.092 A 
HETATM    7  N   UNK N   1      29.196  16.041   5.134  0.00  0.00    -0.188 N 
ATOM      8  HN  UNK N   1      29.890  15.297   5.196  1.00  0.00     0.184 HD
HETATM    9  C   UNK N   1      28.159  15.904   4.246  0.00  0.00     0.682 A 
HETATM   10  N   UNK N   1      27.211  16.892   4.146  0.00  0.00    -0.174 N 
ATOM     11  HN  UNK N   1      26.433  16.806   3.493  1.00  0.00     0.186 HD
HETATM   12  C   UNK N   1      27.338  17.986   4.941  0.00  0.00     0.154 A 
HETATM   13  N   UNK N   1      26.531  19.062   5.005  0.00  0.00    -0.317 N 
HETATM   14  N   UNK N   1      28.068  14.723   3.458  0.00  0.00    -0.213 N 
HETATM   15  C   UNK N   1      29.106  13.707   3.606  0.00  0.00     0.167 C 
HETATM   16  C   UNK N   1      28.750  12.403   2.897  0.00  0.00     0.188 C 
HETATM   17  O   UNK N   1      28.190  12.686   1.648  0.00  0.00    -0.388 OA
HETATM   18  C   UNK N   1      26.902  13.148   1.939  0.00  0.00     0.188 C 
HETATM   19  C   UNK N   1      26.970  14.567   2.513  0.00  0.00     0.167 C 
ENDROOT
BRANCH   6  20
HETATM   20  C   UNK N   1      30.481  17.203   6.868  0.00  0.00     0.025 A 
HETATM   21  C   UNK N   1      30.322  17.279   8.254  0.00  0.00     0.121 A 
HETATM   22  N   UNK N   1      31.414  17.341   9.062  0.00  0.00    -0.201 N 
HETATM   23  C   UNK N   1      32.670  17.329   8.539  0.00  0.00     0.675 A 
ATOM     24  HN  UNK N   1      31.291  17.398  10.073  1.00  0.00     0.183 HD
HETATM   25  N   UNK N   1      32.847  17.254   7.195  0.00  0.00    -0.201 N 
HETATM   26  N   UNK N   1      33.789  17.395   9.391  0.00  0.00    -0.234 N 
HETATM   27  C   UNK N   1      31.783  17.190   6.357  0.00  0.00     0.121 A 
ATOM     28  HN  UNK N   1      33.792  17.244   6.811  1.00  0.00     0.183 HD
HETATM   29  H   UNK N   1      34.697  17.385   9.013  0.00  0.00     0.174 HD
HETATM   30  H   UNK N   1      33.662  17.451  10.366  0.00  0.00     0.174 HD
ENDBRANCH   6  20
BRANCH  13  31
HETATM   31  C   UNK N   1      25.308  19.314   4.221  0.00  0.00     0.085 C 
HETATM   32  C   UNK N   1      25.338  20.237   3.015  0.00  0.00     0.032 C 
HETATM   33  C   UNK N   1      23.998  18.666   4.634  0.00  0.00     0.032 C 
ENDBRANCH  13  31
TORSDOF 2
ENDMDL
MODEL 4
REMARK VINA RESULT:      -6.9      6.065      9.495
REMARK  2 active torsions:
REMARK  status: ('A' for Active; 'I' for Inactive)
REMARK    1  A    between atoms: C_6  and  C_23 
REMARK       I    between atoms: C_9  and  N_17 
REMARK    2  A    between atoms: N_13  and  C_14 
REMARK       I    between atoms: C_27  and  N_31 
ROOT
HETATM    1  C   UNK N   1      24.822  13.085   8.004  0.00  0.00     0.089 C 
HETATM    2  C   UNK N   1      24.601  14.296   7.163  0.00  0.00     0.081 A 
HETATM    3  N   UNK N   1      25.628  14.993   6.611  0.00  0.00    -0.341 N 
ATOM      4  HN  UNK N   1      26.627  14.801   6.686  1.00  0.00     0.167 HD
HETATM    5  C   UNK N   1      25.026  15.993   5.943  0.00  0.00     0.107 A 
HETATM    6  C   UNK N   1      25.579  17.025   5.184  0.00  0.00     0.092 A 
HETATM    7  N   UNK N   1      24.709  17.908   4.614  0.00  0.00    -0.188 N 
ATOM      8  HN  UNK N   1      25.083  18.673   4.052  1.00  0.00     0.184 HD
HETATM    9  C   UNK N   1      23.350  17.805   4.768  0.00  0.00     0.682 A 
HETATM   10  N   UNK N   1      22.823  16.783   5.517  0.00  0.00    -0.174 N 
ATOM     11  HN  UNK N   1      21.816  16.691   5.641  1.00  0.00     0.186 HD
HETATM   12  C   UNK N   1      23.681  15.899   6.090  0.00  0.00     0.154 A 
HETATM   13  N   UNK N   1      23.383  14.834   6.857  0.00  0.00    -0.317 N 
HETATM   14  N   UNK N   1      22.503  18.749   4.123  0.00  0.00    -0.213 N 
HETATM   15  C   UNK N   1      23.119  19.816   3.339  0.00  0.00     0.167 C 
HETATM   16  C   UNK N   1      22.101  20.592   2.509  0.00  0.00     0.188 C 
HETATM   17  O   UNK N   1      20.955  20.829   3.274  0.00  0.00    -0.388 OA
HETATM   18  C   UNK N   1      20.309  19.589   3.329  0.00  0.00     0.188 C 
HETATM   19  C   UNK N   1      21.057  18.648   4.278  0.00  0.00     0.167 C 
ENDROOT
BRANCH   6  20
HETATM   20  C   UNK N   1      27.032  17.209   4.967  0.00  0.00     0.025 A 
HETATM   21  C   UNK N   1      27.908  17.565   5.996  0.00  0.00     0.121 A 
HETATM   22  N   UNK N   1      29.233  17.723   5.738  0.00  0.00    -0.201 N 
HETATM   23  C   UNK N   1      29.726  17.537   4.484  0.00  0.00     0.675 A 
ATOM     24  HN  UNK N   1      29.866  17.984   6.494  1.00  0.00     0.183 HD
HETATM   25  N   UNK N   1      28.894  17.189   3.469  0.00  0.00    -0.201 N 
HETATM   26  N   UNK N   1      31.102  17.706   4.235  0.00  0.00    -0.234 N 
HETATM   27  C   UNK N   1      27.566  17.022   3.688  0.00  0.00     0.121 A 
ATOM     28  HN  UNK N   1      29.271  17.051   2.532  1.00  0.00     0.183 HD
HETATM   29  H   UNK N   1      31.458  17.571   3.328  0.00  0.00     0.174 HD
HETATM   30  H   UNK N   1      31.707  17.960   4.969  0.00  0.00     0.174 HD
ENDBRANCH   6  20
BRANCH  13  31
HETATM   31  C   UNK N   1      22.045  14.368   7.266  0.00  0.00     0.085 C 
HETATM   32  C   UNK N   1      21.330  15.006   8.445  0.00  0.00     0.032 C 
HETATM   33  C   UNK N   1      21.381  13.224   6.518  0.00  0.00     0.032 C 
ENDBRANCH  13  31
TORSDOF 2
ENDMDL
MODEL 5
REMARK VINA RESULT:      -6.8      4.642      8.238
REMARK  2 active torsions:
REMARK  status: ('A' for Active; 'I' for Inactive)
REMARK    1  A    between atoms: C_6  and  C_23 
REMARK       I    between atoms: C_9  and  N_17 
REMARK    2  A    between atoms: N_13  and  C_14 
REMARK       I    between atoms: C_27  and  N_31 
ROOT
HETATM    1  C   UNK N   1      37.153  14.695  15.525  0.00  0.00     0.089 C 
HETATM    2  C   UNK N   1      36.452  13.991  14.413  0.00  0.00     0.081 A 
HETATM    3  N   UNK N   1      35.979  14.648  13.322  0.00  0.00    -0.341 N 
ATOM      4  HN  UNK N   1      36.032  15.647  13.121  1.00  0.00     0.167 HD
HETATM    5  C   UNK N   1      35.426  13.681  12.569  0.00  0.00     0.107 A 
HETATM    6  C   UNK N   1      34.783  13.764  11.334  0.00  0.00     0.092 A 
HETATM    7  N   UNK N   1      34.315  12.599  10.800  0.00  0.00    -0.188 N 
ATOM      8  HN  UNK N   1      33.842  12.627   9.896  1.00  0.00     0.184 HD
HETATM    9  C   UNK N   1      34.458  11.390  11.432  0.00  0.00     0.682 A 
HETATM   10  N   UNK N   1      35.093  11.327  12.647  0.00  0.00    -0.174 N 
ATOM     11  HN  UNK N   1      35.209  10.438  13.132  1.00  0.00     0.186 HD
HETATM   12  C   UNK N   1      35.563  12.482  13.188  0.00  0.00     0.154 A 
HETATM   13  N   UNK N   1      36.209  12.648  14.357  0.00  0.00    -0.317 N 
HETATM   14  N   UNK N   1      33.966  10.213  10.804  0.00  0.00    -0.213 N 
HETATM   15  C   UNK N   1      33.298  10.341   9.512  0.00  0.00     0.167 C 
HETATM   16  C   UNK N   1      33.052   8.990   8.847  0.00  0.00     0.188 C 
HETATM   17  O   UNK N   1      32.606   8.072   9.802  0.00  0.00    -0.388 OA
HETATM   18  C   UNK N   1      33.750   7.756  10.544  0.00  0.00     0.188 C 
HETATM   19  C   UNK N   1      34.114   8.924  11.467  0.00  0.00     0.167 C 
ENDROOT
BRANCH   6  20
HETATM   20  C   UNK N   1      34.587  15.026  10.583  0.00  0.00     0.025 A 
HETATM   21  C   UNK N   1      35.481  16.097  10.666  0.00  0.00     0.121 A 
HETATM   22  N   UNK N   1      35.249  17.233   9.955  0.00  0.00    -0.201 N 
HETATM   23  C   UNK N   1      34.154  17.345   9.158  0.00  0.00     0.675 A 
ATOM     24  HN  UNK N   1      35.906  18.011  10.022  1.00  0.00     0.183 HD
HETATM   25  N   UNK N   1      33.274  16.316   9.060  0.00  0.00    -0.201 N 
HETATM   26  N   UNK N   1      33.930  18.530   8.430  0.00  0.00    -0.234 N 
HETATM   27  C   UNK N   1      33.470  15.167   9.753  0.00  0.00     0.121 A 
ATOM     28  HN  UNK N   1      32.455  16.408   8.459  1.00  0.00     0.183 HD
HETATM   29  H   UNK N   1      33.138  18.610   7.852  0.00  0.00     0.174 HD
HETATM   30  H   UNK N   1      34.567  19.278   8.500  0.00  0.00     0.174 HD
ENDBRANCH   6  20
BRANCH  13  31
HETATM   31  C   UNK N   1      36.564  11.609  15.341  0.00  0.00     0.085 C 
HETATM   32  C   UNK N   1      37.676  10.615  15.050  0.00  0.00     0.032 C 
HETATM   33  C   UNK N   1      35.798  11.511  16.648  0.00  0.00     0.032 C 
ENDBRANCH  13  31
TORSDOF 2
ENDMDL
MODEL 6
REMARK VINA RESULT:      -6.7      3.193      5.707
REMARK  2 active torsions:
REMARK  status: ('A' for Active; 'I' for Inactive)
REMARK    1  A    between atoms: C_6  and  C_23 
REMARK       I    between atoms: C_9  and  N_17 
REMARK    2  A    between atoms: N_13  and  C_14 
REMARK       I    between atoms: C_27  and  N_31 
ROOT
HETATM    1  C   UNK N   1      30.930  12.254   4.438  0.00  0.00     0.089 C 
HETATM    2  C   UNK N   1      30.479  13.597   4.904  0.00  0.00     0.081 A 
HETATM    3  N   UNK N   1      31.155  14.300   5.850  0.00  0.00    -0.341 N 
ATOM      4  HN  UNK N   1      32.007  14.031   6.342  1.00  0.00     0.167 HD
HETATM    5  C   UNK N   1      30.443  15.433   5.989  0.00  0.00     0.107 A 
HETATM    6  C   UNK N   1      30.659  16.530   6.823  0.00  0.00     0.092 A 
HETATM    7  N   UNK N   1      29.757  17.552   6.747  0.00  0.00    -0.188 N 
ATOM      8  HN  UNK N   1      29.889  18.369   7.343  1.00  0.00     0.184 HD
HETATM    9  C   UNK N   1      28.679  17.520   5.899  0.00  0.00     0.682 A 
HETATM   10  N   UNK N   1      28.483  16.432   5.086  0.00  0.00    -0.174 N 
ATOM     11  HN  UNK N   1      27.688  16.391   4.449  1.00  0.00     0.186 HD
HETATM   12  C   UNK N   1      29.375  15.410   5.154  0.00  0.00     0.154 A 
HETATM   13  N   UNK N   1      29.373  14.260   4.454  0.00  0.00    -0.317 N 
HETATM   14  N   UNK N   1      27.793  18.632   5.857  0.00  0.00    -0.213 N 
HETATM   15  C   UNK N   1      28.052  19.762   6.745  0.00  0.00     0.167 C 
HETATM   16  C   UNK N   1      27.183  20.972   6.417  0.00  0.00     0.188 C 
HETATM   17  O   UNK N   1      25.878  20.552   6.145  0.00  0.00    -0.388 OA
HETATM   18  C   UNK N   1      25.955  19.974   4.873  0.00  0.00     0.188 C 
HETATM   19  C   UNK N   1      26.647  18.610   4.958  0.00  0.00     0.167 C 
ENDROOT
BRANCH   6  20
HETATM   20  C   UNK N   1      31.795  16.647   7.766  0.00  0.00     0.025 A 
HETATM   21  C   UNK N   1      31.951  15.797   8.864  0.00  0.00     0.121 A 
HETATM   22  N   UNK N   1      33.013  15.951   9.698  0.00  0.00    -0.201 N 
HETATM   23  C   UNK N   1      33.934  16.927   9.480  0.00  0.00     0.675 A 
ATOM     24  HN  UNK N   1      33.119  15.328  10.498  1.00  0.00     0.183 HD
HETATM   25  N   UNK N   1      33.804  17.763   8.419  0.00  0.00    -0.201 N 
HETATM   26  N   UNK N   1      35.028  17.072  10.357  0.00  0.00    -0.234 N 
HETATM   27  C   UNK N   1      32.758  17.640   7.564  0.00  0.00     0.121 A 
ATOM     28  HN  UNK N   1      34.500  18.491   8.262  1.00  0.00     0.183 HD
HETATM   29  H   UNK N   1      35.695  17.778  10.198  0.00  0.00     0.174 HD
HETATM   30  H   UNK N   1      35.123  16.468  11.128  0.00  0.00     0.174 HD
ENDBRANCH   6  20
BRANCH  13  31
HETATM   31  C   UNK N   1      28.393  13.828   3.440  0.00  0.00     0.085 C 
HETATM   32  C   UNK N   1      28.536  14.264   1.992  0.00  0.00     0.032 C 
HETATM   33  C   UNK N   1      27.216  12.959   3.847  0.00  0.00     0.032 C 
ENDBRANCH  13  31
TORSDOF 2
ENDMDL
MODEL 7
REMARK VINA RESULT:      -6.5      2.600      7.086
REMARK  2 active torsions:
REMARK  status: ('A' for Active; 'I' for Inactive)
REMARK    1  A    between atoms: C_6  and  C_23 
REMARK       I    between atoms: C_9  and  N_17 
REMARK    2  A    between atoms: N_13  and  C_14 
REMARK       I    between atoms: C_27  and  N_31 
ROOT
HETATM    1  C   UNK N   1      36.836  13.674   8.641  0.00  0.00     0.089 C 
HETATM    2  C   UNK N   1      35.561  14.305   8.195  0.00  0.00     0.081 A 
HETATM    3  N   UNK N   1      35.089  14.170   6.927  0.00  0.00    -0.341 N 
ATOM      4  HN  UNK N   1      35.509  13.653   6.155  1.00  0.00     0.167 HD
HETATM    5  C   UNK N   1      33.943  14.873   6.926  0.00  0.00     0.107 A 
HETATM    6  C   UNK N   1      33.026  15.091   5.897  0.00  0.00     0.092 A 
HETATM    7  N   UNK N   1      31.937  15.858   6.191  0.00  0.00    -0.188 N 
ATOM      8  HN  UNK N   1      31.247  16.034   5.460  1.00  0.00     0.184 HD
HETATM    9  C   UNK N   1      31.732  16.400   7.435  0.00  0.00     0.682 A 
HETATM   10  N   UNK N   1      32.644  16.174   8.435  0.00  0.00    -0.174 N 
ATOM     11  HN  UNK N   1      32.508  16.569   9.365  1.00  0.00     0.186 HD
HETATM   12  C   UNK N   1      33.733  15.413   8.152  0.00  0.00     0.154 A 
HETATM   13  N   UNK N   1      34.741  15.070   8.976  0.00  0.00    -0.317 N 
HETATM   14  N   UNK N   1      30.560  17.169   7.675  0.00  0.00    -0.213 N 
HETATM   15  C   UNK N   1      29.626  17.377   6.572  0.00  0.00     0.167 C 
HETATM   16  C   UNK N   1      28.309  17.995   7.033  0.00  0.00     0.188 C 
HETATM   17  O   UNK N   1      28.567  19.009   7.960  0.00  0.00    -0.388 OA
HETATM   18  C   UNK N   1      28.922  18.329   9.131  0.00  0.00     0.188 C 
HETATM   19  C   UNK N   1      30.333  17.748   8.993  0.00  0.00     0.167 C 
ENDROOT
BRANCH   6  20
HETATM   20  C   UNK N   1      33.169  14.544   4.528  0.00  0.00     0.025 A 
HETATM   21  C   UNK N   1      33.670  15.299   3.464  0.00  0.00     0.121 A 
HETATM   22  N   UNK N   1      33.776  14.745   2.228  0.00  0.00    -0.201 N 
HETATM   23  C   UNK N   1      33.401  13.457   2.006  0.00  0.00     0.675 A 
ATOM     24  HN  UNK N   1      34.142  15.303   1.456  1.00  0.00     0.183 HD
HETATM   25  N   UNK N   1      32.913  12.705   3.025  0.00  0.00    -0.201 N 
HETATM   26  N   UNK N   1      33.517  12.901   0.717  0.00  0.00    -0.234 N 
HETATM   27  C   UNK N   1      32.792  13.222   4.273  0.00  0.00     0.121 A 
ATOM     28  HN  UNK N   1      32.634  11.739   2.850  1.00  0.00     0.183 HD
HETATM   29  H   UNK N   1      33.246  11.969   0.557  0.00  0.00     0.174 HD
HETATM   30  H   UNK N   1      33.869  13.445  -0.024  0.00  0.00     0.174 HD
ENDBRANCH   6  20
BRANCH  13  31
HETATM   31  C   UNK N   1      34.909  15.442  10.392  0.00  0.00     0.085 C 
HETATM   32  C   UNK N   1      35.443  16.812  10.774  0.00  0.00     0.032 C 
HETATM   33  C   UNK N   1      34.568  14.442  11.483  0.00  0.00     0.032 C 
ENDBRANCH  13  31
TORSDOF 2
ENDMDL
MODEL 8
REMARK VINA RESULT:      -6.4      1.810      2.634
REMARK  2 active torsions:
REMARK  status: ('A' for Active; 'I' for Inactive)
REMARK    1  A    between atoms: C_6  and  C_23 
REMARK       I    between atoms: C_9  and  N_17 
REMARK    2  A    between atoms: N_13  and  C_14 
REMARK       I    between atoms: C_27  and  N_31 
ROOT
HETATM    1  C   UNK N   1      30.861  18.222   8.751  0.00  0.00     0.089 C 
HETATM    2  C   UNK N   1      31.780  17.117   8.354  0.00  0.00     0.081 A 
HETATM    3  N   UNK N   1      32.682  16.579   9.217  0.00  0.00    -0.341 N 
ATOM      4  HN  UNK N   1      32.847  16.835  10.191  1.00  0.00     0.167 HD
HETATM    5  C   UNK N   1      33.306  15.632   8.493  0.00  0.00     0.107 A 
HETATM    6  C   UNK N   1      34.329  14.756   8.856  0.00  0.00     0.092 A 
HETATM    7  N   UNK N   1      34.770  13.890   7.898  0.00  0.00    -0.188 N 
ATOM      8  HN  UNK N   1      35.516  13.235   8.133  1.00  0.00     0.184 HD
HETATM    9  C   UNK N   1      34.248  13.867   6.630  0.00  0.00     0.682 A 
HETATM   10  N   UNK N   1      33.242  14.737   6.291  0.00  0.00    -0.174 N 
ATOM     11  HN  UNK N   1      32.841  14.734   5.353  1.00  0.00     0.186 HD
HETATM   12  C   UNK N   1      32.795  15.603   7.238  0.00  0.00     0.154 A 
HETATM   13  N   UNK N   1      31.827  16.532   7.121  0.00  0.00    -0.317 N 
HETATM   14  N   UNK N   1      34.742  12.921   5.690  0.00  0.00    -0.213 N 
HETATM   15  C   UNK N   1      35.814  12.021   6.106  0.00  0.00     0.167 C 
HETATM   16  C   UNK N   1      36.066  10.907   5.095  0.00  0.00     0.188 C 
HETATM   17  O   UNK N   1      36.027  11.432   3.800  0.00  0.00    -0.388 OA
HETATM   18  C   UNK N   1      34.668  11.660   3.556  0.00  0.00     0.188 C 
HETATM   19  C   UNK N   1      34.192  12.887   4.341  0.00  0.00     0.167 C 
ENDROOT
BRANCH   6  20
HETATM   20  C   UNK N   1      34.948  14.713  10.201  0.00  0.00     0.025 A 
HETATM   21  C   UNK N   1      34.565  13.787  11.175  0.00  0.00     0.121 A 
HETATM   22  N   UNK N   1      35.166  13.795  12.394  0.00  0.00    -0.201 N 
HETATM   23  C   UNK N   1      36.143  14.696  12.684  0.00  0.00     0.675 A 
ATOM     24  HN  UNK N   1      34.881  13.117  13.101  1.00  0.00     0.183 HD
HETATM   25  N   UNK N   1      36.532  15.603  11.752  0.00  0.00    -0.201 N 
HETATM   26  N   UNK N   1      36.754  14.689  13.953  0.00  0.00    -0.234 N 
HETATM   27  C   UNK N   1      35.956  15.626  10.524  0.00  0.00     0.121 A 
ATOM     28  HN  UNK N   1      37.266  16.274  11.977  1.00  0.00     0.183 HD
HETATM   29  H   UNK N   1      37.461  15.341  14.162  0.00  0.00     0.174 HD
HETATM   30  H   UNK N   1      36.473  14.033  14.631  0.00  0.00     0.174 HD
ENDBRANCH   6  20
BRANCH  13  31
HETATM   31  C   UNK N   1      31.015  16.836   5.929  0.00  0.00     0.085 C 
HETATM   32  C   UNK N   1      29.556  16.418   5.858  0.00  0.00     0.032 C 
HETATM   33  C   UNK N   1      31.645  17.554   4.748  0.00  0.00     0.032 C 
ENDBRANCH  13  31
TORSDOF 2
ENDMDL
MODEL 9
REMARK VINA RESULT:      -6.3      2.766      6.119
REMARK  2 active torsions:
REMARK  status: ('A' for Active; 'I' for Inactive)
REMARK    1  A    between atoms: C_6  and  C_23 
REMARK       I    between atoms: C_9  and  N_17 
REMARK    2  A    between atoms: N_13  and  C_14 
REMARK       I    between atoms: C_27  and  N_31 
ROOT
HETATM    1  C   UNK N   1      34.108  17.628   8.591  0.00  0.00     0.089 C 
HETATM    2  C   UNK N   1      32.998  16.977   7.837  0.00  0.00     0.081 A 
HETATM    3  N   UNK N   1      31.769  17.545   7.720  0.00  0.00    -0.341 N 
ATOM      4  HN  UNK N   1      31.453  18.437   8.102  1.00  0.00     0.167 HD
HETATM    5  C   UNK N   1      31.068  16.664   6.984  0.00  0.00     0.107 A 
HETATM    6  C   UNK N   1      29.744  16.715   6.548  0.00  0.00     0.092 A 
HETATM    7  N   UNK N   1      29.297  15.661   5.805  0.00  0.00    -0.188 N 
ATOM      8  HN  UNK N   1      28.334  15.670   5.469  1.00  0.00     0.184 HD
HETATM    9  C   UNK N   1      30.095  14.590   5.492  0.00  0.00     0.682 A 
HETATM   10  N   UNK N   1      31.395  14.557   5.931  0.00  0.00    -0.174 N 
ATOM     11  HN  UNK N   1      32.003  13.770   5.707  1.00  0.00     0.186 HD
HETATM   12  C   UNK N   1      31.850  15.602   6.671  0.00  0.00     0.154 A 
HETATM   13  N   UNK N   1      33.077  15.772   7.197  0.00  0.00    -0.317 N 
HETATM   14  N   UNK N   1      29.567  13.538   4.693  0.00  0.00    -0.213 N 
HETATM   15  C   UNK N   1      28.177  13.627   4.257  0.00  0.00     0.167 C 
HETATM   16  C   UNK N   1      27.827  12.572   3.211  0.00  0.00     0.188 C 
HETATM   17  O   UNK N   1      28.392  11.346   3.574  0.00  0.00    -0.388 OA
HETATM   18  C   UNK N   1      29.756  11.496   3.300  0.00  0.00     0.188 C 
HETATM   19  C   UNK N   1      30.407  12.397   4.354  0.00  0.00     0.167 C 
ENDROOT
BRANCH   6  20
HETATM   20  C   UNK N   1      28.816  17.831   6.838  0.00  0.00     0.025 A 
HETATM   21  C   UNK N   1      28.322  18.678   5.842  0.00  0.00     0.121 A 
HETATM   22  N   UNK N   1      27.474  19.689   6.167  0.00  0.00    -0.201 N 
HETATM   23  C   UNK N   1      27.093  19.892   7.457  0.00  0.00     0.675 A 
ATOM     24  HN  UNK N   1      27.118  20.303   5.435  1.00  0.00     0.183 HD
HETATM   25  N   UNK N   1      27.559  19.081   8.441  0.00  0.00    -0.201 N 
HETATM   26  N   UNK N   1      26.214  20.946   7.775  0.00  0.00    -0.234 N 
HETATM   27  C   UNK N   1      28.407  18.062   8.156  0.00  0.00     0.121 A 
ATOM     28  HN  UNK N   1      27.269  19.240   9.405  1.00  0.00     0.183 HD
HETATM   29  H   UNK N   1      25.939  21.093   8.708  0.00  0.00     0.174 HD
HETATM   30  H   UNK N   1      25.876  21.536   7.063  0.00  0.00     0.174 HD
ENDBRANCH   6  20
BRANCH  13  31
HETATM   31  C   UNK N   1      34.231  14.860   7.098  0.00  0.00     0.085 C 
HETATM   32  C   UNK N   1      35.206  14.968   5.939  0.00  0.00     0.032 C 
HETATM   33  C   UNK N   1      34.437  13.784   8.151  0.00  0.00     0.032 C 
ENDBRANCH  13  31
TORSDOF 2
ENDMDL
