MODEL 1
REMARK VINA RESULT:      -7.0      0.000      0.000
REMARK  4 active torsions:
REMARK  status: ('A' for Active; 'I' for Inactive)
REMARK    1  A    between atoms: C_11  and  N_14 
REMARK    2  A    between atoms: N_14  and  S_15 
REMARK    3  A    between atoms: S_15  and  C_18 
REMARK    4  A    between atoms: C_21  and  N_24 
ROOT
HETATM    1  N   UNK N   1      20.799  16.646   7.013  0.00  0.00    -0.265 N 
HETATM    2  H   UNK N   1      20.240  17.409   7.287  0.00  0.00     0.180 HD
ENDROOT
BRANCH   1   3
HETATM    3  C   UNK N   1      21.013  15.594   7.933  0.00  0.00     0.131 A 
HETATM    4  C   UNK N   1      20.069  15.351   8.935  0.00  0.00     0.137 A 
HETATM    5  N   UNK N   1      20.245  14.308   9.790  0.00  0.00    -0.359 N 
HETATM    6  C   UNK N   1      21.343  13.511   9.701  0.00  0.00     0.081 A 
ATOM      7  HN  UNK N   1      19.545  14.121  10.507  1.00  0.00     0.165 HD
HETATM    8  C   UNK N   1      22.308  13.773   8.706  0.00  0.00     0.062 A 
HETATM    9  C   UNK N   1      21.526  12.433  10.583  0.00  0.00     0.063 A 
HETATM   10  C   UNK N   1      23.452  12.981   8.613  0.00  0.00     0.032 A 
HETATM   11  N   UNK N   1      22.112  14.800   7.837  0.00  0.00    -0.339 N 
HETATM   12  C   UNK N   1      23.640  11.920   9.505  0.00  0.00     0.004 A 
HETATM   13  C   UNK N   1      22.676  11.643  10.480  0.00  0.00     0.026 A 
ATOM     14  HN  UNK N   1      22.797  14.975   7.102  1.00  0.00     0.167 HD
HETATM   15 Cl   UNK N   1      20.330  12.050  11.811  0.00  0.00    -0.082 Cl
ENDBRANCH   1   3
BRANCH   1  16
HETATM   16  S   UNK N   1      21.494  16.642   5.400  0.00  0.00     0.264 S 
HETATM   17  O   UNK N   1      23.008  16.667   5.657  0.00  0.00    -0.200 OA
HETATM   18  O   UNK N   1      21.326  15.190   4.927  0.00  0.00    -0.200 OA
BRANCH  16  19
HETATM   19  C   UNK N   1      21.078  17.803   4.097  0.00  0.00     0.080 A 
HETATM   20  C   UNK N   1      20.470  17.329   2.928  0.00  0.00     0.027 A 
HETATM   21  C   UNK N   1      20.252  18.189   1.849  0.00  0.00     0.030 A 
HETATM   22  C   UNK N   1      20.654  19.525   1.930  0.00  0.00     0.025 A 
HETATM   23  C   UNK N   1      21.258  20.004   3.097  0.00  0.00     0.030 A 
HETATM   24  C   UNK N   1      21.477  19.141   4.177  0.00  0.00     0.027 A 
BRANCH  22  25
HETATM   25  N   UNK N   1      20.462  20.385   0.831  0.00  0.00    -0.399 N 
HETATM   26  H   UNK N   1      19.826  20.142   0.118  0.00  0.00     0.156 HD
HETATM   27  H   UNK N   1      20.963  21.229   0.774  0.00  0.00     0.156 HD
ENDBRANCH  22  25
ENDBRANCH  16  19
ENDBRANCH   1  16
TORSDOF 4
ENDMDL
MODEL 2
REMARK VINA RESULT:      -6.9      3.274      8.345
REMARK  4 active torsions:
REMARK  status: ('A' for Active; 'I' for Inactive)
REMARK    1  A    between atoms: C_11  and  N_14 
REMARK    2  A    between atoms: N_14  and  S_15 
REMARK    3  A    between atoms: S_15  and  C_18 
REMARK    4  A    between atoms: C_21  and  N_24 
ROOT
HETATM    1  N   UNK N   1      21.171  15.979   7.641  0.00  0.00    -0.265 N 
HETATM    2  H   UNK N   1      21.098  16.469   8.492  0.00  0.00     0.180 HD
ENDROOT
BRANCH   1   3
HETATM    3  C   UNK N   1      21.047  16.695   6.429  0.00  0.00     0.131 A 
HETATM    4  C   UNK N   1      21.358  18.057   6.397  0.00  0.00     0.137 A 
HETATM    5  N   UNK N   1      21.290  18.739   5.222  0.00  0.00    -0.359 N 
HETATM    6  C   UNK N   1      20.896  18.118   4.078  0.00  0.00     0.081 A 
ATOM      7  HN  UNK N   1      21.536  19.728   5.199  1.00  0.00     0.165 HD
HETATM    8  C   UNK N   1      20.556  16.749   4.117  0.00  0.00     0.062 A 
HETATM    9  C   UNK N   1      20.824  18.820   2.864  0.00  0.00     0.063 A 
HETATM   10  C   UNK N   1      20.129  16.100   2.958  0.00  0.00     0.032 A 
HETATM   11  N   UNK N   1      20.655  16.068   5.288  0.00  0.00    -0.339 N 
HETATM   12  C   UNK N   1      20.041  16.808   1.755  0.00  0.00     0.004 A 
HETATM   13  C   UNK N   1      20.396  18.160   1.707  0.00  0.00     0.026 A 
ATOM     14  HN  UNK N   1      20.433  15.073   5.313  1.00  0.00     0.167 HD
HETATM   15 Cl   UNK N   1      21.274  20.515   2.766  0.00  0.00    -0.082 Cl
ENDBRANCH   1   3
BRANCH   1  16
HETATM   16  S   UNK N   1      21.451  14.245   7.686  0.00  0.00     0.264 S 
HETATM   17  O   UNK N   1      20.187  13.657   7.042  0.00  0.00    -0.200 OA
HETATM   18  O   UNK N   1      22.464  14.003   6.558  0.00  0.00    -0.200 OA
BRANCH  16  19
HETATM   19  C   UNK N   1      21.877  13.309   9.156  0.00  0.00     0.080 A 
HETATM   20  C   UNK N   1      20.868  12.968  10.065  0.00  0.00     0.027 A 
HETATM   21  C   UNK N   1      21.190  12.353  11.278  0.00  0.00     0.030 A 
HETATM   22  C   UNK N   1      22.525  12.087  11.590  0.00  0.00     0.025 A 
HETATM   23  C   UNK N   1      23.537  12.422  10.684  0.00  0.00     0.030 A 
HETATM   24  C   UNK N   1      23.213  13.040   9.470  0.00  0.00     0.027 A 
BRANCH  22  25
HETATM   25  N   UNK N   1      22.853  11.494  12.826  0.00  0.00    -0.399 N 
HETATM   26  H   UNK N   1      22.140  11.198  13.437  0.00  0.00     0.156 HD
HETATM   27  H   UNK N   1      23.797  11.374  13.078  0.00  0.00     0.156 HD
ENDBRANCH  22  25
ENDBRANCH  16  19
ENDBRANCH   1  16
TORSDOF 4
ENDMDL
MODEL 3
REMARK VINA RESULT:      -6.9     15.625     16.292
REMARK  4 active torsions:
REMARK  status: ('A' for Active; 'I' for Inactive)
REMARK    1  A    between atoms: C_11  and  N_14 
REMARK    2  A    between atoms: N_14  and  S_15 
REMARK    3  A    between atoms: S_15  and  C_18 
REMARK    4  A    between atoms: C_21  and  N_24 
ROOT
HETATM    1  N   UNK N   1      27.434  23.133  -7.438  0.00  0.00    -0.265 N 
HETATM    2  H   UNK N   1      27.607  23.147  -8.407  0.00  0.00     0.180 HD
ENDROOT
BRANCH   1   3
HETATM    3  C   UNK N   1      28.417  22.591  -6.579  0.00  0.00     0.131 A 
HETATM    4  C   UNK N   1      29.115  21.443  -6.965  0.00  0.00     0.137 A 
HETATM    5  N   UNK N   1      30.097  20.948  -6.166  0.00  0.00    -0.359 N 
HETATM    6  C   UNK N   1      30.394  21.541  -4.978  0.00  0.00     0.081 A 
ATOM      7  HN  UNK N   1      30.617  20.122  -6.460  1.00  0.00     0.165 HD
HETATM    8  C   UNK N   1      29.671  22.684  -4.576  0.00  0.00     0.062 A 
HETATM    9  C   UNK N   1      31.408  21.031  -4.150  0.00  0.00     0.063 A 
HETATM   10  C   UNK N   1      29.946  23.292  -3.352  0.00  0.00     0.032 A 
HETATM   11  N   UNK N   1      28.711  23.189  -5.394  0.00  0.00    -0.339 N 
HETATM   12  C   UNK N   1      30.944  22.771  -2.523  0.00  0.00     0.004 A 
HETATM   13  C   UNK N   1      31.677  21.649  -2.925  0.00  0.00     0.026 A 
ATOM     14  HN  UNK N   1      28.204  24.030  -5.116  1.00  0.00     0.167 HD
HETATM   15 Cl   UNK N   1      32.356  19.633  -4.631  0.00  0.00    -0.082 Cl
ENDBRANCH   1   3
BRANCH   1  16
HETATM   16  S   UNK N   1      25.914  23.781  -6.840  0.00  0.00     0.264 S 
HETATM   17  O   UNK N   1      25.098  24.028  -8.116  0.00  0.00    -0.200 OA
HETATM   18  O   UNK N   1      25.179  22.553  -6.285  0.00  0.00    -0.200 OA
BRANCH  16  19
HETATM   19  C   UNK N   1      25.759  25.187  -5.736  0.00  0.00     0.080 A 
HETATM   20  C   UNK N   1      25.272  26.400  -6.239  0.00  0.00     0.027 A 
HETATM   21  C   UNK N   1      25.261  27.543  -5.436  0.00  0.00     0.030 A 
HETATM   22  C   UNK N   1      25.750  27.479  -4.128  0.00  0.00     0.025 A 
HETATM   23  C   UNK N   1      26.234  26.270  -3.620  0.00  0.00     0.030 A 
HETATM   24  C   UNK N   1      26.246  25.125  -4.427  0.00  0.00     0.027 A 
BRANCH  22  25
HETATM   25  N   UNK N   1      25.767  28.638  -3.327  0.00  0.00    -0.399 N 
HETATM   26  H   UNK N   1      24.921  29.054  -3.042  0.00  0.00     0.156 HD
HETATM   27  H   UNK N   1      26.625  29.033  -3.052  0.00  0.00     0.156 HD
ENDBRANCH  22  25
ENDBRANCH  16  19
ENDBRANCH   1  16
TORSDOF 4
ENDMDL
MODEL 4
REMARK VINA RESULT:      -6.9      1.655      2.536
REMARK  4 active torsions:
REMARK  status: ('A' for Active; 'I' for Inactive)
REMARK    1  A    between atoms: C_11  and  N_14 
REMARK    2  A    between atoms: N_14  and  S_15 
REMARK    3  A    between atoms: S_15  and  C_18 
REMARK    4  A    between atoms: C_21  and  N_24 
ROOT
HETATM    1  N   UNK N   1      22.786  16.122   5.641  0.00  0.00    -0.265 N 
HETATM    2  H   UNK N   1      23.516  16.128   4.980  0.00  0.00     0.180 HD
ENDROOT
BRANCH   1   3
HETATM    3  C   UNK N   1      22.867  15.232   6.737  0.00  0.00     0.131 A 
HETATM    4  C   UNK N   1      24.083  14.607   7.029  0.00  0.00     0.137 A 
HETATM    5  N   UNK N   1      24.179  13.791   8.113  0.00  0.00    -0.359 N 
HETATM    6  C   UNK N   1      23.099  13.553   8.905  0.00  0.00     0.081 A 
ATOM      7  HN  UNK N   1      25.071  13.352   8.335  1.00  0.00     0.165 HD
HETATM    8  C   UNK N   1      21.866  14.164   8.593  0.00  0.00     0.062 A 
HETATM    9  C   UNK N   1      23.196  12.710  10.024  0.00  0.00     0.063 A 
HETATM   10  C   UNK N   1      20.741  13.915   9.380  0.00  0.00     0.032 A 
HETATM   11  N   UNK N   1      21.785  15.001   7.525  0.00  0.00    -0.339 N 
HETATM   12  C   UNK N   1      20.838  13.061  10.483  0.00  0.00     0.004 A 
HETATM   13  C   UNK N   1      22.063  12.468  10.808  0.00  0.00     0.026 A 
ATOM     14  HN  UNK N   1      20.900  15.462   7.313  1.00  0.00     0.167 HD
HETATM   15 Cl   UNK N   1      24.721  11.961  10.468  0.00  0.00    -0.082 Cl
ENDBRANCH   1   3
BRANCH   1  16
HETATM   16  S   UNK N   1      21.430  17.215   5.414  0.00  0.00     0.264 S 
HETATM   17  O   UNK N   1      20.202  16.320   5.632  0.00  0.00    -0.200 OA
HETATM   18  O   UNK N   1      21.395  18.038   6.710  0.00  0.00    -0.200 OA
BRANCH  16  19
HETATM   19  C   UNK N   1      21.177  18.256   3.975  0.00  0.00     0.080 A 
HETATM   20  C   UNK N   1      22.087  19.286   3.708  0.00  0.00     0.027 A 
HETATM   21  C   UNK N   1      21.845  20.190   2.671  0.00  0.00     0.030 A 
HETATM   22  C   UNK N   1      20.685  20.073   1.902  0.00  0.00     0.025 A 
HETATM   23  C   UNK N   1      19.774  19.043   2.162  0.00  0.00     0.030 A 
HETATM   24  C   UNK N   1      20.017  18.139   3.203  0.00  0.00     0.027 A 
BRANCH  22  25
HETATM   25  N   UNK N   1      20.426  21.001   0.874  0.00  0.00    -0.399 N 
HETATM   26  H   UNK N   1      21.148  21.279   0.265  0.00  0.00     0.156 HD
HETATM   27  H   UNK N   1      19.521  21.374   0.765  0.00  0.00     0.156 HD
ENDBRANCH  22  25
ENDBRANCH  16  19
ENDBRANCH   1  16
TORSDOF 4
ENDMDL
MODEL 5
REMARK VINA RESULT:      -6.8     11.263     12.729
REMARK  4 active torsions:
REMARK  status: ('A' for Active; 'I' for Inactive)
REMARK    1  A    between atoms: C_11  and  N_14 
REMARK    2  A    between atoms: N_14  and  S_15 
REMARK    3  A    between atoms: S_15  and  C_18 
REMARK    4  A    between atoms: C_21  and  N_24 
ROOT
HETATM    1  N   UNK N   1      34.482  15.502   7.890  0.00  0.00    -0.265 N 
HETATM    2  H   UNK N   1      34.819  15.096   7.059  0.00  0.00     0.180 HD
ENDROOT
BRANCH   1   3
HETATM    3  C   UNK N   1      34.595  14.777   9.098  0.00  0.00     0.131 A 
HETATM    4  C   UNK N   1      34.037  13.499   9.190  0.00  0.00     0.137 A 
HETATM    5  N   UNK N   1      34.188  12.776  10.333  0.00  0.00    -0.359 N 
HETATM    6  C   UNK N   1      34.854  13.290  11.400  0.00  0.00     0.081 A 
ATOM      7  HN  UNK N   1      33.796  11.837  10.389  1.00  0.00     0.165 HD
HETATM    8  C   UNK N   1      35.395  14.591  11.316  0.00  0.00     0.062 A 
HETATM    9  C   UNK N   1      35.011  12.546  12.581  0.00  0.00     0.063 A 
HETATM   10  C   UNK N   1      36.063  15.145  12.408  0.00  0.00     0.032 A 
HETATM   11  N   UNK N   1      35.265  15.296  10.161  0.00  0.00    -0.339 N 
HETATM   12  C   UNK N   1      36.201  14.407  13.588  0.00  0.00     0.004 A 
HETATM   13  C   UNK N   1      35.684  13.110  13.670  0.00  0.00     0.026 A 
ATOM     14  HN  UNK N   1      35.677  16.226  10.090  1.00  0.00     0.167 HD
HETATM   15 Cl   UNK N   1      34.385  10.910  12.713  0.00  0.00    -0.082 Cl
ENDBRANCH   1   3
BRANCH   1  16
HETATM   16  S   UNK N   1      33.762  17.103   7.818  0.00  0.00     0.264 S 
HETATM   17  O   UNK N   1      34.320  17.809   9.062  0.00  0.00    -0.200 OA
HETATM   18  O   UNK N   1      34.561  17.821   6.720  0.00  0.00    -0.200 OA
BRANCH  16  19
HETATM   19  C   UNK N   1      32.005  17.435   7.666  0.00  0.00     0.080 A 
HETATM   20  C   UNK N   1      31.350  18.127   8.692  0.00  0.00     0.027 A 
HETATM   21  C   UNK N   1      29.962  18.286   8.660  0.00  0.00     0.030 A 
HETATM   22  C   UNK N   1      29.223  17.743   7.607  0.00  0.00     0.025 A 
HETATM   23  C   UNK N   1      29.873  17.054   6.578  0.00  0.00     0.030 A 
HETATM   24  C   UNK N   1      31.263  16.893   6.612  0.00  0.00     0.027 A 
BRANCH  22  25
HETATM   25  N   UNK N   1      27.820  17.877   7.589  0.00  0.00    -0.399 N 
HETATM   26  H   UNK N   1      27.383  18.405   6.882  0.00  0.00     0.156 HD
HETATM   27  H   UNK N   1      27.277  17.443   8.285  0.00  0.00     0.156 HD
ENDBRANCH  22  25
ENDBRANCH  16  19
ENDBRANCH   1  16
TORSDOF 4
ENDMDL
MODEL 6
REMARK VINA RESULT:      -6.8     11.707     13.159
REMARK  4 active torsions:
REMARK  status: ('A' for Active; 'I' for Inactive)
REMARK    1  A    between atoms: C_11  and  N_14 
REMARK    2  A    between atoms: N_14  and  S_15 
REMARK    3  A    between atoms: S_15  and  C_18 
REMARK    4  A    between atoms: C_21  and  N_24 
ROOT
HETATM    1  N   UNK N   1      34.250  15.764   6.521  0.00  0.00    -0.265 N 
HETATM    2  H   UNK N   1      34.237  15.285   5.661  0.00  0.00     0.180 HD
ENDROOT
BRANCH   1   3
HETATM    3  C   UNK N   1      34.942  15.189   7.611  0.00  0.00     0.131 A 
HETATM    4  C   UNK N   1      36.091  14.429   7.375  0.00  0.00     0.137 A 
HETATM    5  N   UNK N   1      36.789  13.917   8.424  0.00  0.00    -0.359 N 
HETATM    6  C   UNK N   1      36.370  14.113   9.703  0.00  0.00     0.081 A 
ATOM      7  HN  UNK N   1      37.638  13.380   8.249  1.00  0.00     0.165 HD
HETATM    8  C   UNK N   1      35.195  14.858   9.938  0.00  0.00     0.062 A 
HETATM    9  C   UNK N   1      37.090  13.584  10.787  0.00  0.00     0.063 A 
HETATM   10  C   UNK N   1      34.737  15.050  11.242  0.00  0.00     0.032 A 
HETATM   11  N   UNK N   1      34.519  15.390   8.887  0.00  0.00    -0.339 N 
HETATM   12  C   UNK N   1      35.447  14.507  12.317  0.00  0.00     0.004 A 
HETATM   13  C   UNK N   1      36.623  13.785  12.090  0.00  0.00     0.026 A 
ATOM     14  HN  UNK N   1      33.683  15.949   9.058  1.00  0.00     0.167 HD
HETATM   15 Cl   UNK N   1      38.577  12.684  10.538  0.00  0.00    -0.082 Cl
ENDBRANCH   1   3
BRANCH   1  16
HETATM   16  S   UNK N   1      33.410  17.303   6.645  0.00  0.00     0.264 S 
HETATM   17  O   UNK N   1      34.429  18.217   7.340  0.00  0.00    -0.200 OA
HETATM   18  O   UNK N   1      33.467  17.873   5.220  0.00  0.00    -0.200 OA
BRANCH  16  19
HETATM   19  C   UNK N   1      31.787  17.534   7.374  0.00  0.00     0.080 A 
HETATM   20  C   UNK N   1      30.651  17.176   6.639  0.00  0.00     0.027 A 
HETATM   21  C   UNK N   1      29.375  17.463   7.130  0.00  0.00     0.030 A 
HETATM   22  C   UNK N   1      29.231  18.120   8.355  0.00  0.00     0.025 A 
HETATM   23  C   UNK N   1      30.363  18.476   9.094  0.00  0.00     0.030 A 
HETATM   24  C   UNK N   1      31.641  18.189   8.601  0.00  0.00     0.027 A 
BRANCH  22  25
HETATM   25  N   UNK N   1      27.945  18.436   8.836  0.00  0.00    -0.399 N 
HETATM   26  H   UNK N   1      27.702  19.373   9.017  0.00  0.00     0.156 HD
HETATM   27  H   UNK N   1      27.289  17.719   8.992  0.00  0.00     0.156 HD
ENDBRANCH  22  25
ENDBRANCH  16  19
ENDBRANCH   1  16
TORSDOF 4
ENDMDL
MODEL 7
REMARK VINA RESULT:      -6.7      9.258     10.971
REMARK  4 active torsions:
REMARK  status: ('A' for Active; 'I' for Inactive)
REMARK    1  A    between atoms: C_11  and  N_14 
REMARK    2  A    between atoms: N_14  and  S_15 
REMARK    3  A    between atoms: S_15  and  C_18 
REMARK    4  A    between atoms: C_21  and  N_24 
ROOT
HETATM    1  N   UNK N   1      30.375  16.750   8.349  0.00  0.00    -0.265 N 
HETATM    2  H   UNK N   1      30.070  16.035   8.952  0.00  0.00     0.180 HD
ENDROOT
BRANCH   1   3
HETATM    3  C   UNK N   1      29.436  17.703   7.891  0.00  0.00     0.131 A 
HETATM    4  C   UNK N   1      28.691  18.437   8.818  0.00  0.00     0.137 A 
HETATM    5  N   UNK N   1      27.824  19.391   8.384  0.00  0.00    -0.359 N 
HETATM    6  C   UNK N   1      27.651  19.623   7.055  0.00  0.00     0.081 A 
ATOM      7  HN  UNK N   1      27.297  19.938   9.063  1.00  0.00     0.165 HD
HETATM    8  C   UNK N   1      28.384  18.863   6.120  0.00  0.00     0.062 A 
HETATM    9  C   UNK N   1      26.756  20.607   6.605  0.00  0.00     0.063 A 
HETATM   10  C   UNK N   1      28.204  19.071   4.752  0.00  0.00     0.032 A 
HETATM   11  N   UNK N   1      29.270  17.932   6.562  0.00  0.00    -0.339 N 
HETATM   12  C   UNK N   1      27.299  20.039   4.308  0.00  0.00     0.004 A 
HETATM   13  C   UNK N   1      26.584  20.810   5.231  0.00  0.00     0.026 A 
ATOM     14  HN  UNK N   1      29.818  17.398   5.887  1.00  0.00     0.167 HD
HETATM   15 Cl   UNK N   1      25.853  21.601   7.737  0.00  0.00    -0.082 Cl
ENDBRANCH   1   3
BRANCH   1  16
HETATM   16  S   UNK N   1      32.068  16.797   7.879  0.00  0.00     0.264 S 
HETATM   17  O   UNK N   1      32.532  18.188   8.333  0.00  0.00    -0.200 OA
HETATM   18  O   UNK N   1      32.769  15.924   8.930  0.00  0.00    -0.200 OA
BRANCH  16  19
HETATM   19  C   UNK N   1      32.688  16.456   6.231  0.00  0.00     0.080 A 
HETATM   20  C   UNK N   1      32.522  17.417   5.226  0.00  0.00     0.027 A 
HETATM   21  C   UNK N   1      32.880  17.127   3.907  0.00  0.00     0.030 A 
HETATM   22  C   UNK N   1      33.394  15.868   3.586  0.00  0.00     0.025 A 
HETATM   23  C   UNK N   1      33.565  14.906   4.586  0.00  0.00     0.030 A 
HETATM   24  C   UNK N   1      33.205  15.197   5.907  0.00  0.00     0.027 A 
BRANCH  22  25
HETATM   25  N   UNK N   1      33.727  15.565   2.251  0.00  0.00    -0.399 N 
HETATM   26  H   UNK N   1      33.119  15.017   1.702  0.00  0.00     0.156 HD
HETATM   27  H   UNK N   1      34.568  15.901   1.865  0.00  0.00     0.156 HD
ENDBRANCH  22  25
ENDBRANCH  16  19
ENDBRANCH   1  16
TORSDOF 4
ENDMDL
MODEL 8
REMARK VINA RESULT:      -6.7     13.892     17.295
REMARK  4 active torsions:
REMARK  status: ('A' for Active; 'I' for Inactive)
REMARK    1  A    between atoms: C_11  and  N_14 
REMARK    2  A    between atoms: N_14  and  S_15 
REMARK    3  A    between atoms: S_15  and  C_18 
REMARK    4  A    between atoms: C_21  and  N_24 
ROOT
HETATM    1  N   UNK N   1      36.584  13.735  13.338  0.00  0.00    -0.265 N 
HETATM    2  H   UNK N   1      37.513  14.001  13.525  0.00  0.00     0.180 HD
ENDROOT
BRANCH   1   3
HETATM    3  C   UNK N   1      35.916  14.319  12.238  0.00  0.00     0.131 A 
HETATM    4  C   UNK N   1      35.969  15.703  12.054  0.00  0.00     0.137 A 
HETATM    5  N   UNK N   1      35.372  16.264  10.968  0.00  0.00    -0.359 N 
HETATM    6  C   UNK N   1      34.699  15.497  10.069  0.00  0.00     0.081 A 
ATOM      7  HN  UNK N   1      35.430  17.272  10.826  1.00  0.00     0.165 HD
HETATM    8  C   UNK N   1      34.623  14.103  10.270  0.00  0.00     0.062 A 
HETATM    9  C   UNK N   1      34.081  16.075   8.947  0.00  0.00     0.063 A 
HETATM   10  C   UNK N   1      33.919  13.302   9.371  0.00  0.00     0.032 A 
HETATM   11  N   UNK N   1      35.247  13.546  11.341  0.00  0.00    -0.339 N 
HETATM   12  C   UNK N   1      33.290  13.883   8.265  0.00  0.00     0.004 A 
HETATM   13  C   UNK N   1      33.378  15.263   8.051  0.00  0.00     0.026 A 
ATOM     14  HN  UNK N   1      35.213  12.536  11.475  1.00  0.00     0.167 HD
HETATM   15 Cl   UNK N   1      34.184  17.801   8.641  0.00  0.00    -0.082 Cl
ENDBRANCH   1   3
BRANCH   1  16
HETATM   16  S   UNK N   1      35.815  12.553  14.387  0.00  0.00     0.264 S 
HETATM   17  O   UNK N   1      34.413  12.389  13.783  0.00  0.00    -0.200 OA
HETATM   18  O   UNK N   1      36.446  11.218  13.967  0.00  0.00    -0.200 OA
BRANCH  16  19
HETATM   19  C   UNK N   1      35.697  12.685  16.172  0.00  0.00     0.080 A 
HETATM   20  C   UNK N   1      35.595  11.517  16.938  0.00  0.00     0.027 A 
HETATM   21  C   UNK N   1      35.373  11.594  18.315  0.00  0.00     0.030 A 
HETATM   22  C   UNK N   1      35.242  12.841  18.931  0.00  0.00     0.025 A 
HETATM   23  C   UNK N   1      35.346  14.010  18.171  0.00  0.00     0.030 A 
HETATM   24  C   UNK N   1      35.567  13.932  16.791  0.00  0.00     0.027 A 
BRANCH  22  25
HETATM   25  N   UNK N   1      34.988  12.919  20.314  0.00  0.00    -0.399 N 
HETATM   26  H   UNK N   1      35.704  12.714  20.960  0.00  0.00     0.156 HD
HETATM   27  H   UNK N   1      34.096  13.178  20.637  0.00  0.00     0.156 HD
ENDBRANCH  22  25
ENDBRANCH  16  19
ENDBRANCH   1  16
TORSDOF 4
ENDMDL
MODEL 9
REMARK VINA RESULT:      -6.7      9.919     12.669
REMARK  4 active torsions:
REMARK  status: ('A' for Active; 'I' for Inactive)
REMARK    1  A    between atoms: C_11  and  N_14 
REMARK    2  A    between atoms: N_14  and  S_15 
REMARK    3  A    between atoms: S_15  and  C_18 
REMARK    4  A    between atoms: C_21  and  N_24 
ROOT
HETATM    1  N   UNK N   1      30.903  16.643   9.169  0.00  0.00    -0.265 N 
HETATM    2  H   UNK N   1      30.612  16.123   9.953  0.00  0.00     0.180 HD
ENDROOT
BRANCH   1   3
HETATM    3  C   UNK N   1      29.958  17.455   8.502  0.00  0.00     0.131 A 
HETATM    4  C   UNK N   1      29.145  18.319   9.242  0.00  0.00     0.137 A 
HETATM    5  N   UNK N   1      28.271  19.139   8.600  0.00  0.00    -0.359 N 
HETATM    6  C   UNK N   1      28.156  19.113   7.245  0.00  0.00     0.081 A 
ATOM      7  HN  UNK N   1      27.694  19.782   9.141  1.00  0.00     0.165 HD
HETATM    8  C   UNK N   1      28.958  18.221   6.501  0.00  0.00     0.062 A 
HETATM    9  C   UNK N   1      27.254  19.959   6.580  0.00  0.00     0.063 A 
HETATM   10  C   UNK N   1      28.838  18.163   5.112  0.00  0.00     0.032 A 
HETATM   11  N   UNK N   1      29.849  17.425   7.147  0.00  0.00    -0.339 N 
HETATM   12  C   UNK N   1      27.926  18.995   4.456  0.00  0.00     0.004 A 
HETATM   13  C   UNK N   1      27.143  19.895   5.187  0.00  0.00     0.026 A 
ATOM     14  HN  UNK N   1      30.446  16.797   6.609  1.00  0.00     0.167 HD
HETATM   15 Cl   UNK N   1      26.266  21.109   7.467  0.00  0.00    -0.082 Cl
ENDBRANCH   1   3
BRANCH   1  16
HETATM   16  S   UNK N   1      32.578  16.527   8.651  0.00  0.00     0.264 S 
HETATM   17  O   UNK N   1      32.492  15.784   7.309  0.00  0.00    -0.200 OA
HETATM   18  O   UNK N   1      32.911  17.941   8.154  0.00  0.00    -0.200 OA
BRANCH  16  19
HETATM   19  C   UNK N   1      33.915  15.850   9.637  0.00  0.00     0.080 A 
HETATM   20  C   UNK N   1      33.810  14.541  10.123  0.00  0.00     0.027 A 
HETATM   21  C   UNK N   1      34.775  14.035  10.997  0.00  0.00     0.030 A 
HETATM   22  C   UNK N   1      35.844  14.841  11.397  0.00  0.00     0.025 A 
HETATM   23  C   UNK N   1      35.955  16.147  10.911  0.00  0.00     0.030 A 
HETATM   24  C   UNK N   1      34.987  16.654  10.036  0.00  0.00     0.027 A 
BRANCH  22  25
HETATM   25  N   UNK N   1      36.802  14.341  12.302  0.00  0.00    -0.399 N 
HETATM   26  H   UNK N   1      36.732  13.416  12.634  0.00  0.00     0.156 HD
HETATM   27  H   UNK N   1      37.541  14.916  12.602  0.00  0.00     0.156 HD
ENDBRANCH  22  25
ENDBRANCH  16  19
ENDBRANCH   1  16
TORSDOF 4
ENDMDL
