MODEL 1
REMARK VINA RESULT:      -7.1      0.000      0.000
REMARK  5 active torsions:
REMARK  status: ('A' for Active; 'I' for Inactive)
REMARK    1  A    between atoms: C_2  and  O_3 
REMARK    2  A    between atoms: O_3  and  C_4 
REMARK       I    between atoms: C_9  and  N_12 
REMARK    3  A    between atoms: C_17  and  N_13 
REMARK    4  A    between atoms: P_24  and  O_27 
REMARK    5  A    between atoms: O_27  and  C_28 
ROOT
HETATM    1  C   UNK N   1      33.054  16.270   8.587  0.00  0.00     0.188 A 
HETATM    2  C   UNK N   1      34.122  16.192   9.493  0.00  0.00     0.130 A 
HETATM    3  C   UNK N   1      34.659  14.998   9.803  0.00  0.00     0.157 A 
HETATM    4  N   UNK N   1      34.199  13.842   9.267  0.00  0.00    -0.174 N 
ATOM      5  HN  UNK N   1      34.615  12.948   9.526  1.00  0.00     0.186 HD
HETATM    6  C   UNK N   1      33.171  13.894   8.373  0.00  0.00     0.679 A 
HETATM    7  N   UNK N   1      32.605  15.098   8.043  0.00  0.00    -0.168 N 
ATOM      8  HN  UNK N   1      31.832  15.120   7.378  1.00  0.00     0.186 HD
HETATM    9  N   UNK N   1      32.688  12.704   7.794  0.00  0.00    -0.234 N 
HETATM   10  N   UNK N   1      35.642  15.164  10.711  0.00  0.00    -0.296 N 
HETATM   11  C   UNK N   1      35.678  16.501  10.937  0.00  0.00     0.188 A 
HETATM   12  N   UNK N   1      34.750  17.161  10.188  0.00  0.00    -0.346 N 
ATOM     13  HN  UNK N   1      34.570  18.165  10.160  1.00  0.00     0.167 HD
HETATM   14  H   UNK N   1      31.867  12.719   7.251  0.00  0.00     0.174 HD
HETATM   15  H   UNK N   1      33.172  11.858   7.932  0.00  0.00     0.174 HD
ENDROOT
BRANCH  10  16
HETATM   16  C   UNK N   1      36.472  14.169  11.416  0.00  0.00     0.273 C 
HETATM   17  C   UNK N   1      36.051  13.856  12.835  0.00  0.00     0.172 C 
HETATM   18  C   UNK N   1      36.828  12.596  13.085  0.00  0.00     0.208 C 
HETATM   19  C   UNK N   1      36.438  14.938  13.826  0.00  0.00     0.059 C 
HETATM   20  F   UNK N   1      34.690  13.577  12.882  0.00  0.00    -0.236 F 
HETATM   21  C   UNK N   1      37.347  12.234  11.708  0.00  0.00     0.181 C 
HETATM   22  O   UNK N   1      35.930  11.594  13.485  0.00  0.00    -0.281 OA
HETATM   23  O   UNK N   1      36.549  12.922  10.773  0.00  0.00    -0.353 OA
HETATM   24  C   UNK N   1      37.299  10.711  11.611  0.00  0.00     0.215 C 
HETATM   25  O   UNK N   1      37.885  10.198  12.794  0.00  0.00    -0.290 OA
HETATM   26  P   UNK N   1      36.785  10.236  14.210  0.00  0.00     0.478 P 
HETATM   27  O   UNK N   1      38.170  10.774  14.671  0.00  0.00    -0.227 OA
BRANCH  26  28
HETATM   28  O   UNK N   1      36.607  11.349  15.557  0.00  0.00    -0.288 OA
BRANCH  28  29
HETATM   29  C   UNK N   1      35.254  11.341  15.936  0.00  0.00     0.125 C 
HETATM   30  C   UNK N   1      34.921  10.024  16.600  0.00  0.00     0.040 C 
HETATM   31  C   UNK N   1      34.985  12.465  16.924  0.00  0.00     0.040 C 
ENDBRANCH  28  29
ENDBRANCH  26  28
ENDBRANCH  10  16
BRANCH   1  32
HETATM   32  O   UNK N   1      32.447  17.432   8.243  0.00  0.00    -0.334 OA
BRANCH  32  33
HETATM   33  C   UNK N   1      31.103  17.550   7.977  0.00  0.00     0.173 C 
HETATM   34  C   UNK N   1      30.439  18.371   9.062  0.00  0.00     0.034 C 
ENDBRANCH  32  33
ENDBRANCH   1  32
TORSDOF 5
ENDMDL
MODEL 2
REMARK VINA RESULT:      -7.0      9.108     12.327
REMARK  5 active torsions:
REMARK  status: ('A' for Active; 'I' for Inactive)
REMARK    1  A    between atoms: C_2  and  O_3 
REMARK    2  A    between atoms: O_3  and  C_4 
REMARK       I    between atoms: C_9  and  N_12 
REMARK    3  A    between atoms: C_17  and  N_13 
REMARK    4  A    between atoms: P_24  and  O_27 
REMARK    5  A    between atoms: O_27  and  C_28 
ROOT
HETATM    1  C   UNK N   1      29.483  16.365   6.457  0.00  0.00     0.188 A 
HETATM    2  C   UNK N   1      28.422  15.660   5.871  0.00  0.00     0.130 A 
HETATM    3  C   UNK N   1      27.164  15.844   6.312  0.00  0.00     0.157 A 
HETATM    4  N   UNK N   1      26.874  16.698   7.323  0.00  0.00    -0.174 N 
ATOM      5  HN  UNK N   1      25.914  16.812   7.647  1.00  0.00     0.186 HD
HETATM    6  C   UNK N   1      27.888  17.405   7.898  0.00  0.00     0.679 A 
HETATM    7  N   UNK N   1      29.179  17.233   7.469  0.00  0.00    -0.168 N 
ATOM      8  HN  UNK N   1      29.927  17.764   7.914  1.00  0.00     0.186 HD
HETATM    9  N   UNK N   1      27.605  18.309   8.942  0.00  0.00    -0.234 N 
HETATM   10  N   UNK N   1      26.321  15.043   5.629  0.00  0.00    -0.296 N 
HETATM   11  C   UNK N   1      27.116  14.370   4.760  0.00  0.00     0.188 A 
HETATM   12  N   UNK N   1      28.422  14.741   4.886  0.00  0.00    -0.346 N 
ATOM     13  HN  UNK N   1      29.222  14.397   4.354  1.00  0.00     0.167 HD
HETATM   14  H   UNK N   1      28.341  18.724   9.447  0.00  0.00     0.174 HD
HETATM   15  H   UNK N   1      26.671  18.526   9.164  0.00  0.00     0.174 HD
ENDROOT
BRANCH  10  16
HETATM   16  C   UNK N   1      24.872  14.820   5.789  0.00  0.00     0.273 C 
HETATM   17  C   UNK N   1      24.476  13.853   6.882  0.00  0.00     0.172 C 
HETATM   18  C   UNK N   1      23.013  14.158   7.009  0.00  0.00     0.208 C 
HETATM   19  C   UNK N   1      24.698  12.400   6.505  0.00  0.00     0.059 C 
HETATM   20  F   UNK N   1      25.122  14.181   8.069  0.00  0.00    -0.236 F 
HETATM   21  C   UNK N   1      22.852  15.419   6.184  0.00  0.00     0.181 C 
HETATM   22  O   UNK N   1      22.742  14.482   8.348  0.00  0.00    -0.281 OA
HETATM   23  O   UNK N   1      24.133  15.988   6.046  0.00  0.00    -0.353 OA
HETATM   24  C   UNK N   1      21.827  16.288   6.909  0.00  0.00     0.215 C 
HETATM   25  O   UNK N   1      20.727  15.455   7.232  0.00  0.00    -0.290 OA
HETATM   26  P   UNK N   1      21.012  14.423   8.672  0.00  0.00     0.478 P 
HETATM   27  O   UNK N   1      20.380  13.530   7.566  0.00  0.00    -0.227 OA
BRANCH  26  28
HETATM   28  O   UNK N   1      21.501  12.748   8.864  0.00  0.00    -0.288 OA
BRANCH  28  29
HETATM   29  C   UNK N   1      22.035  12.609  10.156  0.00  0.00     0.125 C 
HETATM   30  C   UNK N   1      20.919  12.341  11.140  0.00  0.00     0.040 C 
HETATM   31  C   UNK N   1      23.007  11.440  10.195  0.00  0.00     0.040 C 
ENDBRANCH  28  29
ENDBRANCH  26  28
ENDBRANCH  10  16
BRANCH   1  32
HETATM   32  O   UNK N   1      30.778  16.217   6.083  0.00  0.00    -0.334 OA
BRANCH  32  33
HETATM   33  C   UNK N   1      31.538  17.217   5.525  0.00  0.00     0.173 C 
HETATM   34  C   UNK N   1      31.400  17.183   4.018  0.00  0.00     0.034 C 
ENDBRANCH  32  33
ENDBRANCH   1  32
TORSDOF 5
ENDMDL
MODEL 3
REMARK VINA RESULT:      -7.0      8.910     12.261
REMARK  5 active torsions:
REMARK  status: ('A' for Active; 'I' for Inactive)
REMARK    1  A    between atoms: C_2  and  O_3 
REMARK    2  A    between atoms: O_3  and  C_4 
REMARK       I    between atoms: C_9  and  N_12 
REMARK    3  A    between atoms: C_17  and  N_13 
REMARK    4  A    between atoms: P_24  and  O_27 
REMARK    5  A    between atoms: O_27  and  C_28 
ROOT
HETATM    1  C   UNK N   1      22.076  19.067   4.138  0.00  0.00     0.188 A 
HETATM    2  C   UNK N   1      23.388  19.320   3.711  0.00  0.00     0.130 A 
HETATM    3  C   UNK N   1      24.366  18.433   3.972  0.00  0.00     0.157 A 
HETATM    4  N   UNK N   1      24.131  17.282   4.647  0.00  0.00    -0.174 N 
ATOM      5  HN  UNK N   1      24.891  16.631   4.842  1.00  0.00     0.186 HD
HETATM    6  C   UNK N   1      22.861  17.008   5.060  0.00  0.00     0.679 A 
HETATM    7  N   UNK N   1      21.848  17.897   4.809  0.00  0.00    -0.168 N 
ATOM      8  HN  UNK N   1      20.904  17.681   5.130  1.00  0.00     0.186 HD
HETATM    9  N   UNK N   1      22.595  15.810   5.751  0.00  0.00    -0.234 N 
HETATM   10  N   UNK N   1      25.540  18.899   3.499  0.00  0.00    -0.296 N 
HETATM   11  C   UNK N   1      25.234  20.100   2.945  0.00  0.00     0.188 A 
HETATM   12  N   UNK N   1      23.905  20.378   3.057  0.00  0.00    -0.346 N 
ATOM     13  HN  UNK N   1      23.411  21.206   2.722  1.00  0.00     0.167 HD
HETATM   14  H   UNK N   1      21.713  15.665   6.163  0.00  0.00     0.174 HD
HETATM   15  H   UNK N   1      23.291  15.117   5.820  0.00  0.00     0.174 HD
ENDROOT
BRANCH  10  16
HETATM   16  C   UNK N   1      26.902  18.342   3.601  0.00  0.00     0.273 C 
HETATM   17  C   UNK N   1      27.652  18.679   4.871  0.00  0.00     0.172 C 
HETATM   18  C   UNK N   1      28.771  17.682   4.807  0.00  0.00     0.208 C 
HETATM   19  C   UNK N   1      28.188  20.098   4.891  0.00  0.00     0.059 C 
HETATM   20  F   UNK N   1      26.858  18.413   5.981  0.00  0.00    -0.236 F 
HETATM   21  C   UNK N   1      28.347  16.761   3.680  0.00  0.00     0.181 C 
HETATM   22  O   UNK N   1      28.769  16.936   5.996  0.00  0.00    -0.281 OA
HETATM   23  O   UNK N   1      26.961  16.942   3.500  0.00  0.00    -0.353 OA
HETATM   24  C   UNK N   1      28.774  15.352   4.084  0.00  0.00     0.215 C 
HETATM   25  O   UNK N   1      30.118  15.432   4.524  0.00  0.00    -0.290 OA
HETATM   26  P   UNK N   1      30.286  16.063   6.194  0.00  0.00     0.478 P 
HETATM   27  O   UNK N   1      31.338  16.787   5.305  0.00  0.00    -0.227 OA
BRANCH  26  28
HETATM   28  O   UNK N   1      30.664  17.653   6.839  0.00  0.00    -0.288 OA
BRANCH  28  29
HETATM   29  C   UNK N   1      31.000  17.490   8.194  0.00  0.00     0.125 C 
HETATM   30  C   UNK N   1      32.470  17.781   8.391  0.00  0.00     0.040 C 
HETATM   31  C   UNK N   1      30.195  18.456   9.049  0.00  0.00     0.040 C 
ENDBRANCH  28  29
ENDBRANCH  26  28
ENDBRANCH  10  16
BRANCH   1  32
HETATM   32  O   UNK N   1      21.044  19.922   3.934  0.00  0.00    -0.334 OA
BRANCH  32  33
HETATM   33  C   UNK N   1      20.118  19.784   2.927  0.00  0.00     0.173 C 
HETATM   34  C   UNK N   1      20.614  20.484   1.679  0.00  0.00     0.034 C 
ENDBRANCH  32  33
ENDBRANCH   1  32
TORSDOF 5
ENDMDL
MODEL 4
REMARK VINA RESULT:      -6.7      3.146      4.810
REMARK  5 active torsions:
REMARK  status: ('A' for Active; 'I' for Inactive)
REMARK    1  A    between atoms: C_2  and  O_3 
REMARK    2  A    between atoms: O_3  and  C_4 
REMARK       I    between atoms: C_9  and  N_12 
REMARK    3  A    between atoms: C_17  and  N_13 
REMARK    4  A    between atoms: P_24  and  O_27 
REMARK    5  A    between atoms: O_27  and  C_28 
ROOT
HETATM    1  C   UNK N   1      35.172  14.242  11.678  0.00  0.00     0.188 A 
HETATM    2  C   UNK N   1      35.779  14.097  12.934  0.00  0.00     0.130 A 
HETATM    3  C   UNK N   1      35.737  12.912  13.571  0.00  0.00     0.157 A 
HETATM    4  N   UNK N   1      35.119  11.831  13.039  0.00  0.00    -0.174 N 
ATOM      5  HN  UNK N   1      35.091  10.947  13.546  1.00  0.00     0.186 HD
HETATM    6  C   UNK N   1      34.534  11.944  11.812  0.00  0.00     0.679 A 
HETATM    7  N   UNK N   1      34.560  13.141  11.144  0.00  0.00    -0.168 N 
ATOM      8  HN  UNK N   1      34.113  13.212  10.230  1.00  0.00     0.186 HD
HETATM    9  N   UNK N   1      33.898  10.828  11.236  0.00  0.00    -0.234 N 
HETATM   10  N   UNK N   1      36.352  13.017  14.767  0.00  0.00    -0.296 N 
HETATM   11  C   UNK N   1      36.765  14.309  14.828  0.00  0.00     0.188 A 
HETATM   12  N   UNK N   1      36.427  14.995  13.700  0.00  0.00    -0.346 N 
ATOM     13  HN  UNK N   1      36.622  15.974  13.485  1.00  0.00     0.167 HD
HETATM   14  H   UNK N   1      33.365  10.934  10.415  0.00  0.00     0.174 HD
HETATM   15  H   UNK N   1      33.987   9.941  11.654  0.00  0.00     0.174 HD
ENDROOT
BRANCH  10  16
HETATM   16  C   UNK N   1      36.503  12.034  15.856  0.00  0.00     0.273 C 
HETATM   17  C   UNK N   1      35.336  11.934  16.813  0.00  0.00     0.172 C 
HETATM   18  C   UNK N   1      35.651  10.641  17.505  0.00  0.00     0.208 C 
HETATM   19  C   UNK N   1      35.276  13.081  17.805  0.00  0.00     0.059 C 
HETATM   20  F   UNK N   1      34.146  11.803  16.106  0.00  0.00    -0.236 F 
HETATM   21  C   UNK N   1      36.776  10.068  16.666  0.00  0.00     0.181 C 
HETATM   22  O   UNK N   1      34.543   9.789  17.379  0.00  0.00    -0.281 OA
HETATM   23  O   UNK N   1      36.731  10.718  15.417  0.00  0.00    -0.353 OA
HETATM   24  C   UNK N   1      36.562   8.557  16.623  0.00  0.00     0.215 C 
HETATM   25  O   UNK N   1      36.324   8.130  17.952  0.00  0.00    -0.290 OA
HETATM   26  P   UNK N   1      34.650   8.446  18.514  0.00  0.00     0.478 P 
HETATM   27  O   UNK N   1      35.621   8.892  19.644  0.00  0.00    -0.227 OA
BRANCH  26  28
HETATM   28  O   UNK N   1      33.936   9.723  19.487  0.00  0.00    -0.288 OA
BRANCH  28  29
HETATM   29  C   UNK N   1      33.224   9.110  20.532  0.00  0.00     0.125 C 
HETATM   30  C   UNK N   1      32.941  10.124  21.617  0.00  0.00     0.040 C 
HETATM   31  C   UNK N   1      31.899   8.571  20.013  0.00  0.00     0.040 C 
ENDBRANCH  28  29
ENDBRANCH  26  28
ENDBRANCH  10  16
BRANCH   1  32
HETATM   32  O   UNK N   1      35.152  15.408  10.986  0.00  0.00    -0.334 OA
BRANCH  32  33
HETATM   33  C   UNK N   1      34.637  15.543   9.719  0.00  0.00     0.173 C 
HETATM   34  C   UNK N   1      34.570  17.010   9.350  0.00  0.00     0.034 C 
ENDBRANCH  32  33
ENDBRANCH   1  32
TORSDOF 5
ENDMDL
MODEL 5
REMARK VINA RESULT:      -6.7      2.500      3.531
REMARK  5 active torsions:
REMARK  status: ('A' for Active; 'I' for Inactive)
REMARK    1  A    between atoms: C_2  and  O_3 
REMARK    2  A    between atoms: O_3  and  C_4 
REMARK       I    between atoms: C_9  and  N_12 
REMARK    3  A    between atoms: C_17  and  N_13 
REMARK    4  A    between atoms: P_24  and  O_27 
REMARK    5  A    between atoms: O_27  and  C_28 
ROOT
HETATM    1  C   UNK N   1      30.354  16.725   6.842  0.00  0.00     0.188 A 
HETATM    2  C   UNK N   1      31.579  16.943   7.491  0.00  0.00     0.130 A 
HETATM    3  C   UNK N   1      32.547  16.009   7.436  0.00  0.00     0.157 A 
HETATM    4  N   UNK N   1      32.384  14.843   6.767  0.00  0.00    -0.174 N 
ATOM      5  HN  UNK N   1      33.129  14.147   6.749  1.00  0.00     0.186 HD
HETATM    6  C   UNK N   1      31.207  14.616   6.117  0.00  0.00     0.679 A 
HETATM    7  N   UNK N   1      30.204  15.549   6.160  0.00  0.00    -0.168 N 
ATOM      8  HN  UNK N   1      29.327  15.362   5.674  1.00  0.00     0.186 HD
HETATM    9  N   UNK N   1      31.024  13.414   5.404  0.00  0.00    -0.234 N 
HETATM   10  N   UNK N   1      33.613  16.418   8.154  0.00  0.00    -0.296 N 
HETATM   11  C   UNK N   1      33.252  17.631   8.644  0.00  0.00     0.188 A 
HETATM   12  N   UNK N   1      31.998  17.980   8.241  0.00  0.00    -0.346 N 
ATOM     13  HN  UNK N   1      31.489  18.838   8.459  1.00  0.00     0.167 HD
HETATM   14  H   UNK N   1      30.137  13.186   5.043  0.00  0.00     0.174 HD
HETATM   15  H   UNK N   1      31.783  12.803   5.267  0.00  0.00     0.174 HD
ENDROOT
BRANCH  10  16
HETATM   16  C   UNK N   1      34.880  15.729   8.464  0.00  0.00     0.273 C 
HETATM   17  C   UNK N   1      35.087  15.364   9.917  0.00  0.00     0.172 C 
HETATM   18  C   UNK N   1      36.221  14.389   9.802  0.00  0.00     0.208 C 
HETATM   19  C   UNK N   1      35.475  16.549  10.781  0.00  0.00     0.059 C 
HETATM   20  F   UNK N   1      33.963  14.712  10.413  0.00  0.00    -0.236 F 
HETATM   21  C   UNK N   1      36.306  14.136   8.310  0.00  0.00     0.181 C 
HETATM   22  O   UNK N   1      35.838  13.189  10.421  0.00  0.00    -0.281 OA
HETATM   23  O   UNK N   1      35.073  14.531   7.754  0.00  0.00    -0.353 OA
HETATM   24  C   UNK N   1      36.656  12.660   8.136  0.00  0.00     0.215 C 
HETATM   25  O   UNK N   1      37.736  12.381   9.009  0.00  0.00    -0.290 OA
HETATM   26  P   UNK N   1      37.236  12.160  10.717  0.00  0.00     0.478 P 
HETATM   27  O   UNK N   1      38.485  13.088  10.705  0.00  0.00    -0.227 OA
BRANCH  26  28
HETATM   28  O   UNK N   1      37.236  13.228  12.111  0.00  0.00    -0.288 OA
BRANCH  28  29
HETATM   29  C   UNK N   1      36.425  12.638  13.095  0.00  0.00     0.125 C 
HETATM   30  C   UNK N   1      37.281  11.826  14.040  0.00  0.00     0.040 C 
HETATM   31  C   UNK N   1      35.709  13.716  13.894  0.00  0.00     0.040 C 
ENDBRANCH  28  29
ENDBRANCH  26  28
ENDBRANCH  10  16
BRANCH   1  32
HETATM   32  O   UNK N   1      29.325  17.607   6.871  0.00  0.00    -0.334 OA
BRANCH  32  33
HETATM   33  C   UNK N   1      28.190  17.440   7.629  0.00  0.00     0.173 C 
HETATM   34  C   UNK N   1      28.310  18.240   8.909  0.00  0.00     0.034 C 
ENDBRANCH  32  33
ENDBRANCH   1  32
TORSDOF 5
ENDMDL
MODEL 6
REMARK VINA RESULT:      -6.5      4.300      8.787
REMARK  5 active torsions:
REMARK  status: ('A' for Active; 'I' for Inactive)
REMARK    1  A    between atoms: C_2  and  O_3 
REMARK    2  A    between atoms: O_3  and  C_4 
REMARK       I    between atoms: C_9  and  N_12 
REMARK    3  A    between atoms: C_17  and  N_13 
REMARK    4  A    between atoms: P_24  and  O_27 
REMARK    5  A    between atoms: O_27  and  C_28 
ROOT
HETATM    1  C   UNK N   1      35.615  14.228  12.012  0.00  0.00     0.188 A 
HETATM    2  C   UNK N   1      34.775  14.608  10.955  0.00  0.00     0.130 A 
HETATM    3  C   UNK N   1      35.271  14.733   9.710  0.00  0.00     0.157 A 
HETATM    4  N   UNK N   1      36.577  14.505   9.430  0.00  0.00    -0.174 N 
ATOM      5  HN  UNK N   1      36.931  14.617   8.481  1.00  0.00     0.186 HD
HETATM    6  C   UNK N   1      37.409  14.121  10.439  0.00  0.00     0.679 A 
HETATM    7  N   UNK N   1      36.929  13.990  11.717  0.00  0.00    -0.168 N 
ATOM      8  HN  UNK N   1      37.566  13.708  12.462  1.00  0.00     0.186 HD
HETATM    9  N   UNK N   1      38.768  13.866  10.165  0.00  0.00    -0.234 N 
HETATM   10  N   UNK N   1      34.296  15.136   8.871  0.00  0.00    -0.296 N 
HETATM   11  C   UNK N   1      33.194  15.250   9.655  0.00  0.00     0.188 A 
HETATM   12  N   UNK N   1      33.465  14.920  10.949  0.00  0.00    -0.346 N 
ATOM     13  HN  UNK N   1      32.819  14.913  11.739  1.00  0.00     0.167 HD
HETATM   14  H   UNK N   1      39.399  13.716  10.905  0.00  0.00     0.174 HD
HETATM   15  H   UNK N   1      39.084  13.837   9.234  0.00  0.00     0.174 HD
ENDROOT
BRANCH  10  16
HETATM   16  C   UNK N   1      34.349  15.486   7.439  0.00  0.00     0.273 C 
HETATM   17  C   UNK N   1      33.866  14.415   6.486  0.00  0.00     0.172 C 
HETATM   18  C   UNK N   1      33.700  15.215   5.227  0.00  0.00     0.208 C 
HETATM   19  C   UNK N   1      34.867  13.293   6.289  0.00  0.00     0.059 C 
HETATM   20  F   UNK N   1      32.627  13.933   6.895  0.00  0.00    -0.236 F 
HETATM   21  C   UNK N   1      33.843  16.645   5.708  0.00  0.00     0.181 C 
HETATM   22  O   UNK N   1      32.386  15.046   4.764  0.00  0.00    -0.281 OA
HETATM   23  O   UNK N   1      33.618  16.637   7.099  0.00  0.00    -0.353 OA
HETATM   24  C   UNK N   1      32.859  17.480   4.893  0.00  0.00     0.215 C 
HETATM   25  O   UNK N   1      33.033  17.123   3.533  0.00  0.00    -0.290 OA
HETATM   26  P   UNK N   1      32.235  15.579   3.092  0.00  0.00     0.478 P 
HETATM   27  O   UNK N   1      33.667  15.561   2.486  0.00  0.00    -0.227 OA
BRANCH  26  28
HETATM   28  O   UNK N   1      32.824  13.933   2.925  0.00  0.00    -0.288 OA
BRANCH  28  29
HETATM   29  C   UNK N   1      31.723  13.072   3.073  0.00  0.00     0.125 C 
HETATM   30  C   UNK N   1      31.267  12.593   1.713  0.00  0.00     0.040 C 
HETATM   31  C   UNK N   1      32.116  11.863   3.907  0.00  0.00     0.040 C 
ENDBRANCH  28  29
ENDBRANCH  26  28
ENDBRANCH  10  16
BRANCH   1  32
HETATM   32  O   UNK N   1      35.195  14.103  13.295  0.00  0.00    -0.334 OA
BRANCH  32  33
HETATM   33  C   UNK N   1      35.447  13.007  14.085  0.00  0.00     0.173 C 
HETATM   34  C   UNK N   1      36.204  13.436  15.325  0.00  0.00     0.034 C 
ENDBRANCH  32  33
ENDBRANCH   1  32
TORSDOF 5
ENDMDL
MODEL 7
REMARK VINA RESULT:      -6.5      3.728      8.159
REMARK  5 active torsions:
REMARK  status: ('A' for Active; 'I' for Inactive)
REMARK    1  A    between atoms: C_2  and  O_3 
REMARK    2  A    between atoms: O_3  and  C_4 
REMARK       I    between atoms: C_9  and  N_12 
REMARK    3  A    between atoms: C_17  and  N_13 
REMARK    4  A    between atoms: P_24  and  O_27 
REMARK    5  A    between atoms: O_27  and  C_28 
ROOT
HETATM    1  C   UNK N   1      36.114  14.163  13.591  0.00  0.00     0.188 A 
HETATM    2  C   UNK N   1      35.983  14.626  12.273  0.00  0.00     0.130 A 
HETATM    3  C   UNK N   1      35.233  13.943  11.388  0.00  0.00     0.157 A 
HETATM    4  N   UNK N   1      34.587  12.802  11.724  0.00  0.00    -0.174 N 
ATOM      5  HN  UNK N   1      34.033  12.296  11.033  1.00  0.00     0.186 HD
HETATM    6  C   UNK N   1      34.687  12.340  13.003  0.00  0.00     0.679 A 
HETATM    7  N   UNK N   1      35.448  13.015  13.922  0.00  0.00    -0.168 N 
ATOM      8  HN  UNK N   1      35.518  12.654  14.873  1.00  0.00     0.186 HD
HETATM    9  N   UNK N   1      34.011  11.161  13.375  0.00  0.00    -0.234 N 
HETATM   10  N   UNK N   1      35.281  14.553  10.186  0.00  0.00    -0.296 N 
HETATM   11  C   UNK N   1      36.088  15.628  10.378  0.00  0.00     0.188 A 
HETATM   12  N   UNK N   1      36.529  15.698  11.666  0.00  0.00    -0.346 N 
ATOM     13  HN  UNK N   1      37.139  16.405  12.078  1.00  0.00     0.167 HD
HETATM   14  H   UNK N   1      34.181  10.753  14.255  0.00  0.00     0.174 HD
HETATM   15  H   UNK N   1      33.367  10.747  12.756  0.00  0.00     0.174 HD
ENDROOT
BRANCH  10  16
HETATM   16  C   UNK N   1      34.699  14.159   8.890  0.00  0.00     0.273 C 
HETATM   17  C   UNK N   1      33.627  15.079   8.348  0.00  0.00     0.172 C 
HETATM   18  C   UNK N   1      33.554  14.615   6.923  0.00  0.00     0.208 C 
HETATM   19  C   UNK N   1      32.289  14.914   9.044  0.00  0.00     0.059 C 
HETATM   20  F   UNK N   1      34.066  16.399   8.383  0.00  0.00    -0.236 F 
HETATM   21  C   UNK N   1      34.762  13.709   6.795  0.00  0.00     0.181 C 
HETATM   22  O   UNK N   1      33.754  15.722   6.085  0.00  0.00    -0.281 OA
HETATM   23  O   UNK N   1      35.637  14.036   7.850  0.00  0.00    -0.353 OA
HETATM   24  C   UNK N   1      35.323  13.926   5.392  0.00  0.00     0.215 C 
HETATM   25  O   UNK N   1      34.233  13.858   4.490  0.00  0.00    -0.290 OA
HETATM   26  P   UNK N   1      33.256  15.361   4.435  0.00  0.00     0.478 P 
HETATM   27  O   UNK N   1      32.272  14.159   4.518  0.00  0.00    -0.227 OA
BRANCH  26  28
HETATM   28  O   UNK N   1      31.749  15.837   5.202  0.00  0.00    -0.288 OA
BRANCH  28  29
HETATM   29  C   UNK N   1      31.515  17.183   4.874  0.00  0.00     0.125 C 
HETATM   30  C   UNK N   1      32.278  17.540   3.618  0.00  0.00     0.040 C 
HETATM   31  C   UNK N   1      30.032  17.406   4.621  0.00  0.00     0.040 C 
ENDBRANCH  28  29
ENDBRANCH  26  28
ENDBRANCH  10  16
BRANCH   1  32
HETATM   32  O   UNK N   1      36.869  14.782  14.531  0.00  0.00    -0.334 OA
BRANCH  32  33
HETATM   33  C   UNK N   1      36.881  14.435  15.861  0.00  0.00     0.173 C 
HETATM   34  C   UNK N   1      37.315  15.622  16.694  0.00  0.00     0.034 C 
ENDBRANCH  32  33
ENDBRANCH   1  32
TORSDOF 5
ENDMDL
MODEL 8
REMARK VINA RESULT:      -6.5     10.251     13.467
REMARK  5 active torsions:
REMARK  status: ('A' for Active; 'I' for Inactive)
REMARK    1  A    between atoms: C_2  and  O_3 
REMARK    2  A    between atoms: O_3  and  C_4 
REMARK       I    between atoms: C_9  and  N_12 
REMARK    3  A    between atoms: C_17  and  N_13 
REMARK    4  A    between atoms: P_24  and  O_27 
REMARK    5  A    between atoms: O_27  and  C_28 
ROOT
HETATM    1  C   UNK N   1      28.833  17.626   4.742  0.00  0.00     0.188 A 
HETATM    2  C   UNK N   1      27.668  17.027   4.242  0.00  0.00     0.130 A 
HETATM    3  C   UNK N   1      26.484  17.241   4.846  0.00  0.00     0.157 A 
HETATM    4  N   UNK N   1      26.370  18.026   5.944  0.00  0.00    -0.174 N 
ATOM      5  HN  UNK N   1      25.464  18.164   6.391  1.00  0.00     0.186 HD
HETATM    6  C   UNK N   1      27.487  18.630   6.441  0.00  0.00     0.679 A 
HETATM    7  N   UNK N   1      28.705  18.425   5.845  0.00  0.00    -0.168 N 
ATOM      8  HN  UNK N   1      29.532  18.879   6.232  1.00  0.00     0.186 HD
HETATM    9  N   UNK N   1      27.386  19.462   7.574  0.00  0.00    -0.234 N 
HETATM   10  N   UNK N   1      25.519  16.543   4.215  0.00  0.00    -0.296 N 
HETATM   11  C   UNK N   1      26.162  15.899   3.208  0.00  0.00     0.188 A 
HETATM   12  N   UNK N   1      27.494  16.190   3.200  0.00  0.00    -0.346 N 
ATOM     13  HN  UNK N   1      28.203  15.848   2.550  1.00  0.00     0.167 HD
HETATM   14  H   UNK N   1      28.201  19.796   8.013  0.00  0.00     0.174 HD
HETATM   15  H   UNK N   1      26.500  19.709   7.924  0.00  0.00     0.174 HD
ENDROOT
BRANCH  10  16
HETATM   16  C   UNK N   1      24.088  16.384   4.535  0.00  0.00     0.273 C 
HETATM   17  C   UNK N   1      23.751  15.255   5.484  0.00  0.00     0.172 C 
HETATM   18  C   UNK N   1      22.348  15.622   5.868  0.00  0.00     0.208 C 
HETATM   19  C   UNK N   1      23.796  13.888   4.827  0.00  0.00     0.059 C 
HETATM   20  F   UNK N   1      24.569  15.314   6.607  0.00  0.00    -0.236 F 
HETATM   21  C   UNK N   1      22.194  17.023   5.311  0.00  0.00     0.181 C 
HETATM   22  O   UNK N   1      22.278  15.705   7.267  0.00  0.00    -0.281 OA
HETATM   23  O   UNK N   1      23.493  17.527   5.098  0.00  0.00    -0.353 OA
HETATM   24  C   UNK N   1      21.349  17.802   6.316  0.00  0.00     0.215 C 
HETATM   25  O   UNK N   1      20.231  16.994   6.637  0.00  0.00    -0.290 OA
HETATM   26  P   UNK N   1      20.605  15.694   7.815  0.00  0.00     0.478 P 
HETATM   27  O   UNK N   1      19.762  15.066   6.668  0.00  0.00    -0.227 OA
BRANCH  26  28
HETATM   28  O   UNK N   1      20.966  13.985   7.636  0.00  0.00    -0.288 OA
BRANCH  28  29
HETATM   29  C   UNK N   1      21.796  13.614   8.707  0.00  0.00     0.125 C 
HETATM   30  C   UNK N   1      20.986  13.563   9.983  0.00  0.00     0.040 C 
HETATM   31  C   UNK N   1      22.388  12.236   8.453  0.00  0.00     0.040 C 
ENDBRANCH  28  29
ENDBRANCH  26  28
ENDBRANCH  10  16
BRANCH   1  32
HETATM   32  O   UNK N   1      30.062  17.439   4.202  0.00  0.00    -0.334 OA
BRANCH  32  33
HETATM   33  C   UNK N   1      31.189  17.148   4.934  0.00  0.00     0.173 C 
HETATM   34  C   UNK N   1      32.420  17.593   4.173  0.00  0.00     0.034 C 
ENDBRANCH  32  33
ENDBRANCH   1  32
TORSDOF 5
ENDMDL
MODEL 9
REMARK VINA RESULT:      -6.5     12.692     16.408
REMARK  5 active torsions:
REMARK  status: ('A' for Active; 'I' for Inactive)
REMARK    1  A    between atoms: C_2  and  O_3 
REMARK    2  A    between atoms: O_3  and  C_4 
REMARK       I    between atoms: C_9  and  N_12 
REMARK    3  A    between atoms: C_17  and  N_13 
REMARK    4  A    between atoms: P_24  and  O_27 
REMARK    5  A    between atoms: O_27  and  C_28 
ROOT
HETATM    1  C   UNK N   1      22.791  11.712   9.691  0.00  0.00     0.188 A 
HETATM    2  C   UNK N   1      21.832  12.689   9.389  0.00  0.00     0.130 A 
HETATM    3  C   UNK N   1      21.606  13.042   8.110  0.00  0.00     0.157 A 
HETATM    4  N   UNK N   1      22.284  12.481   7.080  0.00  0.00    -0.174 N 
ATOM      5  HN  UNK N   1      22.103  12.773   6.120  1.00  0.00     0.186 HD
HETATM    6  C   UNK N   1      23.211  11.519   7.348  0.00  0.00     0.679 A 
HETATM    7  N   UNK N   1      23.462  11.144   8.643  0.00  0.00    -0.168 N 
ATOM      8  HN  UNK N   1      24.163  10.428   8.829  1.00  0.00     0.186 HD
HETATM    9  N   UNK N   1      23.917  10.913   6.290  0.00  0.00    -0.234 N 
HETATM   10  N   UNK N   1      20.673  14.014   8.064  0.00  0.00    -0.296 N 
HETATM   11  C   UNK N   1      20.344  14.236   9.362  0.00  0.00     0.188 A 
HETATM   12  N   UNK N   1      21.044  13.421  10.201  0.00  0.00    -0.346 N 
ATOM     13  HN  UNK N   1      20.986  13.377  11.219  1.00  0.00     0.167 HD
HETATM   14  H   UNK N   1      24.675  10.315   6.481  0.00  0.00     0.174 HD
HETATM   15  H   UNK N   1      23.651  11.089   5.358  0.00  0.00     0.174 HD
ENDROOT
BRANCH  10  16
HETATM   16  C   UNK N   1      20.144  14.780   6.920  0.00  0.00     0.273 C 
HETATM   17  C   UNK N   1      20.768  16.140   6.698  0.00  0.00     0.172 C 
HETATM   18  C   UNK N   1      20.295  16.441   5.306  0.00  0.00     0.208 C 
HETATM   19  C   UNK N   1      20.277  17.190   7.678  0.00  0.00     0.059 C 
HETATM   20  F   UNK N   1      22.154  16.037   6.705  0.00  0.00    -0.236 F 
HETATM   21  C   UNK N   1      19.717  15.118   4.846  0.00  0.00     0.181 C 
HETATM   22  O   UNK N   1      21.416  16.721   4.509  0.00  0.00    -0.281 OA
HETATM   23  O   UNK N   1      20.254  14.119   5.684  0.00  0.00    -0.353 OA
HETATM   24  C   UNK N   1      20.062  14.981   3.366  0.00  0.00     0.215 C 
HETATM   25  O   UNK N   1      19.723  16.207   2.743  0.00  0.00    -0.290 OA
HETATM   26  P   UNK N   1      20.937  17.501   3.004  0.00  0.00     0.478 P 
HETATM   27  O   UNK N   1      19.529  18.116   3.247  0.00  0.00    -0.227 OA
BRANCH  26  28
HETATM   28  O   UNK N   1      21.027  18.847   4.129  0.00  0.00    -0.288 OA
BRANCH  28  29
HETATM   29  C   UNK N   1      21.885  19.809   3.569  0.00  0.00     0.125 C 
HETATM   30  C   UNK N   1      23.304  19.288   3.575  0.00  0.00     0.040 C 
HETATM   31  C   UNK N   1      21.479  20.095   2.132  0.00  0.00     0.040 C 
ENDBRANCH  28  29
ENDBRANCH  26  28
ENDBRANCH  10  16
BRANCH   1  32
HETATM   32  O   UNK N   1      23.090  11.322  10.955  0.00  0.00    -0.334 OA
BRANCH  32  33
HETATM   33  C   UNK N   1      23.918  12.019  11.801  0.00  0.00     0.173 C 
HETATM   34  C   UNK N   1      23.351  11.995  13.205  0.00  0.00     0.034 C 
ENDBRANCH  32  33
ENDBRANCH   1  32
TORSDOF 5
ENDMDL
