MODEL 1
REMARK VINA RESULT:      -9.4      0.000      0.000
REMARK  13 active torsions:
REMARK  status: ('A' for Active; 'I' for Inactive)
REMARK    1  A    between atoms: C_2  and  N_4 
REMARK    2  A    between atoms: N_4  and  C_5 
REMARK    3  A    between atoms: C_8  and  C_11 
REMARK    4  A    between atoms: C_13  and  O_25 
REMARK    5  A    between atoms: C_17  and  O_23 
REMARK    6  A    between atoms: C_26  and  O_25 
REMARK    7  A    between atoms: C_32  and  P_56 
REMARK    8  A    between atoms: C_42  and  N_47 
REMARK       I    between atoms: N_47  and  C_48 
REMARK    9  A    between atoms: C_48  and  O_50 
REMARK   10  A    between atoms: O_50  and  C_51 
REMARK   11  A    between atoms: P_56  and  C_58 
REMARK   12  A    between atoms: P_56  and  O_67 
REMARK   13  A    between atoms: C_58  and  C_59 
ROOT
HETATM    1  C   UNK N   1      27.574  16.821   4.777  0.00  0.00     0.149 C 
HETATM    2  C   UNK N   1      28.662  17.261   3.800  0.00  0.00     0.069 C 
HETATM    3  C   UNK N   1      29.635  16.115   4.005  0.00  0.00     0.181 C 
HETATM    4  C   UNK N   1      30.761  15.844   3.033  0.00  0.00     0.241 C 
HETATM    5  O   UNK N   1      30.789  16.487   1.997  0.00  0.00    -0.271 OA
HETATM    6  N   UNK N   1      31.808  15.013   3.301  0.00  0.00    -0.341 N 
HETATM    7  C   UNK N   1      32.003  14.116   4.435  0.00  0.00     0.109 A 
HETATM    8  C   UNK N   1      31.038  12.981   4.546  0.00  0.00     0.049 A 
HETATM    9  C   UNK N   1      32.373  12.749   3.857  0.00  0.00     0.026 A 
HETATM   10  C   UNK N   1      32.911  11.576   4.647  0.00  0.00     0.008 C 
HETATM   11  C   UNK N   1      32.738  10.294   3.814  0.00  0.00     0.000 C 
HETATM   12  C   UNK N   1      31.281  10.025   3.408  0.00  0.00     0.000 C 
HETATM   13  C   UNK N   1      30.922  10.794   2.141  0.00  0.00     0.000 C 
HETATM   14  C   UNK N   1      29.428  11.059   2.077  0.00  0.00     0.000 C 
HETATM   15  C   UNK N   1      29.146  12.234   1.147  0.00  0.00     0.002 C 
HETATM   16  C   UNK N   1      29.315  13.558   1.879  0.00  0.00     0.035 C 
HETATM   17  C   UNK N   1      28.130  13.774   2.797  0.00  0.00     0.179 C 
HETATM   18  C   UNK N   1      28.367  13.963   4.269  0.00  0.00     0.243 C 
HETATM   19  O   UNK N   1      27.791  13.199   5.028  0.00  0.00    -0.271 OA
HETATM   20  N   UNK N   1      28.929  15.112   4.770  0.00  0.00    -0.334 N 
HETATM   21  C   UNK N   1      28.135  15.787   5.748  0.00  0.00     0.159 C 
HETATM   22  H   UNK N   1      32.532  15.019   2.635  0.00  0.00     0.163 HD
ENDROOT
BRANCH   1  23
HETATM   23  O   UNK N   1      26.589  17.710   5.114  0.00  0.00    -0.343 OA
BRANCH  23  24
HETATM   24  C   UNK N   1      25.267  17.451   5.103  0.00  0.00     0.084 A 
HETATM   25  C   UNK N   1      24.724  16.347   5.780  0.00  0.00     0.069 A 
HETATM   26  C   UNK N   1      23.346  16.119   5.718  0.00  0.00     0.062 A 
HETATM   27  N   UNK N   1      22.552  16.975   5.022  0.00  0.00    -0.352 N 
HETATM   28  C   UNK N   1      23.040  18.065   4.377  0.00  0.00     0.070 A 
ATOM     29  HN  UNK N   1      21.549  16.792   4.984  1.00  0.00     0.166 HD
HETATM   30  C   UNK N   1      22.167  18.930   3.693  0.00  0.00     0.095 A 
HETATM   31  C   UNK N   1      24.420  18.321   4.405  0.00  0.00     0.026 A 
HETATM   32  C   UNK N   1      22.698  20.075   3.025  0.00  0.00     0.092 A 
HETATM   33 Cl   UNK N   1      20.444  18.536   3.722  0.00  0.00    -0.079 Cl
HETATM   34  C   UNK N   1      24.076  20.312   3.080  0.00  0.00     0.039 A 
HETATM   35  C   UNK N   1      24.931  19.449   3.758  0.00  0.00     0.019 A 
BRANCH  26  36
HETATM   36  C   UNK N   1      22.715  15.008   6.444  0.00  0.00     0.067 A 
HETATM   37  N   UNK N   1      23.423  14.119   7.230  0.00  0.00    -0.335 N 
HETATM   38  C   UNK N   1      22.594  13.268   7.884  0.00  0.00     0.145 A 
ATOM     39  HN  UNK N   1      24.440  14.103   7.309  1.00  0.00     0.168 HD
HETATM   40  S   UNK N   1      21.028  13.607   7.492  0.00  0.00    -0.064 SA
HETATM   41  C   UNK N   1      21.313  14.860   6.460  0.00  0.00     0.085 A 
BRANCH  38  42
HETATM   42  N   UNK N   1      23.030  12.351   8.874  0.00  0.00    -0.367 N 
HETATM   43  H   UNK N   1      23.257  11.432   8.602  0.00  0.00     0.162 HD
BRANCH  42  44
HETATM   44  C   UNK N   1      23.153  12.719  10.268  0.00  0.00     0.075 C 
HETATM   45  C   UNK N   1      24.438  12.153  10.831  0.00  0.00     0.032 C 
HETATM   46  C   UNK N   1      21.984  12.222  11.098  0.00  0.00     0.032 C 
ENDBRANCH  42  44
ENDBRANCH  38  42
ENDBRANCH  26  36
BRANCH  32  47
HETATM   47  O   UNK N   1      21.954  20.970   2.321  0.00  0.00    -0.354 OA
HETATM   48  C   UNK N   1      21.111  20.692   1.273  0.00  0.00     0.210 C 
ENDBRANCH  32  47
ENDBRANCH  23  24
ENDBRANCH   1  23
BRANCH  17  49
HETATM   49  N   UNK N   1      27.248  14.832   2.365  0.00  0.00    -0.324 N 
HETATM   50  C   UNK N   1      25.895  14.657   2.301  0.00  0.00     0.361 C 
HETATM   51  O   UNK N   1      25.166  15.626   2.239  0.00  0.00    -0.238 OA
HETATM   52  H   UNK N   1      27.630  15.704   2.112  0.00  0.00     0.165 HD
BRANCH  50  53
HETATM   53  O   UNK N   1      25.342  13.411   2.321  0.00  0.00    -0.299 OA
BRANCH  53  54
HETATM   54  C   UNK N   1      25.183  12.678   1.167  0.00  0.00     0.133 C 
HETATM   55  C   UNK N   1      25.204  11.197   1.435  0.00  0.00     0.032 C 
HETATM   56  C   UNK N   1      24.453  10.614   0.255  0.00  0.00     0.002 C 
HETATM   57  C   UNK N   1      23.438  11.667  -0.160  0.00  0.00     0.002 C 
HETATM   58  C   UNK N   1      23.808  12.934   0.582  0.00  0.00     0.032 C 
ENDBRANCH  53  54
ENDBRANCH  50  53
ENDBRANCH  17  49
BRANCH   7  59
HETATM   59  P   UNK N   1      33.017  14.704   5.932  0.00  0.00     0.131 P 
HETATM   60  O   UNK N   1      32.848  16.096   5.270  0.00  0.00    -0.672 OA
BRANCH  59  61
HETATM   61  C   UNK N   1      32.388  15.684   7.396  0.00  0.00     0.141 C 
BRANCH  61  62
HETATM   62  C   UNK N   1      33.245  15.785   8.623  0.00  0.00     0.028 A 
HETATM   63  C   UNK N   1      34.044  16.932   8.777  0.00  0.00     0.126 A 
HETATM   64  C   UNK N   1      34.913  17.045   9.864  0.00  0.00     0.043 A 
HETATM   65  F   UNK N   1      34.001  17.927   7.854  0.00  0.00    -0.205 F 
HETATM   66  C   UNK N   1      34.991  16.022  10.807  0.00  0.00     0.006 A 
HETATM   67  C   UNK N   1      34.202  14.879  10.666  0.00  0.00     0.043 A 
HETATM   68  C   UNK N   1      33.333  14.751   9.581  0.00  0.00     0.126 A 
HETATM   69  F   UNK N   1      32.598  13.621   9.472  0.00  0.00    -0.205 F 
ENDBRANCH  61  62
ENDBRANCH  59  61
BRANCH  59  70
HETATM   70  O   UNK N   1      31.429  14.319   6.502  0.00  0.00    -0.347 OA
HETATM   71  H   UNK N   1      31.025  13.457   6.319  0.00  0.00     0.218 HD
ENDBRANCH  59  70
ENDBRANCH   7  59
TORSDOF 13
ENDMDL
MODEL 2
REMARK VINA RESULT:      -9.1      2.075      2.769
REMARK  13 active torsions:
REMARK  status: ('A' for Active; 'I' for Inactive)
REMARK    1  A    between atoms: C_2  and  N_4 
REMARK    2  A    between atoms: N_4  and  C_5 
REMARK    3  A    between atoms: C_8  and  C_11 
REMARK    4  A    between atoms: C_13  and  O_25 
REMARK    5  A    between atoms: C_17  and  O_23 
REMARK    6  A    between atoms: C_26  and  O_25 
REMARK    7  A    between atoms: C_32  and  P_56 
REMARK    8  A    between atoms: C_42  and  N_47 
REMARK       I    between atoms: N_47  and  C_48 
REMARK    9  A    between atoms: C_48  and  O_50 
REMARK   10  A    between atoms: O_50  and  C_51 
REMARK   11  A    between atoms: P_56  and  C_58 
REMARK   12  A    between atoms: P_56  and  O_67 
REMARK   13  A    between atoms: C_58  and  C_59 
ROOT
HETATM    1  C   UNK N   1      30.255  16.461   5.093  0.00  0.00     0.149 C 
HETATM    2  C   UNK N   1      31.376  16.876   4.145  0.00  0.00     0.069 C 
HETATM    3  C   UNK N   1      32.312  15.702   4.362  0.00  0.00     0.181 C 
HETATM    4  C   UNK N   1      33.451  15.406   3.414  0.00  0.00     0.241 C 
HETATM    5  O   UNK N   1      33.521  16.055   2.383  0.00  0.00    -0.271 OA
HETATM    6  N   UNK N   1      34.468  14.544   3.699  0.00  0.00    -0.341 N 
HETATM    7  C   UNK N   1      34.614  13.635   4.830  0.00  0.00     0.109 A 
HETATM    8  C   UNK N   1      33.615  12.526   4.912  0.00  0.00     0.049 A 
HETATM    9  C   UNK N   1      34.958  12.262   4.251  0.00  0.00     0.026 A 
HETATM   10  C   UNK N   1      35.445  11.069   5.044  0.00  0.00     0.008 C 
HETATM   11  C   UNK N   1      35.255   9.797   4.199  0.00  0.00     0.000 C 
HETATM   12  C   UNK N   1      33.801   9.573   3.759  0.00  0.00     0.000 C 
HETATM   13  C   UNK N   1      33.492  10.360   2.489  0.00  0.00     0.000 C 
HETATM   14  C   UNK N   1      32.008  10.667   2.394  0.00  0.00     0.000 C 
HETATM   15  C   UNK N   1      31.780  11.856   1.466  0.00  0.00     0.002 C 
HETATM   16  C   UNK N   1      31.968  13.170   2.211  0.00  0.00     0.035 C 
HETATM   17  C   UNK N   1      30.770  13.413   3.105  0.00  0.00     0.179 C 
HETATM   18  C   UNK N   1      30.979  13.585   4.583  0.00  0.00     0.243 C 
HETATM   19  O   UNK N   1      30.364  12.833   5.323  0.00  0.00    -0.271 OA
HETATM   20  N   UNK N   1      31.562  14.714   5.104  0.00  0.00    -0.334 N 
HETATM   21  C   UNK N   1      30.765  15.405   6.069  0.00  0.00     0.159 C 
HETATM   22  H   UNK N   1      35.208  14.534   3.049  0.00  0.00     0.163 HD
ENDROOT
BRANCH   1  23
HETATM   23  O   UNK N   1      29.288  17.375   5.415  0.00  0.00    -0.343 OA
BRANCH  23  24
HETATM   24  C   UNK N   1      27.975  17.105   5.558  0.00  0.00     0.084 A 
HETATM   25  C   UNK N   1      27.526  15.941   6.203  0.00  0.00     0.069 A 
HETATM   26  C   UNK N   1      26.152  15.706   6.305  0.00  0.00     0.062 A 
HETATM   27  N   UNK N   1      25.273  16.611   5.797  0.00  0.00    -0.352 N 
HETATM   28  C   UNK N   1      25.673  17.757   5.189  0.00  0.00     0.070 A 
ATOM     29  HN  UNK N   1      24.274  16.423   5.877  1.00  0.00     0.166 HD
HETATM   30  C   UNK N   1      24.718  18.669   4.705  0.00  0.00     0.095 A 
HETATM   31  C   UNK N   1      27.045  18.024   5.056  0.00  0.00     0.026 A 
HETATM   32  C   UNK N   1      25.157  19.872   4.074  0.00  0.00     0.092 A 
HETATM   33 Cl   UNK N   1      23.013  18.257   4.929  0.00  0.00    -0.079 Cl
HETATM   34  C   UNK N   1      26.531  20.118   3.966  0.00  0.00     0.039 A 
HETATM   35  C   UNK N   1      27.467  19.207   4.447  0.00  0.00     0.019 A 
BRANCH  26  36
HETATM   36  C   UNK N   1      25.621  14.532   7.009  0.00  0.00     0.067 A 
HETATM   37  N   UNK N   1      25.462  14.479   8.382  0.00  0.00    -0.335 N 
HETATM   38  C   UNK N   1      24.842  13.336   8.765  0.00  0.00     0.145 A 
ATOM     39  HN  UNK N   1      25.773  15.207   9.025  1.00  0.00     0.168 HD
HETATM   40  S   UNK N   1      24.506  12.414   7.439  0.00  0.00    -0.064 SA
HETATM   41  C   UNK N   1      25.135  13.418   6.293  0.00  0.00     0.085 A 
BRANCH  38  42
HETATM   42  N   UNK N   1      24.413  13.081  10.092  0.00  0.00    -0.367 N 
HETATM   43  H   UNK N   1      24.986  13.369  10.839  0.00  0.00     0.162 HD
BRANCH  42  44
HETATM   44  C   UNK N   1      23.164  12.413  10.386  0.00  0.00     0.075 C 
HETATM   45  C   UNK N   1      22.007  13.335  10.067  0.00  0.00     0.032 C 
HETATM   46  C   UNK N   1      23.071  11.982  11.839  0.00  0.00     0.032 C 
ENDBRANCH  42  44
ENDBRANCH  38  42
ENDBRANCH  26  36
BRANCH  32  47
HETATM   47  O   UNK N   1      24.327  20.817   3.555  0.00  0.00    -0.354 OA
HETATM   48  C   UNK N   1      23.255  20.601   2.726  0.00  0.00     0.210 C 
ENDBRANCH  32  47
ENDBRANCH  23  24
ENDBRANCH   1  23
BRANCH  17  49
HETATM   49  N   UNK N   1      29.928  14.498   2.661  0.00  0.00    -0.324 N 
HETATM   50  C   UNK N   1      28.566  14.410   2.698  0.00  0.00     0.361 C 
HETATM   51  O   UNK N   1      27.896  15.420   2.619  0.00  0.00    -0.238 OA
HETATM   52  H   UNK N   1      30.345  15.324   2.324  0.00  0.00     0.165 HD
BRANCH  50  53
HETATM   53  O   UNK N   1      27.938  13.208   2.840  0.00  0.00    -0.299 OA
BRANCH  53  54
HETATM   54  C   UNK N   1      27.520  12.484   1.746  0.00  0.00     0.133 C 
HETATM   55  C   UNK N   1      28.114  11.101   1.728  0.00  0.00     0.032 C 
HETATM   56  C   UNK N   1      27.140  10.309   0.879  0.00  0.00     0.002 C 
HETATM   57  C   UNK N   1      25.776  10.944   1.100  0.00  0.00     0.002 C 
HETATM   58  C   UNK N   1      26.024  12.249   1.828  0.00  0.00     0.032 C 
ENDBRANCH  53  54
ENDBRANCH  50  53
ENDBRANCH  17  49
BRANCH   7  59
HETATM   59  P   UNK N   1      35.609  14.184   6.355  0.00  0.00     0.131 P 
HETATM   60  O   UNK N   1      35.541  15.575   5.672  0.00  0.00    -0.672 OA
BRANCH  59  61
HETATM   61  C   UNK N   1      34.989  15.216   7.785  0.00  0.00     0.141 C 
BRANCH  61  62
HETATM   62  C   UNK N   1      35.297  14.773   9.186  0.00  0.00     0.028 A 
HETATM   63  C   UNK N   1      34.263  14.833  10.138  0.00  0.00     0.126 A 
HETATM   64  C   UNK N   1      34.514  14.500  11.471  0.00  0.00     0.043 A 
HETATM   65  F   UNK N   1      33.021  15.244   9.778  0.00  0.00    -0.205 F 
HETATM   66  C   UNK N   1      35.790  14.102  11.866  0.00  0.00     0.006 A 
HETATM   67  C   UNK N   1      36.823  14.037  10.929  0.00  0.00     0.043 A 
HETATM   68  C   UNK N   1      36.587  14.373   9.594  0.00  0.00     0.126 A 
HETATM   69  F   UNK N   1      37.619  14.312   8.721  0.00  0.00    -0.205 F 
ENDBRANCH  61  62
ENDBRANCH  59  61
BRANCH  59  70
HETATM   70  O   UNK N   1      33.984  13.896   6.875  0.00  0.00    -0.347 OA
HETATM   71  H   UNK N   1      33.409  14.626   7.151  0.00  0.00     0.218 HD
ENDBRANCH  59  70
ENDBRANCH   7  59
TORSDOF 13
ENDMDL
MODEL 3
REMARK VINA RESULT:      -8.6      5.612     12.028
REMARK  13 active torsions:
REMARK  status: ('A' for Active; 'I' for Inactive)
REMARK    1  A    between atoms: C_2  and  N_4 
REMARK    2  A    between atoms: N_4  and  C_5 
REMARK    3  A    between atoms: C_8  and  C_11 
REMARK    4  A    between atoms: C_13  and  O_25 
REMARK    5  A    between atoms: C_17  and  O_23 
REMARK    6  A    between atoms: C_26  and  O_25 
REMARK    7  A    between atoms: C_32  and  P_56 
REMARK    8  A    between atoms: C_42  and  N_47 
REMARK       I    between atoms: N_47  and  C_48 
REMARK    9  A    between atoms: C_48  and  O_50 
REMARK   10  A    between atoms: O_50  and  C_51 
REMARK   11  A    between atoms: P_56  and  C_58 
REMARK   12  A    between atoms: P_56  and  O_67 
REMARK   13  A    between atoms: C_58  and  C_59 
ROOT
HETATM    1  C   UNK N   1      33.934  13.755   4.165  0.00  0.00     0.149 C 
HETATM    2  C   UNK N   1      33.925  15.140   3.524  0.00  0.00     0.069 C 
HETATM    3  C   UNK N   1      32.606  15.645   4.078  0.00  0.00     0.181 C 
HETATM    4  C   UNK N   1      32.238  17.111   4.045  0.00  0.00     0.241 C 
HETATM    5  O   UNK N   1      33.091  17.907   3.687  0.00  0.00    -0.271 OA
HETATM    6  N   UNK N   1      30.979  17.580   4.277  0.00  0.00    -0.341 N 
HETATM    7  C   UNK N   1      29.801  16.859   4.743  0.00  0.00     0.109 A 
HETATM    8  C   UNK N   1      29.878  16.304   6.128  0.00  0.00     0.049 A 
HETATM    9  C   UNK N   1      29.227  17.661   5.912  0.00  0.00     0.026 A 
HETATM   10  C   UNK N   1      27.873  17.441   6.551  0.00  0.00     0.008 C 
HETATM   11  C   UNK N   1      27.855  18.123   7.930  0.00  0.00     0.000 C 
HETATM   12  C   UNK N   1      28.961  17.622   8.869  0.00  0.00     0.000 C 
HETATM   13  C   UNK N   1      30.268  18.366   8.613  0.00  0.00     0.000 C 
HETATM   14  C   UNK N   1      31.459  17.521   9.026  0.00  0.00     0.000 C 
HETATM   15  C   UNK N   1      32.715  18.003   8.308  0.00  0.00     0.002 C 
HETATM   16  C   UNK N   1      32.811  17.395   6.916  0.00  0.00     0.035 C 
HETATM   17  C   UNK N   1      33.224  15.943   7.032  0.00  0.00     0.179 C 
HETATM   18  C   UNK N   1      32.335  14.878   6.453  0.00  0.00     0.243 C 
HETATM   19  O   UNK N   1      31.959  13.996   7.210  0.00  0.00    -0.271 OA
HETATM   20  N   UNK N   1      32.204  14.703   5.098  0.00  0.00    -0.334 N 
HETATM   21  C   UNK N   1      32.528  13.391   4.632  0.00  0.00     0.159 C 
HETATM   22  H   UNK N   1      30.849  18.541   4.105  0.00  0.00     0.163 HD
ENDROOT
BRANCH   1  23
HETATM   23  O   UNK N   1      34.843  12.829   3.729  0.00  0.00    -0.343 OA
BRANCH  23  24
HETATM   24  C   UNK N   1      35.430  12.822   2.516  0.00  0.00     0.084 A 
HETATM   25  C   UNK N   1      34.690  12.629   1.338  0.00  0.00     0.069 A 
HETATM   26  C   UNK N   1      35.356  12.614   0.109  0.00  0.00     0.062 A 
HETATM   27  N   UNK N   1      36.703  12.802   0.070  0.00  0.00    -0.352 N 
HETATM   28  C   UNK N   1      37.444  13.015   1.187  0.00  0.00     0.070 A 
ATOM     29  HN  UNK N   1      37.174  12.784  -0.834  1.00  0.00     0.166 HD
HETATM   30  C   UNK N   1      38.830  13.229   1.083  0.00  0.00     0.095 A 
HETATM   31  C   UNK N   1      36.813  13.026   2.441  0.00  0.00     0.026 A 
HETATM   32  C   UNK N   1      39.593  13.458   2.268  0.00  0.00     0.092 A 
HETATM   33 Cl   UNK N   1      39.537  13.212  -0.537  0.00  0.00    -0.079 Cl
HETATM   34  C   UNK N   1      38.936  13.475   3.504  0.00  0.00     0.039 A 
HETATM   35  C   UNK N   1      37.564  13.260   3.595  0.00  0.00     0.019 A 
BRANCH  26  36
HETATM   36  C   UNK N   1      34.631  12.463  -1.159  0.00  0.00     0.067 A 
HETATM   37  N   UNK N   1      33.318  12.039  -1.235  0.00  0.00    -0.335 N 
HETATM   38  C   UNK N   1      32.849  12.104  -2.505  0.00  0.00     0.145 A 
ATOM     39  HN  UNK N   1      32.770  11.718  -0.436  1.00  0.00     0.168 HD
HETATM   40  S   UNK N   1      34.033  12.665  -3.507  0.00  0.00    -0.064 SA
HETATM   41  C   UNK N   1      35.219  12.857  -2.379  0.00  0.00     0.085 A 
BRANCH  38  42
HETATM   42  N   UNK N   1      31.494  11.876  -2.856  0.00  0.00    -0.367 N 
HETATM   43  H   UNK N   1      31.031  12.540  -3.416  0.00  0.00     0.162 HD
BRANCH  42  44
HETATM   44  C   UNK N   1      30.769  10.702  -2.418  0.00  0.00     0.075 C 
HETATM   45  C   UNK N   1      29.937  10.164  -3.561  0.00  0.00     0.032 C 
HETATM   46  C   UNK N   1      29.863  10.994  -1.237  0.00  0.00     0.032 C 
ENDBRANCH  42  44
ENDBRANCH  38  42
ENDBRANCH  26  36
BRANCH  32  47
HETATM   47  O   UNK N   1      40.938  13.661   2.291  0.00  0.00    -0.354 OA
HETATM   48  C   UNK N   1      41.597  14.825   1.980  0.00  0.00     0.210 C 
ENDBRANCH  32  47
ENDBRANCH  23  24
ENDBRANCH   1  23
BRANCH  17  49
HETATM   49  N   UNK N   1      34.565  15.683   6.566  0.00  0.00    -0.324 N 
HETATM   50  C   UNK N   1      35.393  14.812   7.214  0.00  0.00     0.361 C 
HETATM   51  O   UNK N   1      36.376  14.381   6.645  0.00  0.00    -0.238 OA
HETATM   52  H   UNK N   1      34.891  16.143   5.759  0.00  0.00     0.165 HD
BRANCH  50  53
HETATM   53  O   UNK N   1      35.131  14.401   8.488  0.00  0.00    -0.299 OA
BRANCH  53  54
HETATM   54  C   UNK N   1      35.854  14.877   9.558  0.00  0.00     0.133 C 
HETATM   55  C   UNK N   1      35.153  16.018  10.246  0.00  0.00     0.032 C 
HETATM   56  C   UNK N   1      35.735  15.998  11.645  0.00  0.00     0.002 C 
HETATM   57  C   UNK N   1      36.075  14.545  11.939  0.00  0.00     0.002 C 
HETATM   58  C   UNK N   1      35.959  13.804  10.624  0.00  0.00     0.032 C 
ENDBRANCH  53  54
ENDBRANCH  50  53
ENDBRANCH  17  49
BRANCH   7  59
HETATM   59  P   UNK N   1      28.546  16.193   3.479  0.00  0.00     0.131 P 
HETATM   60  O   UNK N   1      29.635  16.604   2.454  0.00  0.00    -0.672 OA
BRANCH  59  61
HETATM   61  C   UNK N   1      28.681  14.608   2.496  0.00  0.00     0.141 C 
BRANCH  61  62
HETATM   62  C   UNK N   1      27.429  13.844   2.177  0.00  0.00     0.028 A 
HETATM   63  C   UNK N   1      27.519  12.444   2.075  0.00  0.00     0.126 A 
HETATM   64  C   UNK N   1      26.400  11.691   1.711  0.00  0.00     0.043 A 
HETATM   65  F   UNK N   1      28.700  11.814   2.297  0.00  0.00    -0.205 F 
HETATM   66  C   UNK N   1      25.185  12.323   1.451  0.00  0.00     0.006 A 
HETATM   67  C   UNK N   1      25.083  13.711   1.552  0.00  0.00     0.043 A 
HETATM   68  C   UNK N   1      26.195  14.476   1.909  0.00  0.00     0.126 A 
HETATM   69  F   UNK N   1      26.058  15.821   1.980  0.00  0.00    -0.205 F 
ENDBRANCH  61  62
ENDBRANCH  59  61
BRANCH  59  70
HETATM   70  O   UNK N   1      29.234  14.829   4.292  0.00  0.00    -0.347 OA
HETATM   71  H   UNK N   1      30.190  14.758   4.432  0.00  0.00     0.218 HD
ENDBRANCH  59  70
ENDBRANCH   7  59
TORSDOF 13
ENDMDL
MODEL 4
REMARK VINA RESULT:      -8.6      4.975     10.609
REMARK  13 active torsions:
REMARK  status: ('A' for Active; 'I' for Inactive)
REMARK    1  A    between atoms: C_2  and  N_4 
REMARK    2  A    between atoms: N_4  and  C_5 
REMARK    3  A    between atoms: C_8  and  C_11 
REMARK    4  A    between atoms: C_13  and  O_25 
REMARK    5  A    between atoms: C_17  and  O_23 
REMARK    6  A    between atoms: C_26  and  O_25 
REMARK    7  A    between atoms: C_32  and  P_56 
REMARK    8  A    between atoms: C_42  and  N_47 
REMARK       I    between atoms: N_47  and  C_48 
REMARK    9  A    between atoms: C_48  and  O_50 
REMARK   10  A    between atoms: O_50  and  C_51 
REMARK   11  A    between atoms: P_56  and  C_58 
REMARK   12  A    between atoms: P_56  and  O_67 
REMARK   13  A    between atoms: C_58  and  C_59 
ROOT
HETATM    1  C   UNK N   1      33.122  14.012   3.567  0.00  0.00     0.149 C 
HETATM    2  C   UNK N   1      32.990  15.430   3.018  0.00  0.00     0.069 C 
HETATM    3  C   UNK N   1      31.848  15.913   3.893  0.00  0.00     0.181 C 
HETATM    4  C   UNK N   1      31.512  17.380   4.024  0.00  0.00     0.241 C 
HETATM    5  O   UNK N   1      32.271  18.189   3.516  0.00  0.00    -0.271 OA
HETATM    6  N   UNK N   1      30.352  17.844   4.571  0.00  0.00    -0.341 N 
HETATM    7  C   UNK N   1      29.303  17.107   5.264  0.00  0.00     0.109 A 
HETATM    8  C   UNK N   1      29.694  16.477   6.562  0.00  0.00     0.049 A 
HETATM    9  C   UNK N   1      29.037  17.848   6.576  0.00  0.00     0.026 A 
HETATM   10  C   UNK N   1      27.867  17.603   7.504  0.00  0.00     0.008 C 
HETATM   11  C   UNK N   1      28.189  18.208   8.882  0.00  0.00     0.000 C 
HETATM   12  C   UNK N   1      29.475  17.649   9.506  0.00  0.00     0.000 C 
HETATM   13  C   UNK N   1      30.698  18.397   8.987  0.00  0.00     0.000 C 
HETATM   14  C   UNK N   1      31.937  17.522   9.062  0.00  0.00     0.000 C 
HETATM   15  C   UNK N   1      32.997  18.035   8.093  0.00  0.00     0.002 C 
HETATM   16  C   UNK N   1      32.751  17.503   6.688  0.00  0.00     0.035 C 
HETATM   17  C   UNK N   1      33.151  16.044   6.629  0.00  0.00     0.179 C 
HETATM   18  C   UNK N   1      32.130  15.019   6.223  0.00  0.00     0.243 C 
HETATM   19  O   UNK N   1      31.925  14.099   7.000  0.00  0.00    -0.271 OA
HETATM   20  N   UNK N   1      31.680  14.919   4.929  0.00  0.00    -0.334 N 
HETATM   21  C   UNK N   1      31.859  13.632   4.334  0.00  0.00     0.159 C 
HETATM   22  H   UNK N   1      30.204  18.814   4.485  0.00  0.00     0.163 HD
ENDROOT
BRANCH   1  23
HETATM   23  O   UNK N   1      33.884  13.105   2.881  0.00  0.00    -0.343 OA
BRANCH  23  24
HETATM   24  C   UNK N   1      33.614  12.630   1.649  0.00  0.00     0.084 A 
HETATM   25  C   UNK N   1      32.492  11.823   1.398  0.00  0.00     0.069 A 
HETATM   26  C   UNK N   1      32.272  11.345   0.103  0.00  0.00     0.062 A 
HETATM   27  N   UNK N   1      33.133  11.679  -0.894  0.00  0.00    -0.352 N 
HETATM   28  C   UNK N   1      34.213  12.476  -0.691  0.00  0.00     0.070 A 
ATOM     29  HN  UNK N   1      32.960  11.319  -1.832  1.00  0.00     0.166 HD
HETATM   30  C   UNK N   1      35.055  12.810  -1.767  0.00  0.00     0.095 A 
HETATM   31  C   UNK N   1      34.475  12.967   0.598  0.00  0.00     0.026 A 
HETATM   32  C   UNK N   1      36.183  13.655  -1.536  0.00  0.00     0.092 A 
HETATM   33 Cl   UNK N   1      34.641  12.158  -3.357  0.00  0.00    -0.079 Cl
HETATM   34  C   UNK N   1      36.413  14.139  -0.243  0.00  0.00     0.039 A 
HETATM   35  C   UNK N   1      35.574  13.801   0.814  0.00  0.00     0.019 A 
BRANCH  26  36
HETATM   36  C   UNK N   1      31.092  10.536  -0.230  0.00  0.00     0.067 A 
HETATM   37  N   UNK N   1      29.943  10.519   0.540  0.00  0.00    -0.335 N 
HETATM   38  C   UNK N   1      28.963   9.792  -0.049  0.00  0.00     0.145 A 
ATOM     39  HN  UNK N   1      29.846  10.994   1.438  1.00  0.00     0.168 HD
HETATM   40  S   UNK N   1      29.508   9.182  -1.481  0.00  0.00    -0.064 SA
HETATM   41  C   UNK N   1      31.032   9.807  -1.435  0.00  0.00     0.085 A 
BRANCH  38  42
HETATM   42  N   UNK N   1      27.633   9.726   0.437  0.00  0.00    -0.367 N 
HETATM   43  H   UNK N   1      27.100   8.918   0.255  0.00  0.00     0.162 HD
BRANCH  42  44
HETATM   44  C   UNK N   1      27.032  10.804   1.192  0.00  0.00     0.075 C 
HETATM   45  C   UNK N   1      27.117  10.498   2.671  0.00  0.00     0.032 C 
HETATM   46  C   UNK N   1      25.580  11.031   0.813  0.00  0.00     0.032 C 
ENDBRANCH  42  44
ENDBRANCH  38  42
ENDBRANCH  26  36
BRANCH  32  47
HETATM   47  O   UNK N   1      37.073  14.031  -2.494  0.00  0.00    -0.354 OA
HETATM   48  C   UNK N   1      36.976  15.123  -3.320  0.00  0.00     0.210 C 
ENDBRANCH  32  47
ENDBRANCH  23  24
ENDBRANCH   1  23
BRANCH  17  49
HETATM   49  N   UNK N   1      34.339  15.801   5.846  0.00  0.00    -0.324 N 
HETATM   50  C   UNK N   1      35.478  15.300   6.409  0.00  0.00     0.361 C 
HETATM   51  O   UNK N   1      36.338  14.821   5.698  0.00  0.00    -0.238 OA
HETATM   52  H   UNK N   1      34.328  15.999   4.882  0.00  0.00     0.165 HD
BRANCH  50  53
HETATM   53  O   UNK N   1      35.665  15.313   7.760  0.00  0.00    -0.299 OA
BRANCH  53  54
HETATM   54  C   UNK N   1      35.709  14.146   8.489  0.00  0.00     0.133 C 
HETATM   55  C   UNK N   1      36.919  14.088   9.381  0.00  0.00     0.032 C 
HETATM   56  C   UNK N   1      36.508  13.117  10.470  0.00  0.00     0.002 C 
HETATM   57  C   UNK N   1      35.003  13.269  10.624  0.00  0.00     0.002 C 
HETATM   58  C   UNK N   1      34.534  14.095   9.445  0.00  0.00     0.032 C 
ENDBRANCH  53  54
ENDBRANCH  50  53
ENDBRANCH  17  49
BRANCH   7  59
HETATM   59  P   UNK N   1      27.773  16.520   4.300  0.00  0.00     0.131 P 
HETATM   60  O   UNK N   1      28.667  16.806   3.066  0.00  0.00    -0.672 OA
BRANCH  59  61
HETATM   61  C   UNK N   1      27.581  14.902   3.381  0.00  0.00     0.141 C 
BRANCH  61  62
HETATM   62  C   UNK N   1      26.200  14.396   3.085  0.00  0.00     0.028 A 
HETATM   63  C   UNK N   1      25.570  14.849   1.911  0.00  0.00     0.126 A 
HETATM   64  C   UNK N   1      24.258  14.465   1.624  0.00  0.00     0.043 A 
HETATM   65  F   UNK N   1      26.218  15.688   1.064  0.00  0.00    -0.205 F 
HETATM   66  C   UNK N   1      23.566  13.627   2.496  0.00  0.00     0.006 A 
HETATM   67  C   UNK N   1      24.182  13.170   3.662  0.00  0.00     0.043 A 
HETATM   68  C   UNK N   1      25.491  13.550   3.964  0.00  0.00     0.126 A 
HETATM   69  F   UNK N   1      26.046  13.098   5.113  0.00  0.00    -0.205 F 
ENDBRANCH  61  62
ENDBRANCH  59  61
BRANCH  59  70
HETATM   70  O   UNK N   1      28.496  15.124   5.023  0.00  0.00    -0.347 OA
HETATM   71  H   UNK N   1      27.994  14.303   5.141  0.00  0.00     0.218 HD
ENDBRANCH  59  70
ENDBRANCH   7  59
TORSDOF 13
ENDMDL
MODEL 5
REMARK VINA RESULT:      -8.6      1.304      2.156
REMARK  13 active torsions:
REMARK  status: ('A' for Active; 'I' for Inactive)
REMARK    1  A    between atoms: C_2  and  N_4 
REMARK    2  A    between atoms: N_4  and  C_5 
REMARK    3  A    between atoms: C_8  and  C_11 
REMARK    4  A    between atoms: C_13  and  O_25 
REMARK    5  A    between atoms: C_17  and  O_23 
REMARK    6  A    between atoms: C_26  and  O_25 
REMARK    7  A    between atoms: C_32  and  P_56 
REMARK    8  A    between atoms: C_42  and  N_47 
REMARK       I    between atoms: N_47  and  C_48 
REMARK    9  A    between atoms: C_48  and  O_50 
REMARK   10  A    between atoms: O_50  and  C_51 
REMARK   11  A    between atoms: P_56  and  C_58 
REMARK   12  A    between atoms: P_56  and  O_67 
REMARK   13  A    between atoms: C_58  and  C_59 
ROOT
HETATM    1  C   UNK N   1      27.230  16.508   4.958  0.00  0.00     0.149 C 
HETATM    2  C   UNK N   1      28.254  17.027   3.953  0.00  0.00     0.069 C 
HETATM    3  C   UNK N   1      29.272  15.908   4.059  0.00  0.00     0.181 C 
HETATM    4  C   UNK N   1      30.357  15.718   3.024  0.00  0.00     0.241 C 
HETATM    5  O   UNK N   1      30.314  16.406   2.018  0.00  0.00    -0.271 OA
HETATM    6  N   UNK N   1      31.442  14.912   3.204  0.00  0.00    -0.341 N 
HETATM    7  C   UNK N   1      31.722  13.974   4.286  0.00  0.00     0.109 A 
HETATM    8  C   UNK N   1      30.800  12.802   4.390  0.00  0.00     0.049 A 
HETATM    9  C   UNK N   1      32.107  12.647   3.630  0.00  0.00     0.026 A 
HETATM   10  C   UNK N   1      32.720  11.459   4.339  0.00  0.00     0.008 C 
HETATM   11  C   UNK N   1      32.547  10.210   3.458  0.00  0.00     0.000 C 
HETATM   12  C   UNK N   1      31.083   9.910   3.110  0.00  0.00     0.000 C 
HETATM   13  C   UNK N   1      30.638  10.720   1.898  0.00  0.00     0.000 C 
HETATM   14  C   UNK N   1      29.135  10.937   1.916  0.00  0.00     0.000 C 
HETATM   15  C   UNK N   1      28.770  12.141   1.054  0.00  0.00     0.002 C 
HETATM   16  C   UNK N   1      28.931  13.437   1.837  0.00  0.00     0.035 C 
HETATM   17  C   UNK N   1      27.786  13.572   2.819  0.00  0.00     0.179 C 
HETATM   18  C   UNK N   1      28.089  13.704   4.285  0.00  0.00     0.243 C 
HETATM   19  O   UNK N   1      27.575  12.888   5.035  0.00  0.00    -0.271 OA
HETATM   20  N   UNK N   1      28.637  14.848   4.810  0.00  0.00    -0.334 N 
HETATM   21  C   UNK N   1      27.871  15.453   5.854  0.00  0.00     0.159 C 
HETATM   22  H   UNK N   1      32.133  14.972   2.506  0.00  0.00     0.163 HD
ENDROOT
BRANCH   1  23
HETATM   23  O   UNK N   1      26.234  17.347   5.382  0.00  0.00    -0.343 OA
BRANCH  23  24
HETATM   24  C   UNK N   1      24.913  17.127   5.237  0.00  0.00     0.084 A 
HETATM   25  C   UNK N   1      24.285  16.002   5.799  0.00  0.00     0.069 A 
HETATM   26  C   UNK N   1      22.914  15.817   5.601  0.00  0.00     0.062 A 
HETATM   27  N   UNK N   1      22.207  16.731   4.885  0.00  0.00    -0.352 N 
HETATM   28  C   UNK N   1      22.777  17.840   4.349  0.00  0.00     0.070 A 
ATOM     29  HN  UNK N   1      21.208  16.579   4.747  1.00  0.00     0.166 HD
HETATM   30  C   UNK N   1      21.990  18.765   3.640  0.00  0.00     0.095 A 
HETATM   31  C   UNK N   1      24.154  18.056   4.516  0.00  0.00     0.026 A 
HETATM   32  C   UNK N   1      22.605  19.930   3.088  0.00  0.00     0.092 A 
HETATM   33 Cl   UNK N   1      20.263  18.418   3.491  0.00  0.00    -0.079 Cl
HETATM   34  C   UNK N   1      23.978  20.125   3.280  0.00  0.00     0.039 A 
HETATM   35  C   UNK N   1      24.747  19.202   3.982  0.00  0.00     0.019 A 
BRANCH  26  36
HETATM   36  C   UNK N   1      22.194  14.687   6.203  0.00  0.00     0.067 A 
HETATM   37  N   UNK N   1      21.363  13.849   5.483  0.00  0.00    -0.335 N 
HETATM   38  C   UNK N   1      20.921  12.817   6.243  0.00  0.00     0.145 A 
ATOM     39  HN  UNK N   1      21.114  13.989   4.503  1.00  0.00     0.168 HD
HETATM   40  S   UNK N   1      21.539  12.945   7.767  0.00  0.00    -0.064 SA
HETATM   41  C   UNK N   1      22.407  14.329   7.550  0.00  0.00     0.085 A 
BRANCH  38  42
HETATM   42  N   UNK N   1      20.179  11.724   5.729  0.00  0.00    -0.367 N 
HETATM   43  H   UNK N   1      19.797  11.071   6.360  0.00  0.00     0.162 HD
BRANCH  42  44
HETATM   44  C   UNK N   1      19.964  11.534   4.311  0.00  0.00     0.075 C 
HETATM   45  C   UNK N   1      18.590  12.043   3.933  0.00  0.00     0.032 C 
HETATM   46  C   UNK N   1      20.085  10.078   3.901  0.00  0.00     0.032 C 
ENDBRANCH  42  44
ENDBRANCH  38  42
ENDBRANCH  26  36
BRANCH  32  47
HETATM   47  O   UNK N   1      21.950  20.882   2.372  0.00  0.00    -0.354 OA
HETATM   48  C   UNK N   1      21.094  20.672   1.318  0.00  0.00     0.210 C 
ENDBRANCH  32  47
ENDBRANCH  23  24
ENDBRANCH   1  23
BRANCH  17  49
HETATM   49  N   UNK N   1      26.851  14.617   2.478  0.00  0.00    -0.324 N 
HETATM   50  C   UNK N   1      25.508  14.379   2.398  0.00  0.00     0.361 C 
HETATM   51  O   UNK N   1      24.731  15.312   2.418  0.00  0.00    -0.238 OA
HETATM   52  H   UNK N   1      27.188  15.524   2.299  0.00  0.00     0.165 HD
BRANCH  50  53
HETATM   53  O   UNK N   1      25.018  13.110   2.311  0.00  0.00    -0.299 OA
BRANCH  53  54
HETATM   54  C   UNK N   1      25.027  12.417   1.121  0.00  0.00     0.133 C 
HETATM   55  C   UNK N   1      25.178  10.935   1.336  0.00  0.00     0.032 C 
HETATM   56  C   UNK N   1      24.586  10.333   0.078  0.00  0.00     0.002 C 
HETATM   57  C   UNK N   1      23.505  11.299  -0.381  0.00  0.00     0.002 C 
HETATM   58  C   UNK N   1      23.683  12.561   0.435  0.00  0.00     0.032 C 
ENDBRANCH  53  54
ENDBRANCH  50  53
ENDBRANCH  17  49
BRANCH   7  59
HETATM   59  P   UNK N   1      32.788  14.530   5.759  0.00  0.00     0.131 P 
HETATM   60  O   UNK N   1      32.636  15.929   5.106  0.00  0.00    -0.672 OA
BRANCH  59  61
HETATM   61  C   UNK N   1      32.221  15.518   7.242  0.00  0.00     0.141 C 
BRANCH  61  62
HETATM   62  C   UNK N   1      33.201  15.800   8.343  0.00  0.00     0.028 A 
HETATM   63  C   UNK N   1      33.337  14.843   9.364  0.00  0.00     0.126 A 
HETATM   64  C   UNK N   1      34.183  15.087  10.449  0.00  0.00     0.043 A 
HETATM   65  F   UNK N   1      32.626  13.688   9.322  0.00  0.00    -0.205 F 
HETATM   66  C   UNK N   1      34.900  16.280  10.524  0.00  0.00     0.006 A 
HETATM   67  C   UNK N   1      34.774  17.236   9.515  0.00  0.00     0.043 A 
HETATM   68  C   UNK N   1      33.928  17.007   8.428  0.00  0.00     0.126 A 
HETATM   69  F   UNK N   1      33.822  17.967   7.480  0.00  0.00    -0.205 F 
ENDBRANCH  61  62
ENDBRANCH  59  61
BRANCH  59  70
HETATM   70  O   UNK N   1      31.206  14.182   6.368  0.00  0.00    -0.347 OA
HETATM   71  H   UNK N   1      30.448  14.086   5.771  0.00  0.00     0.218 HD
ENDBRANCH  59  70
ENDBRANCH   7  59
TORSDOF 13
ENDMDL
MODEL 6
REMARK VINA RESULT:      -8.5      5.651     12.077
REMARK  13 active torsions:
REMARK  status: ('A' for Active; 'I' for Inactive)
REMARK    1  A    between atoms: C_2  and  N_4 
REMARK    2  A    between atoms: N_4  and  C_5 
REMARK    3  A    between atoms: C_8  and  C_11 
REMARK    4  A    between atoms: C_13  and  O_25 
REMARK    5  A    between atoms: C_17  and  O_23 
REMARK    6  A    between atoms: C_26  and  O_25 
REMARK    7  A    between atoms: C_32  and  P_56 
REMARK    8  A    between atoms: C_42  and  N_47 
REMARK       I    between atoms: N_47  and  C_48 
REMARK    9  A    between atoms: C_48  and  O_50 
REMARK   10  A    between atoms: O_50  and  C_51 
REMARK   11  A    between atoms: P_56  and  C_58 
REMARK   12  A    between atoms: P_56  and  O_67 
REMARK   13  A    between atoms: C_58  and  C_59 
ROOT
HETATM    1  C   UNK N   1      33.279  13.652   3.778  0.00  0.00     0.149 C 
HETATM    2  C   UNK N   1      33.235  15.040   3.144  0.00  0.00     0.069 C 
HETATM    3  C   UNK N   1      32.052  15.607   3.906  0.00  0.00     0.181 C 
HETATM    4  C   UNK N   1      31.759  17.090   3.932  0.00  0.00     0.241 C 
HETATM    5  O   UNK N   1      32.580  17.844   3.437  0.00  0.00    -0.271 OA
HETATM    6  N   UNK N   1      30.581  17.620   4.367  0.00  0.00    -0.341 N 
HETATM    7  C   UNK N   1      29.459  16.957   5.021  0.00  0.00     0.109 A 
HETATM    8  C   UNK N   1      29.735  16.390   6.376  0.00  0.00     0.049 A 
HETATM    9  C   UNK N   1      29.128  17.779   6.268  0.00  0.00     0.026 A 
HETATM   10  C   UNK N   1      27.887  17.624   7.120  0.00  0.00     0.008 C 
HETATM   11  C   UNK N   1      28.131  18.297   8.482  0.00  0.00     0.000 C 
HETATM   12  C   UNK N   1      29.349  17.734   9.228  0.00  0.00     0.000 C 
HETATM   13  C   UNK N   1      30.632  18.414   8.759  0.00  0.00     0.000 C 
HETATM   14  C   UNK N   1      31.831  17.506   8.972  0.00  0.00     0.000 C 
HETATM   15  C   UNK N   1      32.974  17.929   8.057  0.00  0.00     0.002 C 
HETATM   16  C   UNK N   1      32.809  17.327   6.668  0.00  0.00     0.035 C 
HETATM   17  C   UNK N   1      33.161  15.855   6.719  0.00  0.00     0.179 C 
HETATM   18  C   UNK N   1      32.136  14.840   6.296  0.00  0.00     0.243 C 
HETATM   19  O   UNK N   1      31.845  13.973   7.106  0.00  0.00    -0.271 OA
HETATM   20  N   UNK N   1      31.776  14.680   4.981  0.00  0.00    -0.334 N 
HETATM   21  C   UNK N   1      31.952  13.356   4.471  0.00  0.00     0.159 C 
HETATM   22  H   UNK N   1      30.473  18.587   4.217  0.00  0.00     0.163 HD
ENDROOT
BRANCH   1  23
HETATM   23  O   UNK N   1      34.055  12.684   3.200  0.00  0.00    -0.343 OA
BRANCH  23  24
HETATM   24  C   UNK N   1      35.264  12.884   2.640  0.00  0.00     0.084 A 
HETATM   25  C   UNK N   1      36.417  13.074   3.419  0.00  0.00     0.069 A 
HETATM   26  C   UNK N   1      37.642  13.294   2.782  0.00  0.00     0.062 A 
HETATM   27  N   UNK N   1      37.703  13.304   1.423  0.00  0.00    -0.352 N 
HETATM   28  C   UNK N   1      36.612  13.100   0.641  0.00  0.00     0.070 A 
ATOM     29  HN  UNK N   1      38.603  13.469   0.974  1.00  0.00     0.166 HD
HETATM   30  C   UNK N   1      36.740  13.096  -0.760  0.00  0.00     0.095 A 
HETATM   31  C   UNK N   1      35.362  12.887   1.243  0.00  0.00     0.026 A 
HETATM   32  C   UNK N   1      35.584  12.873  -1.567  0.00  0.00     0.092 A 
HETATM   33 Cl   UNK N   1      38.355  13.358  -1.430  0.00  0.00    -0.079 Cl
HETATM   34  C   UNK N   1      34.352  12.652  -0.939  0.00  0.00     0.039 A 
HETATM   35  C   UNK N   1      34.237  12.660   0.447  0.00  0.00     0.019 A 
BRANCH  26  36
HETATM   36  C   UNK N   1      38.889  13.452   3.542  0.00  0.00     0.067 A 
HETATM   37  N   UNK N   1      38.929  13.541   4.921  0.00  0.00    -0.335 N 
HETATM   38  C   UNK N   1      40.205  13.558   5.379  0.00  0.00     0.145 A 
ATOM     39  HN  UNK N   1      38.103  13.589   5.518  1.00  0.00     0.168 HD
HETATM   40  S   UNK N   1      41.253  13.472   4.108  0.00  0.00    -0.064 SA
HETATM   41  C   UNK N   1      40.140  13.410   2.894  0.00  0.00     0.085 A 
BRANCH  38  42
HETATM   42  N   UNK N   1      40.547  13.491   6.753  0.00  0.00    -0.367 N 
HETATM   43  H   UNK N   1      40.721  14.329   7.240  0.00  0.00     0.162 HD
BRANCH  42  44
HETATM   44  C   UNK N   1      40.651  12.235   7.464  0.00  0.00     0.075 C 
HETATM   45  C   UNK N   1      39.787  12.281   8.705  0.00  0.00     0.032 C 
HETATM   46  C   UNK N   1      42.080  11.918   7.864  0.00  0.00     0.032 C 
ENDBRANCH  42  44
ENDBRANCH  38  42
ENDBRANCH  26  36
BRANCH  32  47
HETATM   47  O   UNK N   1      35.584  12.863  -2.927  0.00  0.00    -0.354 OA
HETATM   48  C   UNK N   1      34.491  12.992  -3.749  0.00  0.00     0.210 C 
ENDBRANCH  32  47
ENDBRANCH  23  24
ENDBRANCH   1  23
BRANCH  17  49
HETATM   49  N   UNK N   1      34.393  15.530   6.039  0.00  0.00    -0.324 N 
HETATM   50  C   UNK N   1      35.505  15.129   6.722  0.00  0.00     0.361 C 
HETATM   51  O   UNK N   1      36.407  14.575   6.128  0.00  0.00    -0.238 OA
HETATM   52  H   UNK N   1      34.432  15.597   5.057  0.00  0.00     0.165 HD
BRANCH  50  53
HETATM   53  O   UNK N   1      35.618  15.325   8.067  0.00  0.00    -0.299 OA
BRANCH  53  54
HETATM   54  C   UNK N   1      35.711  14.265   8.941  0.00  0.00     0.133 C 
HETATM   55  C   UNK N   1      36.881  14.412   9.876  0.00  0.00     0.032 C 
HETATM   56  C   UNK N   1      36.491  13.556  11.065  0.00  0.00     0.002 C 
HETATM   57  C   UNK N   1      34.974  13.611  11.144  0.00  0.00     0.002 C 
HETATM   58  C   UNK N   1      34.501  14.245   9.853  0.00  0.00     0.032 C 
ENDBRANCH  53  54
ENDBRANCH  50  53
ENDBRANCH  17  49
BRANCH   7  59
HETATM   59  P   UNK N   1      27.982  16.363   3.982  0.00  0.00     0.131 P 
HETATM   60  O   UNK N   1      28.944  16.630   2.795  0.00  0.00    -0.672 OA
BRANCH  59  61
HETATM   61  C   UNK N   1      27.834  14.735   3.073  0.00  0.00     0.141 C 
BRANCH  61  62
HETATM   62  C   UNK N   1      26.468  14.163   2.829  0.00  0.00     0.028 A 
HETATM   63  C   UNK N   1      25.680  14.747   1.821  0.00  0.00     0.126 A 
HETATM   64  C   UNK N   1      24.376  14.300   1.600  0.00  0.00     0.043 A 
HETATM   65  F   UNK N   1      26.167  15.771   1.076  0.00  0.00    -0.205 F 
HETATM   66  C   UNK N   1      23.848  13.267   2.374  0.00  0.00     0.006 A 
HETATM   67  C   UNK N   1      24.622  12.679   3.376  0.00  0.00     0.043 A 
HETATM   68  C   UNK N   1      25.926  13.120   3.611  0.00  0.00     0.126 A 
HETATM   69  F   UNK N   1      26.637  12.534   4.602  0.00  0.00    -0.205 F 
ENDBRANCH  61  62
ENDBRANCH  59  61
BRANCH  59  70
HETATM   70  O   UNK N   1      28.658  14.973   4.760  0.00  0.00    -0.347 OA
HETATM   71  H   UNK N   1      28.252  14.595   5.555  0.00  0.00     0.218 HD
ENDBRANCH  59  70
ENDBRANCH   7  59
TORSDOF 13
ENDMDL
MODEL 7
REMARK VINA RESULT:      -8.4      5.052     11.201
REMARK  13 active torsions:
REMARK  status: ('A' for Active; 'I' for Inactive)
REMARK    1  A    between atoms: C_2  and  N_4 
REMARK    2  A    between atoms: N_4  and  C_5 
REMARK    3  A    between atoms: C_8  and  C_11 
REMARK    4  A    between atoms: C_13  and  O_25 
REMARK    5  A    between atoms: C_17  and  O_23 
REMARK    6  A    between atoms: C_26  and  O_25 
REMARK    7  A    between atoms: C_32  and  P_56 
REMARK    8  A    between atoms: C_42  and  N_47 
REMARK       I    between atoms: N_47  and  C_48 
REMARK    9  A    between atoms: C_48  and  O_50 
REMARK   10  A    between atoms: O_50  and  C_51 
REMARK   11  A    between atoms: P_56  and  C_58 
REMARK   12  A    between atoms: P_56  and  O_67 
REMARK   13  A    between atoms: C_58  and  C_59 
ROOT
HETATM    1  C   UNK N   1      33.033  13.767   3.523  0.00  0.00     0.149 C 
HETATM    2  C   UNK N   1      32.920  15.168   2.926  0.00  0.00     0.069 C 
HETATM    3  C   UNK N   1      31.807  15.706   3.806  0.00  0.00     0.181 C 
HETATM    4  C   UNK N   1      31.504  17.184   3.891  0.00  0.00     0.241 C 
HETATM    5  O   UNK N   1      32.270  17.957   3.339  0.00  0.00    -0.271 OA
HETATM    6  N   UNK N   1      30.366  17.693   4.444  0.00  0.00    -0.341 N 
HETATM    7  C   UNK N   1      29.316  17.003   5.184  0.00  0.00     0.109 A 
HETATM    8  C   UNK N   1      29.720  16.411   6.495  0.00  0.00     0.049 A 
HETATM    9  C   UNK N   1      29.093  17.795   6.473  0.00  0.00     0.026 A 
HETATM   10  C   UNK N   1      27.937  17.609   7.432  0.00  0.00     0.008 C 
HETATM   11  C   UNK N   1      28.300  18.256   8.781  0.00  0.00     0.000 C 
HETATM   12  C   UNK N   1      29.586  17.691   9.399  0.00  0.00     0.000 C 
HETATM   13  C   UNK N   1      30.814  18.393   8.829  0.00  0.00     0.000 C 
HETATM   14  C   UNK N   1      32.036  17.495   8.911  0.00  0.00     0.000 C 
HETATM   15  C   UNK N   1      33.087  17.949   7.904  0.00  0.00     0.002 C 
HETATM   16  C   UNK N   1      32.800  17.374   6.524  0.00  0.00     0.035 C 
HETATM   17  C   UNK N   1      33.168  15.906   6.509  0.00  0.00     0.179 C 
HETATM   18  C   UNK N   1      32.117  14.889   6.160  0.00  0.00     0.243 C 
HETATM   19  O   UNK N   1      31.909  14.002   6.974  0.00  0.00    -0.271 OA
HETATM   20  N   UNK N   1      31.639  14.753   4.880  0.00  0.00    -0.334 N 
HETATM   21  C   UNK N   1      31.779  13.442   4.327  0.00  0.00     0.159 C 
HETATM   22  H   UNK N   1      30.237  18.661   4.326  0.00  0.00     0.163 HD
ENDROOT
BRANCH   1  23
HETATM   23  O   UNK N   1      33.762  12.820   2.854  0.00  0.00    -0.343 OA
BRANCH  23  24
HETATM   24  C   UNK N   1      33.612  12.491   1.556  0.00  0.00     0.084 A 
HETATM   25  C   UNK N   1      32.485  11.789   1.098  0.00  0.00     0.069 A 
HETATM   26  C   UNK N   1      32.392  11.459  -0.257  0.00  0.00     0.062 A 
HETATM   27  N   UNK N   1      33.381  11.836  -1.112  0.00  0.00    -0.352 N 
HETATM   28  C   UNK N   1      34.471  12.536  -0.706  0.00  0.00     0.070 A 
ATOM     29  HN  UNK N   1      33.299  11.584  -2.097  1.00  0.00     0.166 HD
HETATM   30  C   UNK N   1      35.449  12.920  -1.640  0.00  0.00     0.095 A 
HETATM   31  C   UNK N   1      34.606  12.876   0.649  0.00  0.00     0.026 A 
HETATM   32  C   UNK N   1      36.587  13.662  -1.197  0.00  0.00     0.092 A 
HETATM   33 Cl   UNK N   1      35.189  12.461  -3.327  0.00  0.00    -0.079 Cl
HETATM   34  C   UNK N   1      36.689  13.997   0.158  0.00  0.00     0.039 A 
HETATM   35  C   UNK N   1      35.716  13.609   1.074  0.00  0.00     0.019 A 
BRANCH  26  36
HETATM   36  C   UNK N   1      31.217  10.768  -0.804  0.00  0.00     0.067 A 
HETATM   37  N   UNK N   1      30.961  10.665  -2.159  0.00  0.00    -0.335 N 
HETATM   38  C   UNK N   1      29.886   9.876  -2.401  0.00  0.00     0.145 A 
ATOM     39  HN  UNK N   1      31.512  11.125  -2.884  1.00  0.00     0.168 HD
HETATM   40  S   UNK N   1      29.267   9.327  -0.974  0.00  0.00    -0.064 SA
HETATM   41  C   UNK N   1      30.334  10.067   0.042  0.00  0.00     0.085 A 
BRANCH  38  42
HETATM   42  N   UNK N   1      29.485   9.471  -3.699  0.00  0.00    -0.367 N 
HETATM   43  H   UNK N   1      29.560  10.114  -4.441  0.00  0.00     0.162 HD
BRANCH  42  44
HETATM   44  C   UNK N   1      28.967   8.147  -3.970  0.00  0.00     0.075 C 
HETATM   45  C   UNK N   1      30.068   7.279  -4.539  0.00  0.00     0.032 C 
HETATM   46  C   UNK N   1      27.802   8.174  -4.942  0.00  0.00     0.032 C 
ENDBRANCH  42  44
ENDBRANCH  38  42
ENDBRANCH  26  36
BRANCH  32  47
HETATM   47  O   UNK N   1      37.601  14.073  -2.004  0.00  0.00    -0.354 OA
HETATM   48  C   UNK N   1      37.629  15.214  -2.769  0.00  0.00     0.210 C 
ENDBRANCH  32  47
ENDBRANCH  23  24
ENDBRANCH   1  23
BRANCH  17  49
HETATM   49  N   UNK N   1      34.334  15.609   5.712  0.00  0.00    -0.324 N 
HETATM   50  C   UNK N   1      35.438  15.013   6.251  0.00  0.00     0.361 C 
HETATM   51  O   UNK N   1      36.262  14.501   5.520  0.00  0.00    -0.238 OA
HETATM   52  H   UNK N   1      34.334  15.840   4.755  0.00  0.00     0.165 HD
BRANCH  50  53
HETATM   53  O   UNK N   1      35.630  14.967   7.601  0.00  0.00    -0.299 OA
BRANCH  53  54
HETATM   54  C   UNK N   1      35.558  13.781   8.296  0.00  0.00     0.133 C 
HETATM   55  C   UNK N   1      36.827  13.497   9.053  0.00  0.00     0.032 C 
HETATM   56  C   UNK N   1      36.377  12.562  10.157  0.00  0.00     0.002 C 
HETATM   57  C   UNK N   1      34.940  12.945  10.474  0.00  0.00     0.002 C 
HETATM   58  C   UNK N   1      34.493  13.880   9.370  0.00  0.00     0.032 C 
ENDBRANCH  53  54
ENDBRANCH  50  53
ENDBRANCH  17  49
BRANCH   7  59
HETATM   59  P   UNK N   1      27.754  16.416   4.272  0.00  0.00     0.131 P 
HETATM   60  O   UNK N   1      28.592  16.740   3.007  0.00  0.00    -0.672 OA
BRANCH  59  61
HETATM   61  C   UNK N   1      27.545  14.816   3.326  0.00  0.00     0.141 C 
BRANCH  61  62
HETATM   62  C   UNK N   1      26.163  14.378   2.938  0.00  0.00     0.028 A 
HETATM   63  C   UNK N   1      25.533  13.404   3.733  0.00  0.00     0.126 A 
HETATM   64  C   UNK N   1      24.276  12.910   3.378  0.00  0.00     0.043 A 
HETATM   65  F   UNK N   1      26.153  12.912   4.836  0.00  0.00    -0.205 F 
HETATM   66  C   UNK N   1      23.635  13.383   2.234  0.00  0.00     0.006 A 
HETATM   67  C   UNK N   1      24.250  14.352   1.439  0.00  0.00     0.043 A 
HETATM   68  C   UNK N   1      25.509  14.850   1.780  0.00  0.00     0.126 A 
HETATM   69  F   UNK N   1      26.077  15.776   0.973  0.00  0.00    -0.205 F 
ENDBRANCH  61  62
ENDBRANCH  59  61
BRANCH  59  70
HETATM   70  O   UNK N   1      28.525  15.014   4.932  0.00  0.00    -0.347 OA
HETATM   71  H   UNK N   1      29.490  14.927   4.935  0.00  0.00     0.218 HD
ENDBRANCH  59  70
ENDBRANCH   7  59
TORSDOF 13
ENDMDL
MODEL 8
REMARK VINA RESULT:      -8.4      5.521     11.910
REMARK  13 active torsions:
REMARK  status: ('A' for Active; 'I' for Inactive)
REMARK    1  A    between atoms: C_2  and  N_4 
REMARK    2  A    between atoms: N_4  and  C_5 
REMARK    3  A    between atoms: C_8  and  C_11 
REMARK    4  A    between atoms: C_13  and  O_25 
REMARK    5  A    between atoms: C_17  and  O_23 
REMARK    6  A    between atoms: C_26  and  O_25 
REMARK    7  A    between atoms: C_32  and  P_56 
REMARK    8  A    between atoms: C_42  and  N_47 
REMARK       I    between atoms: N_47  and  C_48 
REMARK    9  A    between atoms: C_48  and  O_50 
REMARK   10  A    between atoms: O_50  and  C_51 
REMARK   11  A    between atoms: P_56  and  C_58 
REMARK   12  A    between atoms: P_56  and  O_67 
REMARK   13  A    between atoms: C_58  and  C_59 
ROOT
HETATM    1  C   UNK N   1      33.015  13.780   3.462  0.00  0.00     0.149 C 
HETATM    2  C   UNK N   1      32.895  15.185   2.878  0.00  0.00     0.069 C 
HETATM    3  C   UNK N   1      31.794  15.717   3.775  0.00  0.00     0.181 C 
HETATM    4  C   UNK N   1      31.493  17.195   3.876  0.00  0.00     0.241 C 
HETATM    5  O   UNK N   1      32.252  17.972   3.320  0.00  0.00    -0.271 OA
HETATM    6  N   UNK N   1      30.362  17.699   4.446  0.00  0.00    -0.341 N 
HETATM    7  C   UNK N   1      29.321  17.005   5.194  0.00  0.00     0.109 A 
HETATM    8  C   UNK N   1      29.740  16.402   6.495  0.00  0.00     0.049 A 
HETATM    9  C   UNK N   1      29.114  17.787   6.492  0.00  0.00     0.026 A 
HETATM   10  C   UNK N   1      27.970  17.594   7.464  0.00  0.00     0.008 C 
HETATM   11  C   UNK N   1      28.350  18.230   8.813  0.00  0.00     0.000 C 
HETATM   12  C   UNK N   1      29.644  17.659   9.411  0.00  0.00     0.000 C 
HETATM   13  C   UNK N   1      30.865  18.366   8.831  0.00  0.00     0.000 C 
HETATM   14  C   UNK N   1      32.087  17.466   8.891  0.00  0.00     0.000 C 
HETATM   15  C   UNK N   1      33.125  17.928   7.875  0.00  0.00     0.002 C 
HETATM   16  C   UNK N   1      32.821  17.364   6.494  0.00  0.00     0.035 C 
HETATM   17  C   UNK N   1      33.188  15.895   6.463  0.00  0.00     0.179 C 
HETATM   18  C   UNK N   1      32.133  14.882   6.119  0.00  0.00     0.243 C 
HETATM   19  O   UNK N   1      31.934  13.988   6.929  0.00  0.00    -0.271 OA
HETATM   20  N   UNK N   1      31.638  14.756   4.844  0.00  0.00    -0.334 N 
HETATM   21  C   UNK N   1      31.770  13.449   4.279  0.00  0.00     0.159 C 
HETATM   22  H   UNK N   1      30.232  18.669   4.338  0.00  0.00     0.163 HD
ENDROOT
BRANCH   1  23
HETATM   23  O   UNK N   1      33.735  12.838   2.777  0.00  0.00    -0.343 OA
BRANCH  23  24
HETATM   24  C   UNK N   1      33.958  12.838   1.448  0.00  0.00     0.084 A 
HETATM   25  C   UNK N   1      35.157  13.322   0.901  0.00  0.00     0.069 A 
HETATM   26  C   UNK N   1      35.325  13.313  -0.487  0.00  0.00     0.062 A 
HETATM   27  N   UNK N   1      34.337  12.823  -1.283  0.00  0.00    -0.352 N 
HETATM   28  C   UNK N   1      33.176  12.326  -0.785  0.00  0.00     0.070 A 
ATOM     29  HN  UNK N   1      34.474  12.828  -2.293  1.00  0.00     0.166 HD
HETATM   30  C   UNK N   1      32.200  11.809  -1.655  0.00  0.00     0.095 A 
HETATM   31  C   UNK N   1      32.965  12.328   0.603  0.00  0.00     0.026 A 
HETATM   32  C   UNK N   1      30.987  11.285  -1.113  0.00  0.00     0.092 A 
HETATM   33 Cl   UNK N   1      32.557  11.835  -3.386  0.00  0.00    -0.079 Cl
HETATM   34  C   UNK N   1      30.808  11.289   0.275  0.00  0.00     0.039 A 
HETATM   35  C   UNK N   1      31.780  11.805   1.126  0.00  0.00     0.019 A 
BRANCH  26  36
HETATM   36  C   UNK N   1      36.574  13.762  -1.115  0.00  0.00     0.067 A 
HETATM   37  N   UNK N   1      36.629  14.776  -2.053  0.00  0.00    -0.335 N 
HETATM   38  C   UNK N   1      37.908  15.079  -2.382  0.00  0.00     0.145 A 
ATOM     39  HN  UNK N   1      35.809  15.238  -2.449  1.00  0.00     0.168 HD
HETATM   40  S   UNK N   1      38.943  14.111  -1.537  0.00  0.00    -0.064 SA
HETATM   41  C   UNK N   1      37.818  13.243  -0.701  0.00  0.00     0.085 A 
BRANCH  38  42
HETATM   42  N   UNK N   1      38.270  16.176  -3.203  0.00  0.00    -0.367 N 
HETATM   43  H   UNK N   1      38.887  16.855  -2.844  0.00  0.00     0.162 HD
BRANCH  42  44
HETATM   44  C   UNK N   1      37.765  16.334  -4.550  0.00  0.00     0.075 C 
HETATM   45  C   UNK N   1      38.242  15.184  -5.409  0.00  0.00     0.032 C 
HETATM   46  C   UNK N   1      38.206  17.643  -5.180  0.00  0.00     0.032 C 
ENDBRANCH  42  44
ENDBRANCH  38  42
ENDBRANCH  26  36
BRANCH  32  47
HETATM   47  O   UNK N   1      29.968  10.774  -1.856  0.00  0.00    -0.354 OA
HETATM   48  C   UNK N   1      29.657   9.447  -2.019  0.00  0.00     0.210 C 
ENDBRANCH  32  47
ENDBRANCH  23  24
ENDBRANCH   1  23
BRANCH  17  49
HETATM   49  N   UNK N   1      34.344  15.603   5.650  0.00  0.00    -0.324 N 
HETATM   50  C   UNK N   1      35.450  14.993   6.168  0.00  0.00     0.361 C 
HETATM   51  O   UNK N   1      36.263  14.488   5.420  0.00  0.00    -0.238 OA
HETATM   52  H   UNK N   1      34.335  15.849   4.696  0.00  0.00     0.165 HD
BRANCH  50  53
HETATM   53  O   UNK N   1      35.656  14.926   7.514  0.00  0.00    -0.299 OA
BRANCH  53  54
HETATM   54  C   UNK N   1      36.129  13.779   8.111  0.00  0.00     0.133 C 
HETATM   55  C   UNK N   1      37.009  14.084   9.293  0.00  0.00     0.032 C 
HETATM   56  C   UNK N   1      36.930  12.821  10.127  0.00  0.00     0.002 C 
HETATM   57  C   UNK N   1      35.551  12.234   9.873  0.00  0.00     0.002 C 
HETATM   58  C   UNK N   1      34.973  12.991   8.696  0.00  0.00     0.032 C 
ENDBRANCH  53  54
ENDBRANCH  50  53
ENDBRANCH  17  49
BRANCH   7  59
HETATM   59  P   UNK N   1      27.747  16.426   4.297  0.00  0.00     0.131 P 
HETATM   60  O   UNK N   1      28.557  16.794   3.026  0.00  0.00    -0.672 OA
BRANCH  59  61
HETATM   61  C   UNK N   1      27.537  14.850   3.311  0.00  0.00     0.141 C 
BRANCH  61  62
HETATM   62  C   UNK N   1      26.149  14.357   3.020  0.00  0.00     0.028 A 
HETATM   63  C   UNK N   1      25.500  14.853   1.875  0.00  0.00     0.126 A 
HETATM   64  C   UNK N   1      24.183  14.482   1.596  0.00  0.00     0.043 A 
HETATM   65  F   UNK N   1      26.136  15.720   1.047  0.00  0.00    -0.205 F 
HETATM   66  C   UNK N   1      23.504  13.614   2.450  0.00  0.00     0.006 A 
HETATM   67  C   UNK N   1      24.138  13.115   3.588  0.00  0.00     0.043 A 
HETATM   68  C   UNK N   1      25.453  13.482   3.881  0.00  0.00     0.126 A 
HETATM   69  F   UNK N   1      26.026  12.988   5.003  0.00  0.00    -0.205 F 
ENDBRANCH  61  62
ENDBRANCH  59  61
BRANCH  59  70
HETATM   70  O   UNK N   1      28.546  15.015   4.903  0.00  0.00    -0.347 OA
HETATM   71  H   UNK N   1      28.725  14.254   4.330  0.00  0.00     0.218 HD
ENDBRANCH  59  70
ENDBRANCH   7  59
TORSDOF 13
ENDMDL
MODEL 9
REMARK VINA RESULT:      -8.1      5.784     12.593
REMARK  13 active torsions:
REMARK  status: ('A' for Active; 'I' for Inactive)
REMARK    1  A    between atoms: C_2  and  N_4 
REMARK    2  A    between atoms: N_4  and  C_5 
REMARK    3  A    between atoms: C_8  and  C_11 
REMARK    4  A    between atoms: C_13  and  O_25 
REMARK    5  A    between atoms: C_17  and  O_23 
REMARK    6  A    between atoms: C_26  and  O_25 
REMARK    7  A    between atoms: C_32  and  P_56 
REMARK    8  A    between atoms: C_42  and  N_47 
REMARK       I    between atoms: N_47  and  C_48 
REMARK    9  A    between atoms: C_48  and  O_50 
REMARK   10  A    between atoms: O_50  and  C_51 
REMARK   11  A    between atoms: P_56  and  C_58 
REMARK   12  A    between atoms: P_56  and  O_67 
REMARK   13  A    between atoms: C_58  and  C_59 
ROOT
HETATM    1  C   UNK N   1      33.701  13.797   3.928  0.00  0.00     0.149 C 
HETATM    2  C   UNK N   1      33.653  15.203   3.335  0.00  0.00     0.069 C 
HETATM    3  C   UNK N   1      32.379  15.692   3.997  0.00  0.00     0.181 C 
HETATM    4  C   UNK N   1      32.016  17.158   4.040  0.00  0.00     0.241 C 
HETATM    5  O   UNK N   1      32.844  17.964   3.648  0.00  0.00    -0.271 OA
HETATM    6  N   UNK N   1      30.778  17.622   4.376  0.00  0.00    -0.341 N 
HETATM    7  C   UNK N   1      29.633  16.889   4.900  0.00  0.00     0.109 A 
HETATM    8  C   UNK N   1      29.805  16.288   6.258  0.00  0.00     0.049 A 
HETATM    9  C   UNK N   1      29.147  17.652   6.133  0.00  0.00     0.026 A 
HETATM   10  C   UNK N   1      27.840  17.414   6.858  0.00  0.00     0.008 C 
HETATM   11  C   UNK N   1      27.924  18.050   8.257  0.00  0.00     0.000 C 
HETATM   12  C   UNK N   1      29.091  17.515   9.098  0.00  0.00     0.000 C 
HETATM   13  C   UNK N   1      30.379  18.265   8.775  0.00  0.00     0.000 C 
HETATM   14  C   UNK N   1      31.594  17.404   9.074  0.00  0.00     0.000 C 
HETATM   15  C   UNK N   1      32.798  17.907   8.285  0.00  0.00     0.002 C 
HETATM   16  C   UNK N   1      32.792  17.346   6.870  0.00  0.00     0.035 C 
HETATM   17  C   UNK N   1      33.205  15.890   6.909  0.00  0.00     0.179 C 
HETATM   18  C   UNK N   1      32.273  14.847   6.360  0.00  0.00     0.243 C 
HETATM   19  O   UNK N   1      31.947  13.940   7.112  0.00  0.00    -0.271 OA
HETATM   20  N   UNK N   1      32.046  14.717   5.012  0.00  0.00    -0.334 N 
HETATM   21  C   UNK N   1      32.330  13.420   4.481  0.00  0.00     0.159 C 
HETATM   22  H   UNK N   1      30.641  18.588   4.246  0.00  0.00     0.163 HD
ENDROOT
BRANCH   1  23
HETATM   23  O   UNK N   1      34.572  12.884   3.398  0.00  0.00    -0.343 OA
BRANCH  23  24
HETATM   24  C   UNK N   1      35.388  13.101   2.347  0.00  0.00     0.084 A 
HETATM   25  C   UNK N   1      34.887  13.265   1.045  0.00  0.00     0.069 A 
HETATM   26  C   UNK N   1      35.783  13.469  -0.008  0.00  0.00     0.062 A 
HETATM   27  N   UNK N   1      37.118  13.524   0.243  0.00  0.00    -0.352 N 
HETATM   28  C   UNK N   1      37.633  13.394   1.492  0.00  0.00     0.070 A 
ATOM     29  HN  UNK N   1      37.758  13.670  -0.538  1.00  0.00     0.166 HD
HETATM   30  C   UNK N   1      39.022  13.484   1.695  0.00  0.00     0.095 A 
HETATM   31  C   UNK N   1      36.767  13.175   2.575  0.00  0.00     0.026 A 
HETATM   32  C   UNK N   1      39.546  13.351   3.017  0.00  0.00     0.092 A 
HETATM   33 Cl   UNK N   1      40.035  13.775   0.276  0.00  0.00    -0.079 Cl
HETATM   34  C   UNK N   1      38.657  13.146   4.079  0.00  0.00     0.039 A 
HETATM   35  C   UNK N   1      37.286  13.056   3.866  0.00  0.00     0.019 A 
BRANCH  26  36
HETATM   36  C   UNK N   1      35.318  13.694  -1.383  0.00  0.00     0.067 A 
HETATM   37  N   UNK N   1      35.256  14.945  -1.967  0.00  0.00    -0.335 N 
HETATM   38  C   UNK N   1      34.911  14.865  -3.276  0.00  0.00     0.145 A 
ATOM     39  HN  UNK N   1      35.445  15.819  -1.475  1.00  0.00     0.168 HD
HETATM   40  S   UNK N   1      34.684  13.286  -3.695  0.00  0.00    -0.064 SA
HETATM   41  C   UNK N   1      35.009  12.608  -2.228  0.00  0.00     0.085 A 
BRANCH  38  42
HETATM   42  N   UNK N   1      34.919  15.973  -4.160  0.00  0.00    -0.367 N 
HETATM   43  H   UNK N   1      34.314  16.729  -3.979  0.00  0.00     0.162 HD
BRANCH  42  44
HETATM   44  C   UNK N   1      35.783  16.032  -5.319  0.00  0.00     0.075 C 
HETATM   45  C   UNK N   1      37.204  16.307  -4.879  0.00  0.00     0.032 C 
HETATM   46  C   UNK N   1      35.351  17.102  -6.305  0.00  0.00     0.032 C 
ENDBRANCH  42  44
ENDBRANCH  38  42
ENDBRANCH  26  36
BRANCH  32  47
HETATM   47  O   UNK N   1      40.868  13.406   3.331  0.00  0.00    -0.354 OA
HETATM   48  C   UNK N   1      41.618  14.539   3.527  0.00  0.00     0.210 C 
ENDBRANCH  32  47
ENDBRANCH  23  24
ENDBRANCH   1  23
BRANCH  17  49
HETATM   49  N   UNK N   1      34.509  15.642   6.341  0.00  0.00    -0.324 N 
HETATM   50  C   UNK N   1      35.526  15.112   7.082  0.00  0.00     0.361 C 
HETATM   51  O   UNK N   1      36.491  14.633   6.522  0.00  0.00    -0.238 OA
HETATM   52  H   UNK N   1      34.669  15.859   5.394  0.00  0.00     0.165 HD
BRANCH  50  53
HETATM   53  O   UNK N   1      35.474  15.095   8.444  0.00  0.00    -0.299 OA
BRANCH  53  54
HETATM   54  C   UNK N   1      36.024  14.063   9.171  0.00  0.00     0.133 C 
HETATM   55  C   UNK N   1      36.836  14.566  10.333  0.00  0.00     0.032 C 
HETATM   56  C   UNK N   1      36.839  13.395  11.295  0.00  0.00     0.002 C 
HETATM   57  C   UNK N   1      35.524  12.665  11.073  0.00  0.00     0.002 C 
HETATM   58  C   UNK N   1      34.922  13.241   9.809  0.00  0.00     0.032 C 
ENDBRANCH  53  54
ENDBRANCH  50  53
ENDBRANCH  17  49
BRANCH   7  59
HETATM   59  P   UNK N   1      28.288  16.268   3.707  0.00  0.00     0.131 P 
HETATM   60  O   UNK N   1      29.304  16.711   2.622  0.00  0.00    -0.672 OA
BRANCH  59  61
HETATM   61  C   UNK N   1      28.346  14.716   2.664  0.00  0.00     0.141 C 
BRANCH  61  62
HETATM   62  C   UNK N   1      27.060  14.021   2.327  0.00  0.00     0.028 A 
HETATM   63  C   UNK N   1      27.005  12.624   2.481  0.00  0.00     0.126 A 
HETATM   64  C   UNK N   1      25.856  11.920   2.114  0.00  0.00     0.043 A 
HETATM   65  F   UNK N   1      28.078  11.944   2.957  0.00  0.00    -0.205 F 
HETATM   66  C   UNK N   1      24.754  12.598   1.597  0.00  0.00     0.006 A 
HETATM   67  C   UNK N   1      24.796  13.985   1.442  0.00  0.00     0.043 A 
HETATM   68  C   UNK N   1      25.940  14.701   1.799  0.00  0.00     0.126 A 
HETATM   69  F   UNK N   1      25.946  16.041   1.617  0.00  0.00    -0.205 F 
ENDBRANCH  61  62
ENDBRANCH  59  61
BRANCH  59  70
HETATM   70  O   UNK N   1      29.027  14.876   4.423  0.00  0.00    -0.347 OA
HETATM   71  H   UNK N   1      28.492  14.141   4.759  0.00  0.00     0.218 HD
ENDBRANCH  59  70
ENDBRANCH   7  59
TORSDOF 13
ENDMDL
