REMARK  22 active torsions:
REMARK  status: ('A' for Active; 'I' for Inactive)
REMARK    1  A    between atoms: C_2  and  C_67 
REMARK    2  A    between atoms: C_4  and  N_25 
REMARK    3  A    between atoms: C_5  and  O_19 
REMARK    4  A    between atoms: C_6  and  N_7 
REMARK       I    between atoms: N_7  and  C_8 
REMARK    5  A    between atoms: C_8  and  C_10 
REMARK    6  A    between atoms: C_10  and  C_11 
REMARK    7  A    between atoms: C_11  and  C_12 
REMARK    8  A    between atoms: C_12  and  C_13 
REMARK    9  A    between atoms: C_13  and  N_14 
REMARK       I    between atoms: N_14  and  C_15 
REMARK       I    between atoms: C_15  and  N_18 
REMARK   10  A    between atoms: C_20  and  O_19 
REMARK       I    between atoms: N_25  and  C_26 
REMARK   11  A    between atoms: C_26  and  C_28 
REMARK   12  A    between atoms: C_30  and  C_36 
REMARK       I    between atoms: C_36  and  N_38 
REMARK   13  A    between atoms: N_38  and  C_39 
REMARK   14  A    between atoms: C_41  and  C_63 
REMARK   15  A    between atoms: C_43  and  N_51 
REMARK   16  A    between atoms: C_44  and  O_45 
REMARK   17  A    between atoms: C_46  and  O_45 
REMARK       I    between atoms: N_51  and  C_52 
REMARK   18  A    between atoms: C_52  and  C_54 
REMARK   19  A    between atoms: C_54  and  C_55 
REMARK   20  A    between atoms: C_55  and  C_56 
REMARK   21  A    between atoms: C_56  and  C_57 
REMARK   22  A    between atoms: C_57  and  N_58 
REMARK       I    between atoms: N_58  and  C_59 
REMARK       I    between atoms: C_59  and  N_62 
ROOT
HETATM    1  C   UNK N   1      -0.138  -4.815   1.687  0.00  0.00     0.104 C 
HETATM    2  C   UNK N   1      -0.199  -3.982   0.590  0.00  0.00     0.070 C 
HETATM    3  C   UNK N   1       0.961  -3.485   0.059  0.00  0.00     0.104 C 
HETATM    4  N   UNK N   1       2.152  -3.798   0.641  0.00  0.00    -0.348 N 
ATOM      5  HN  UNK N   1       3.007  -3.353   0.308  1.00  0.00     0.167 HD
HETATM    6  C   UNK N   1       2.215  -4.696   1.660  0.00  0.00     0.181 C 
HETATM    7  N   UNK N   1       1.065  -5.163   2.213  0.00  0.00    -0.348 N 
ATOM      8  HN  UNK N   1       1.105  -5.777   3.026  1.00  0.00     0.167 HD
ENDROOT
BRANCH   1   9
HETATM    9  C   UNK N   1      -1.381  -5.026   2.420  0.00  0.00     0.272 C 
HETATM   10  N   UNK N   1      -2.549  -4.566   1.922  0.00  0.00    -0.319 N 
HETATM   11  H   UNK N   1      -2.916  -3.745   2.321  0.00  0.00     0.169 HD
HETATM   12  O   UNK N   1      -1.318  -5.335   3.602  0.00  0.00    -0.266 OA
BRANCH  10  13
HETATM   13  C   UNK N   1      -3.294  -5.168   0.867  0.00  0.00     0.071 A 
HETATM   14  C   UNK N   1      -4.443  -4.506   0.432  0.00  0.00     0.048 A 
HETATM   15  C   UNK N   1      -5.385  -5.150  -0.375  0.00  0.00     0.052 A 
HETATM   16  C   UNK N   1      -5.223  -6.510  -0.660  0.00  0.00     0.048 A 
HETATM   17  C   UNK N   1      -4.066  -7.181  -0.244  0.00  0.00     0.071 A 
HETATM   18  C   UNK N   1      -3.063  -6.504   0.460  0.00  0.00     0.122 A 
BRANCH  15  19
HETATM   19  C   UNK N   1      -6.602  -4.397  -0.824  0.00  0.00     0.417 C 
HETATM   20  F   UNK N   1      -7.305  -3.969   0.287  0.00  0.00    -0.166 F 
HETATM   21  F   UNK N   1      -6.220  -3.294  -1.568  0.00  0.00    -0.166 F 
HETATM   22  F   UNK N   1      -7.430  -5.192  -1.598  0.00  0.00    -0.166 F 
ENDBRANCH  15  19
BRANCH  17  23
HETATM   23  N   UNK N   1      -3.975  -8.591  -0.289  0.00  0.00    -0.325 N 
HETATM   24  C   UNK N   1      -4.893  -9.383   0.330  0.00  0.00     0.222 C 
HETATM   25  O   UNK N   1      -5.904  -8.903   0.823  0.00  0.00    -0.273 OA
HETATM   26  H   UNK N   1      -3.231  -9.010  -0.780  0.00  0.00     0.169 HD
BRANCH  24  27
HETATM   27  C   UNK N   1      -4.614 -10.834   0.538  0.00  0.00     0.103 C 
BRANCH  27  28
HETATM   28  C   UNK N   1      -3.340 -11.284  -0.161  0.00  0.00     0.011 C 
BRANCH  28  29
HETATM   29  C   UNK N   1      -3.471 -12.694  -0.719  0.00  0.00     0.021 C 
BRANCH  29  30
HETATM   30  C   UNK N   1      -4.800 -12.908  -1.437  0.00  0.00     0.138 C 
BRANCH  30  31
HETATM   31  N   UNK N   1      -5.745 -13.455  -0.496  0.00  0.00    -0.227 N 
HETATM   32  C   UNK N   1      -6.943 -12.785  -0.136  0.00  0.00     0.665 C 
HETATM   33  N   UNK N   1      -7.670 -13.257   0.806  0.00  0.00    -0.235 N 
HETATM   34  N   UNK N   1      -7.304 -11.566  -0.754  0.00  0.00    -0.235 N 
HETATM   35  H   UNK N   1      -8.264 -12.954   1.530  0.00  0.00     0.174 HD
ATOM     36  HN  UNK N   1      -7.617 -14.276   0.806  1.00  0.00     0.174 HD
HETATM   37  H   UNK N   1      -6.695 -10.923  -1.185  0.00  0.00     0.174 HD
HETATM   38  H   UNK N   1      -8.262 -11.336  -0.754  0.00  0.00     0.174 HD
HETATM   39  H   UNK N   1      -5.551 -14.330  -0.086  0.00  0.00     0.177 HD
ENDBRANCH  30  31
ENDBRANCH  29  30
ENDBRANCH  28  29
ENDBRANCH  27  28
ENDBRANCH  24  27
ENDBRANCH  17  23
BRANCH  18  40
HETATM   40  O   UNK N   1      -1.947  -7.182   0.822  0.00  0.00    -0.340 OA
BRANCH  40  41
HETATM   41  C   UNK N   1      -0.863  -7.267  -0.047  0.00  0.00     0.148 C 
HETATM   42  C   UNK N   1       0.264  -8.027   0.590  0.00  0.00     0.053 C 
HETATM   43  C   UNK N   1       0.011  -9.466   0.200  0.00  0.00     0.116 C 
HETATM   44  N   UNK N   1      -0.786  -9.473  -1.021  0.00  0.00    -0.419 N 
HETATM   45  C   UNK N   1      -1.166  -8.090  -1.287  0.00  0.00     0.146 C 
HETATM   46  H   UNK N   1      -1.031 -10.289  -1.582  0.00  0.00     0.153 HD
ENDBRANCH  40  41
ENDBRANCH  18  40
ENDBRANCH  10  13
ENDBRANCH   1   9
BRANCH   3  47
HETATM   47  C   UNK N   1       0.793  -2.192  -0.546  0.00  0.00     0.272 C 
HETATM   48  O   UNK N   1       0.481  -2.060  -1.720  0.00  0.00    -0.266 OA
HETATM   49  N   UNK N   1       0.817  -1.144   0.308  0.00  0.00    -0.319 N 
HETATM   50  H   UNK N   1       0.956  -1.336   1.263  0.00  0.00     0.169 HD
BRANCH  49  51
HETATM   51  C   UNK N   1       0.660   0.194  -0.070  0.00  0.00     0.071 A 
HETATM   52  C   UNK N   1      -0.584   0.792   0.126  0.00  0.00     0.048 A 
HETATM   53  C   UNK N   1      -0.788   2.129  -0.198  0.00  0.00     0.052 A 
HETATM   54  C   UNK N   1       0.278   2.877  -0.708  0.00  0.00     0.048 A 
HETATM   55  C   UNK N   1       1.543   2.303  -0.902  0.00  0.00     0.071 A 
HETATM   56  C   UNK N   1       1.747   0.932  -0.596  0.00  0.00     0.122 A 
BRANCH  53  57
HETATM   57  C   UNK N   1      -2.143   2.759  -0.023  0.00  0.00     0.417 C 
HETATM   58  F   UNK N   1      -2.086   3.729   0.960  0.00  0.00    -0.166 F 
HETATM   59  F   UNK N   1      -2.537   3.343  -1.214  0.00  0.00    -0.166 F 
HETATM   60  F   UNK N   1      -3.092   1.815   0.338  0.00  0.00    -0.166 F 
ENDBRANCH  53  57
BRANCH  55  61
HETATM   61  N   UNK N   1       2.556   3.115  -1.491  0.00  0.00    -0.325 N 
HETATM   62  C   UNK N   1       3.891   3.094  -1.228  0.00  0.00     0.222 C 
HETATM   63  O   UNK N   1       4.642   3.719  -1.958  0.00  0.00    -0.273 OA
HETATM   64  H   UNK N   1       2.255   3.766  -2.165  0.00  0.00     0.169 HD
BRANCH  62  65
HETATM   65  C   UNK N   1       4.465   2.343  -0.060  0.00  0.00     0.103 C 
BRANCH  65  66
HETATM   66  C   UNK N   1       5.410   3.162   0.809  0.00  0.00     0.011 C 
BRANCH  66  67
HETATM   67  C   UNK N   1       6.768   3.437   0.147  0.00  0.00     0.021 C 
BRANCH  67  68
HETATM   68  C   UNK N   1       7.281   2.336  -0.786  0.00  0.00     0.138 C 
BRANCH  68  69
HETATM   69  N   UNK N   1       7.197   1.035  -0.168  0.00  0.00    -0.227 N 
HETATM   70  C   UNK N   1       8.347   0.255   0.104  0.00  0.00     0.665 C 
HETATM   71  N   UNK N   1       9.521   0.725  -0.110  0.00  0.00    -0.235 N 
HETATM   72  N   UNK N   1       8.200  -1.045   0.632  0.00  0.00    -0.235 N 
HETATM   73  H   UNK N   1      10.284   0.125  -0.274  0.00  0.00     0.174 HD
ATOM     74  HN  UNK N   1       9.666   1.735  -0.110  1.00  0.00     0.174 HD
HETATM   75  H   UNK N   1       7.362  -1.409   1.000  0.00  0.00     0.174 HD
HETATM   76  H   UNK N   1       8.991  -1.630   0.632  0.00  0.00     0.174 HD
HETATM   77  H   UNK N   1       6.311   0.679   0.072  0.00  0.00     0.177 HD
ENDBRANCH  68  69
ENDBRANCH  67  68
ENDBRANCH  66  67
ENDBRANCH  65  66
ENDBRANCH  62  65
ENDBRANCH  55  61
BRANCH  56  78
HETATM   78  O   UNK N   1       2.970   0.363  -0.830  0.00  0.00    -0.340 OA
BRANCH  78  79
HETATM   79  C   UNK N   1       3.370  -0.910  -0.477  0.00  0.00     0.148 C 
HETATM   80  C   UNK N   1       4.561  -0.925   0.426  0.00  0.00     0.053 C 
HETATM   81  C   UNK N   1       5.125  -2.313   0.190  0.00  0.00     0.116 C 
HETATM   82  N   UNK N   1       4.668  -2.775  -1.122  0.00  0.00    -0.419 N 
HETATM   83  C   UNK N   1       3.835  -1.707  -1.661  0.00  0.00     0.146 C 
HETATM   84  H   UNK N   1       4.887  -3.666  -1.568  0.00  0.00     0.153 HD
ENDBRANCH  78  79
ENDBRANCH  56  78
ENDBRANCH  49  51
ENDBRANCH   3  47
TORSDOF 22
