MODEL 1
REMARK VINA RESULT:      -4.8      0.000      0.000
REMARK  3 active torsions:
REMARK  status: ('A' for Active; 'I' for Inactive)
REMARK    1  A    between atoms: O_2  and  C_3 
REMARK    2  A    between atoms: C_5  and  C_13 
REMARK    3  A    between atoms: C_8  and  O_11 
ROOT
HETATM    1  C   UNK N   1      42.812  22.011   2.710  0.00  0.00     0.118 A 
HETATM    2  C   UNK N   1      42.023  22.624   1.682  0.00  0.00     0.096 A 
HETATM    3  C   UNK N   1      42.529  23.801   1.039  0.00  0.00     0.090 A 
HETATM    4  N   UNK N   1      43.728  24.301   1.452  0.00  0.00    -0.334 N 
ATOM      5  HN  UNK N   1      44.068  25.159   1.017  1.00  0.00     0.168 HD
HETATM    6  C   UNK N   1      44.495  23.723   2.407  0.00  0.00     0.167 A 
HETATM    7  C   UNK N   1      44.055  22.565   3.040  0.00  0.00     0.119 A 
HETATM    8 Cl   UNK N   1      45.059  21.811   4.277  0.00  0.00    -0.077 Cl
HETATM    9 Cl   UNK N   1      40.456  21.935   1.243  0.00  0.00    -0.079 Cl
ENDROOT
BRANCH   3  10
HETATM   10  C   UNK N   1      41.850  24.581  -0.095  0.00  0.00     0.232 C 
HETATM   11 Cl   UNK N   1      40.403  25.386   0.562  0.00  0.00    -0.077 Cl
HETATM   12 Cl   UNK N   1      42.970  25.858  -0.647  0.00  0.00    -0.077 Cl
HETATM   13 Cl   UNK N   1      41.356  23.743  -1.592  0.00  0.00    -0.077 Cl
ENDBRANCH   3  10
BRANCH   1  14
HETATM   14  O   UNK N   1      42.437  20.904   3.415  0.00  0.00    -0.352 OA
HETATM   15  C   UNK N   1      42.516  19.590   3.022  0.00  0.00     0.210 C 
ENDBRANCH   1  14
BRANCH   6  16
HETATM   16  O   UNK N   1      45.689  24.262   2.752  0.00  0.00    -0.339 OA
HETATM   17  C   UNK N   1      46.258  25.302   2.055  0.00  0.00     0.211 C 
ENDBRANCH   6  16
TORSDOF 3
ENDMDL
MODEL 2
REMARK VINA RESULT:      -4.7     12.906     14.811
REMARK  3 active torsions:
REMARK  status: ('A' for Active; 'I' for Inactive)
REMARK    1  A    between atoms: O_2  and  C_3 
REMARK    2  A    between atoms: C_5  and  C_13 
REMARK    3  A    between atoms: C_8  and  O_11 
ROOT
HETATM    1  C   UNK N   1      31.384  16.636   5.785  0.00  0.00     0.118 A 
HETATM    2  C   UNK N   1      30.161  16.985   6.444  0.00  0.00     0.096 A 
HETATM    3  C   UNK N   1      30.230  17.635   7.720  0.00  0.00     0.090 A 
HETATM    4  N   UNK N   1      31.458  17.869   8.263  0.00  0.00    -0.334 N 
ATOM      5  HN  UNK N   1      31.504  18.299   9.187  1.00  0.00     0.168 HD
HETATM    6  C   UNK N   1      32.624  17.563   7.644  0.00  0.00     0.167 A 
HETATM    7  C   UNK N   1      32.605  16.955   6.394  0.00  0.00     0.119 A 
HETATM    8 Cl   UNK N   1      34.124  16.566   5.588  0.00  0.00    -0.077 Cl
HETATM    9 Cl   UNK N   1      28.610  16.600   5.689  0.00  0.00    -0.079 Cl
ENDROOT
BRANCH   3  10
HETATM   10  C   UNK N   1      29.040  18.109   8.565  0.00  0.00     0.232 C 
HETATM   11 Cl   UNK N   1      29.668  18.861  10.052  0.00  0.00    -0.077 Cl
HETATM   12 Cl   UNK N   1      28.171  19.373   7.650  0.00  0.00    -0.077 Cl
HETATM   13 Cl   UNK N   1      27.767  16.955   9.050  0.00  0.00    -0.077 Cl
ENDBRANCH   3  10
BRANCH   1  14
HETATM   14  O   UNK N   1      31.458  15.996   4.582  0.00  0.00    -0.352 OA
HETATM   15  C   UNK N   1      31.346  16.546   3.328  0.00  0.00     0.210 C 
ENDBRANCH   1  14
BRANCH   6  16
HETATM   16  O   UNK N   1      33.811  17.846   8.233  0.00  0.00    -0.339 OA
HETATM   17  C   UNK N   1      34.357  17.050   9.212  0.00  0.00     0.211 C 
ENDBRANCH   6  16
TORSDOF 3
ENDMDL
MODEL 3
REMARK VINA RESULT:      -4.6     18.725     20.563
REMARK  3 active torsions:
REMARK  status: ('A' for Active; 'I' for Inactive)
REMARK    1  A    between atoms: O_2  and  C_3 
REMARK    2  A    between atoms: C_5  and  C_13 
REMARK    3  A    between atoms: C_8  and  O_11 
ROOT
HETATM    1  C   UNK N   1      22.493  18.826   3.745  0.00  0.00     0.118 A 
HETATM    2  C   UNK N   1      23.801  19.406   3.834  0.00  0.00     0.096 A 
HETATM    3  C   UNK N   1      24.746  18.832   4.745  0.00  0.00     0.090 A 
HETATM    4  N   UNK N   1      24.351  17.774   5.508  0.00  0.00    -0.334 N 
ATOM      5  HN  UNK N   1      25.014  17.391   6.182  1.00  0.00     0.168 HD
HETATM    6  C   UNK N   1      23.127  17.201   5.422  0.00  0.00     0.167 A 
HETATM    7  C   UNK N   1      22.186  17.709   4.533  0.00  0.00     0.119 A 
HETATM    8 Cl   UNK N   1      20.596  16.956   4.418  0.00  0.00    -0.077 Cl
HETATM    9 Cl   UNK N   1      24.212  20.810   2.841  0.00  0.00    -0.079 Cl
ENDROOT
BRANCH   3  10
HETATM   10  C   UNK N   1      26.194  19.291   4.963  0.00  0.00     0.232 C 
HETATM   11 Cl   UNK N   1      26.178  20.731   6.011  0.00  0.00    -0.077 Cl
HETATM   12 Cl   UNK N   1      27.067  18.001   5.836  0.00  0.00    -0.077 Cl
HETATM   13 Cl   UNK N   1      27.237  19.666   3.562  0.00  0.00    -0.077 Cl
ENDBRANCH   3  10
BRANCH   1  14
HETATM   14  O   UNK N   1      21.496  19.288   2.937  0.00  0.00    -0.352 OA
HETATM   15  C   UNK N   1      20.647  20.344   3.168  0.00  0.00     0.210 C 
ENDBRANCH   1  14
BRANCH   6  16
HETATM   16  O   UNK N   1      22.809  16.135   6.196  0.00  0.00    -0.339 OA
HETATM   17  C   UNK N   1      23.735  15.188   6.564  0.00  0.00     0.211 C 
ENDBRANCH   6  16
TORSDOF 3
ENDMDL
MODEL 4
REMARK VINA RESULT:      -4.5     22.242     24.167
REMARK  3 active torsions:
REMARK  status: ('A' for Active; 'I' for Inactive)
REMARK    1  A    between atoms: O_2  and  C_3 
REMARK    2  A    between atoms: C_5  and  C_13 
REMARK    3  A    between atoms: C_8  and  O_11 
ROOT
HETATM    1  C   UNK N   1      22.418  12.748   9.581  0.00  0.00     0.118 A 
HETATM    2  C   UNK N   1      23.123  13.321   8.472  0.00  0.00     0.096 A 
HETATM    3  C   UNK N   1      22.482  14.352   7.709  0.00  0.00     0.090 A 
HETATM    4  N   UNK N   1      21.218  14.724   8.057  0.00  0.00    -0.334 N 
ATOM      5  HN  UNK N   1      20.750  15.432   7.491  1.00  0.00     0.168 HD
HETATM    6  C   UNK N   1      20.546  14.208   9.114  0.00  0.00     0.167 A 
HETATM    7  C   UNK N   1      21.139  13.223   9.897  0.00  0.00     0.119 A 
HETATM    8 Cl   UNK N   1      20.265  12.560  11.276  0.00  0.00    -0.077 Cl
HETATM    9 Cl   UNK N   1      24.742  12.743   8.062  0.00  0.00    -0.079 Cl
ENDROOT
BRANCH   3  10
HETATM   10  C   UNK N   1      23.079  15.102   6.512  0.00  0.00     0.232 C 
HETATM   11 Cl   UNK N   1      22.788  14.140   5.042  0.00  0.00    -0.077 Cl
HETATM   12 Cl   UNK N   1      22.204  16.647   6.324  0.00  0.00    -0.077 Cl
HETATM   13 Cl   UNK N   1      24.804  15.564   6.511  0.00  0.00    -0.077 Cl
ENDBRANCH   3  10
BRANCH   1  14
HETATM   14  O   UNK N   1      22.904  11.748  10.372  0.00  0.00    -0.352 OA
HETATM   15  C   UNK N   1      23.714  11.865  11.475  0.00  0.00     0.210 C 
ENDBRANCH   1  14
BRANCH   6  16
HETATM   16  O   UNK N   1      19.298  14.642   9.416  0.00  0.00    -0.339 OA
HETATM   17  C   UNK N   1      18.918  15.954   9.266  0.00  0.00     0.211 C 
ENDBRANCH   6  16
TORSDOF 3
ENDMDL
MODEL 5
REMARK VINA RESULT:      -4.5     14.999     17.861
REMARK  3 active torsions:
REMARK  status: ('A' for Active; 'I' for Inactive)
REMARK    1  A    between atoms: O_2  and  C_3 
REMARK    2  A    between atoms: C_5  and  C_13 
REMARK    3  A    between atoms: C_8  and  O_11 
ROOT
HETATM    1  C   UNK N   1      35.818  13.881  11.616  0.00  0.00     0.118 A 
HETATM    2  C   UNK N   1      35.768  13.608  13.022  0.00  0.00     0.096 A 
HETATM    3  C   UNK N   1      35.074  12.436  13.470  0.00  0.00     0.090 A 
HETATM    4  N   UNK N   1      34.469  11.646  12.538  0.00  0.00    -0.334 N 
ATOM      5  HN  UNK N   1      33.945  10.833  12.863  1.00  0.00     0.168 HD
HETATM    6  C   UNK N   1      34.524  11.878  11.205  0.00  0.00     0.167 A 
HETATM    7  C   UNK N   1      35.208  12.989  10.724  0.00  0.00     0.119 A 
HETATM    8 Cl   UNK N   1      35.284  13.284   8.988  0.00  0.00    -0.077 Cl
HETATM    9 Cl   UNK N   1      36.540  14.715  14.164  0.00  0.00    -0.079 Cl
ENDROOT
BRANCH   3  10
HETATM   10  C   UNK N   1      34.933  11.962  14.922  0.00  0.00     0.232 C 
HETATM   11 Cl   UNK N   1      33.807  10.583  14.959  0.00  0.00    -0.077 Cl
HETATM   12 Cl   UNK N   1      36.525  11.370  15.475  0.00  0.00    -0.077 Cl
HETATM   13 Cl   UNK N   1      34.416  13.103  16.194  0.00  0.00    -0.077 Cl
ENDBRANCH   3  10
BRANCH   1  14
HETATM   14  O   UNK N   1      36.425  14.970  11.061  0.00  0.00    -0.352 OA
HETATM   15  C   UNK N   1      35.905  16.231  10.900  0.00  0.00     0.210 C 
ENDBRANCH   1  14
BRANCH   6  16
HETATM   16  O   UNK N   1      33.918  11.036  10.334  0.00  0.00    -0.339 OA
HETATM   17  C   UNK N   1      33.759   9.696  10.592  0.00  0.00     0.211 C 
ENDBRANCH   6  16
TORSDOF 3
ENDMDL
MODEL 6
REMARK VINA RESULT:      -4.4     12.987     14.920
REMARK  3 active torsions:
REMARK  status: ('A' for Active; 'I' for Inactive)
REMARK    1  A    between atoms: O_2  and  C_3 
REMARK    2  A    between atoms: C_5  and  C_13 
REMARK    3  A    between atoms: C_8  and  O_11 
ROOT
HETATM    1  C   UNK N   1      30.443  17.295   7.779  0.00  0.00     0.118 A 
HETATM    2  C   UNK N   1      29.435  17.061   6.787  0.00  0.00     0.096 A 
HETATM    3  C   UNK N   1      29.840  16.899   5.421  0.00  0.00     0.090 A 
HETATM    4  N   UNK N   1      31.165  17.001   5.122  0.00  0.00    -0.334 N 
ATOM      5  HN  UNK N   1      31.446  16.922   4.145  1.00  0.00     0.168 HD
HETATM    6  C   UNK N   1      32.132  17.203   6.049  0.00  0.00     0.167 A 
HETATM    7  C   UNK N   1      31.788  17.340   7.389  0.00  0.00     0.119 A 
HETATM    8 Cl   UNK N   1      33.049  17.593   8.594  0.00  0.00    -0.077 Cl
HETATM    9 Cl   UNK N   1      27.733  16.991   7.258  0.00  0.00    -0.079 Cl
ENDROOT
BRANCH   3  10
HETATM   10  C   UNK N   1      28.918  16.615   4.227  0.00  0.00     0.232 C 
HETATM   11 Cl   UNK N   1      27.907  18.053   3.942  0.00  0.00    -0.077 Cl
HETATM   12 Cl   UNK N   1      29.935  16.378   2.779  0.00  0.00    -0.077 Cl
HETATM   13 Cl   UNK N   1      27.832  15.198   4.247  0.00  0.00    -0.077 Cl
ENDBRANCH   3  10
BRANCH   1  14
HETATM   14  O   UNK N   1      30.191  17.488   9.106  0.00  0.00    -0.352 OA
HETATM   15  C   UNK N   1      29.707  18.621   9.714  0.00  0.00     0.210 C 
ENDBRANCH   1  14
BRANCH   6  16
HETATM   16  O   UNK N   1      33.435  17.271   5.682  0.00  0.00    -0.339 OA
HETATM   17  C   UNK N   1      34.180  16.152   5.396  0.00  0.00     0.211 C 
ENDBRANCH   6  16
TORSDOF 3
ENDMDL
MODEL 7
REMARK VINA RESULT:      -4.4     15.166     17.350
REMARK  3 active torsions:
REMARK  status: ('A' for Active; 'I' for Inactive)
REMARK    1  A    between atoms: O_2  and  C_3 
REMARK    2  A    between atoms: C_5  and  C_13 
REMARK    3  A    between atoms: C_8  and  O_11 
ROOT
HETATM    1  C   UNK N   1      27.424  26.595  -4.612  0.00  0.00     0.118 A 
HETATM    2  C   UNK N   1      28.647  25.925  -4.278  0.00  0.00     0.096 A 
HETATM    3  C   UNK N   1      28.742  24.514  -4.510  0.00  0.00     0.090 A 
HETATM    4  N   UNK N   1      27.654  23.865  -5.014  0.00  0.00    -0.334 N 
ATOM      5  HN  UNK N   1      27.712  22.855  -5.145  1.00  0.00     0.168 HD
HETATM    6  C   UNK N   1      26.499  24.486  -5.354  0.00  0.00     0.167 A 
HETATM    7  C   UNK N   1      26.371  25.858  -5.169  0.00  0.00     0.119 A 
HETATM    8 Cl   UNK N   1      24.870  26.664  -5.620  0.00  0.00    -0.077 Cl
HETATM    9 Cl   UNK N   1      29.991  26.837  -3.582  0.00  0.00    -0.079 Cl
ENDROOT
BRANCH   3  10
HETATM   10  C   UNK N   1      29.967  23.629  -4.245  0.00  0.00     0.232 C 
HETATM   11 Cl   UNK N   1      30.061  23.305  -2.497  0.00  0.00    -0.077 Cl
HETATM   12 Cl   UNK N   1      29.718  22.064  -5.069  0.00  0.00    -0.077 Cl
HETATM   13 Cl   UNK N   1      31.588  24.158  -4.775  0.00  0.00    -0.077 Cl
ENDBRANCH   3  10
BRANCH   1  14
HETATM   14  O   UNK N   1      27.196  27.927  -4.420  0.00  0.00    -0.352 OA
HETATM   15  C   UNK N   1      26.807  28.556  -3.262  0.00  0.00     0.210 C 
ENDBRANCH   1  14
BRANCH   6  16
HETATM   16  O   UNK N   1      25.465  23.781  -5.873  0.00  0.00    -0.339 OA
HETATM   17  C   UNK N   1      25.651  22.672  -6.663  0.00  0.00     0.211 C 
ENDBRANCH   6  16
TORSDOF 3
ENDMDL
MODEL 8
REMARK VINA RESULT:      -4.4     12.688     14.448
REMARK  3 active torsions:
REMARK  status: ('A' for Active; 'I' for Inactive)
REMARK    1  A    between atoms: O_2  and  C_3 
REMARK    2  A    between atoms: C_5  and  C_13 
REMARK    3  A    between atoms: C_8  and  O_11 
ROOT
HETATM    1  C   UNK N   1      29.788  17.530   6.843  0.00  0.00     0.118 A 
HETATM    2  C   UNK N   1      30.235  16.940   5.616  0.00  0.00     0.096 A 
HETATM    3  C   UNK N   1      31.622  16.601   5.483  0.00  0.00     0.090 A 
HETATM    4  N   UNK N   1      32.460  16.879   6.521  0.00  0.00    -0.334 N 
ATOM      5  HN  UNK N   1      33.452  16.669   6.410  1.00  0.00     0.168 HD
HETATM    6  C   UNK N   1      32.050  17.417   7.695  0.00  0.00     0.167 A 
HETATM    7  C   UNK N   1      30.709  17.739   7.878  0.00  0.00     0.119 A 
HETATM    8 Cl   UNK N   1      30.178  18.432   9.408  0.00  0.00    -0.077 Cl
HETATM    9 Cl   UNK N   1      29.087  16.659   4.302  0.00  0.00    -0.079 Cl
ENDROOT
BRANCH   3  10
HETATM   10  C   UNK N   1      32.284  15.941   4.266  0.00  0.00     0.232 C 
HETATM   11 Cl   UNK N   1      32.272  17.104   2.918  0.00  0.00    -0.077 Cl
HETATM   12 Cl   UNK N   1      33.991  15.604   4.670  0.00  0.00    -0.077 Cl
HETATM   13 Cl   UNK N   1      31.661  14.391   3.635  0.00  0.00    -0.077 Cl
ENDBRANCH   3  10
BRANCH   1  14
HETATM   14  O   UNK N   1      28.503  17.919   7.090  0.00  0.00    -0.352 OA
HETATM   15  C   UNK N   1      27.892  19.090   6.713  0.00  0.00     0.210 C 
ENDBRANCH   1  14
BRANCH   6  16
HETATM   16  O   UNK N   1      32.935  17.646   8.694  0.00  0.00    -0.339 OA
HETATM   17  C   UNK N   1      34.279  17.822   8.464  0.00  0.00     0.211 C 
ENDBRANCH   6  16
TORSDOF 3
ENDMDL
MODEL 9
REMARK VINA RESULT:      -4.4     12.806     14.773
REMARK  3 active torsions:
REMARK  status: ('A' for Active; 'I' for Inactive)
REMARK    1  A    between atoms: O_2  and  C_3 
REMARK    2  A    between atoms: C_5  and  C_13 
REMARK    3  A    between atoms: C_8  and  O_11 
ROOT
HETATM    1  C   UNK N   1      31.579  17.127   7.272  0.00  0.00     0.118 A 
HETATM    2  C   UNK N   1      30.160  17.322   7.205  0.00  0.00     0.096 A 
HETATM    3  C   UNK N   1      29.563  17.586   5.929  0.00  0.00     0.090 A 
HETATM    4  N   UNK N   1      30.375  17.667   4.838  0.00  0.00    -0.334 N 
ATOM      5  HN  UNK N   1      29.951  17.892   3.937  1.00  0.00     0.168 HD
HETATM    6  C   UNK N   1      31.714  17.467   4.880  0.00  0.00     0.167 A 
HETATM    7  C   UNK N   1      32.333  17.182   6.093  0.00  0.00     0.119 A 
HETATM    8 Cl   UNK N   1      34.074  16.913   6.143  0.00  0.00    -0.077 Cl
HETATM    9 Cl   UNK N   1      29.189  17.247   8.680  0.00  0.00    -0.079 Cl
ENDROOT
BRANCH   3  10
HETATM   10  C   UNK N   1      28.068  17.794   5.650  0.00  0.00     0.232 C 
HETATM   11 Cl   UNK N   1      27.570  19.344   6.373  0.00  0.00    -0.077 Cl
HETATM   12 Cl   UNK N   1      27.841  17.927   3.884  0.00  0.00    -0.077 Cl
HETATM   13 Cl   UNK N   1      26.880  16.564   6.162  0.00  0.00    -0.077 Cl
ENDBRANCH   3  10
BRANCH   1  14
HETATM   14  O   UNK N   1      32.273  16.891   8.423  0.00  0.00    -0.352 OA
HETATM   15  C   UNK N   1      32.466  15.688   9.058  0.00  0.00     0.210 C 
ENDBRANCH   1  14
BRANCH   6  16
HETATM   16  O   UNK N   1      32.458  17.540   3.750  0.00  0.00    -0.339 OA
HETATM   17  C   UNK N   1      32.626  16.467   2.907  0.00  0.00     0.211 C 
ENDBRANCH   6  16
TORSDOF 3
ENDMDL
