MODEL 1
REMARK VINA RESULT:      -5.6      0.000      0.000
REMARK  4 active torsions:
REMARK  status: ('A' for Active; 'I' for Inactive)
REMARK    1  A    between atoms: C_3  and  O_12 
REMARK    2  A    between atoms: C_4  and  O_11 
REMARK    3  A    between atoms: C_6  and  C_7 
REMARK       I    between atoms: C_7  and  N_9 
REMARK    4  A    between atoms: N_9  and  O_10 
ROOT
HETATM    1  C   UNK N   1      23.386  11.605   9.332  0.00  0.00     0.020 A 
HETATM    2  C   UNK N   1      22.629  11.762   8.165  0.00  0.00     0.040 A 
HETATM    3  C   UNK N   1      21.455  12.523   8.186  0.00  0.00     0.098 A 
HETATM    4  C   UNK N   1      21.037  13.127   9.379  0.00  0.00     0.099 A 
HETATM    5  C   UNK N   1      21.792  12.969  10.539  0.00  0.00     0.056 A 
HETATM    6  C   UNK N   1      22.969  12.211  10.528  0.00  0.00     0.036 A 
ENDROOT
BRANCH   6   7
HETATM    7  C   UNK N   1      23.745  12.067  11.775  0.00  0.00     0.275 C 
HETATM    8  O   UNK N   1      24.958  11.897  11.733  0.00  0.00    -0.265 OA
HETATM    9  N   UNK N   1      23.109  12.127  12.969  0.00  0.00    -0.233 N 
HETATM   10  H   UNK N   1      22.135  12.264  12.990  0.00  0.00     0.197 HD
BRANCH   9  11
HETATM   11  O   UNK N   1      23.780  12.003  14.121  0.00  0.00    -0.287 OA
HETATM   12  H   UNK N   1      23.930  12.780  14.681  0.00  0.00     0.244 HD
ENDBRANCH   9  11
ENDBRANCH   6   7
BRANCH   4  13
HETATM   13  O   UNK N   1      19.911  13.860   9.416  0.00  0.00    -0.358 OA
HETATM   14  H   UNK N   1      19.136  13.548   8.993  0.00  0.00     0.217 HD
ENDBRANCH   4  13
BRANCH   3  15
HETATM   15  O   UNK N   1      20.731  12.671   7.064  0.00  0.00    -0.358 OA
HETATM   16  H   UNK N   1      20.029  12.080   6.877  0.00  0.00     0.217 HD
ENDBRANCH   3  15
TORSDOF 4
ENDMDL
MODEL 2
REMARK VINA RESULT:      -5.5     11.397     12.011
REMARK  4 active torsions:
REMARK  status: ('A' for Active; 'I' for Inactive)
REMARK    1  A    between atoms: C_3  and  O_12 
REMARK    2  A    between atoms: C_4  and  O_11 
REMARK    3  A    between atoms: C_6  and  C_7 
REMARK       I    between atoms: C_7  and  N_9 
REMARK    4  A    between atoms: N_9  and  O_10 
ROOT
HETATM    1  C   UNK N   1      33.709  17.593   6.164  0.00  0.00     0.020 A 
HETATM    2  C   UNK N   1      32.693  17.286   5.250  0.00  0.00     0.040 A 
HETATM    3  C   UNK N   1      31.378  17.109   5.694  0.00  0.00     0.098 A 
HETATM    4  C   UNK N   1      31.078  17.239   7.056  0.00  0.00     0.099 A 
HETATM    5  C   UNK N   1      32.090  17.544   7.963  0.00  0.00     0.056 A 
HETATM    6  C   UNK N   1      33.409  17.724   7.529  0.00  0.00     0.036 A 
ENDROOT
BRANCH   6   7
HETATM    7  C   UNK N   1      34.455  18.048   8.518  0.00  0.00     0.275 C 
HETATM    8  O   UNK N   1      35.176  19.026   8.359  0.00  0.00    -0.265 OA
HETATM    9  N   UNK N   1      34.613  17.259   9.608  0.00  0.00    -0.233 N 
HETATM   10  H   UNK N   1      34.028  16.478   9.726  0.00  0.00     0.197 HD
BRANCH   9  11
HETATM   11  O   UNK N   1      35.549  17.524  10.528  0.00  0.00    -0.287 OA
HETATM   12  H   UNK N   1      36.272  16.896  10.678  0.00  0.00     0.244 HD
ENDBRANCH   9  11
ENDBRANCH   6   7
BRANCH   4  13
HETATM   13  O   UNK N   1      29.821  17.071   7.498  0.00  0.00    -0.358 OA
HETATM   14  H   UNK N   1      29.647  17.048   8.418  0.00  0.00     0.217 HD
ENDBRANCH   4  13
BRANCH   3  15
HETATM   15  O   UNK N   1      30.407  16.815   4.813  0.00  0.00    -0.358 OA
HETATM   16  H   UNK N   1      29.519  16.739   5.102  0.00  0.00     0.217 HD
ENDBRANCH   3  15
TORSDOF 4
ENDMDL
MODEL 3
REMARK VINA RESULT:      -5.4     14.198     15.615
REMARK  4 active torsions:
REMARK  status: ('A' for Active; 'I' for Inactive)
REMARK    1  A    between atoms: C_3  and  O_12 
REMARK    2  A    between atoms: C_4  and  O_11 
REMARK    3  A    between atoms: C_6  and  C_7 
REMARK       I    between atoms: C_7  and  N_9 
REMARK    4  A    between atoms: N_9  and  O_10 
ROOT
HETATM    1  C   UNK N   1      35.769  11.300  17.219  0.00  0.00     0.020 A 
HETATM    2  C   UNK N   1      35.663  10.738  18.496  0.00  0.00     0.040 A 
HETATM    3  C   UNK N   1      35.299  11.537  19.587  0.00  0.00     0.098 A 
HETATM    4  C   UNK N   1      35.041  12.900  19.398  0.00  0.00     0.099 A 
HETATM    5  C   UNK N   1      35.147  13.457  18.125  0.00  0.00     0.056 A 
HETATM    6  C   UNK N   1      35.510  12.666  17.027  0.00  0.00     0.036 A 
ENDROOT
BRANCH   6   7
HETATM    7  C   UNK N   1      35.610  13.289  15.694  0.00  0.00     0.275 C 
HETATM    8  O   UNK N   1      34.665  13.241  14.915  0.00  0.00    -0.265 OA
HETATM    9  N   UNK N   1      36.754  13.919  15.334  0.00  0.00    -0.233 N 
HETATM   10  H   UNK N   1      37.506  13.952  15.967  0.00  0.00     0.197 HD
BRANCH   9  11
HETATM   11  O   UNK N   1      36.880  14.498  14.133  0.00  0.00    -0.287 OA
HETATM   12  H   UNK N   1      36.162  15.044  13.780  0.00  0.00     0.244 HD
ENDBRANCH   9  11
ENDBRANCH   6   7
BRANCH   4  13
HETATM   13  O   UNK N   1      34.691  13.680  20.434  0.00  0.00    -0.358 OA
HETATM   14  H   UNK N   1      33.839  14.067  20.463  0.00  0.00     0.217 HD
ENDBRANCH   4  13
BRANCH   3  15
HETATM   15  O   UNK N   1      35.198  10.993  20.812  0.00  0.00    -0.358 OA
HETATM   16  H   UNK N   1      35.972  10.793  21.301  0.00  0.00     0.217 HD
ENDBRANCH   3  15
TORSDOF 4
ENDMDL
MODEL 4
REMARK VINA RESULT:      -5.3      9.789     10.612
REMARK  4 active torsions:
REMARK  status: ('A' for Active; 'I' for Inactive)
REMARK    1  A    between atoms: C_3  and  O_12 
REMARK    2  A    between atoms: C_4  and  O_11 
REMARK    3  A    between atoms: C_6  and  C_7 
REMARK       I    between atoms: C_7  and  N_9 
REMARK    4  A    between atoms: N_9  and  O_10 
ROOT
HETATM    1  C   UNK N   1      29.766  16.972   6.824  0.00  0.00     0.020 A 
HETATM    2  C   UNK N   1      28.559  17.217   7.489  0.00  0.00     0.040 A 
HETATM    3  C   UNK N   1      28.559  17.861   8.732  0.00  0.00     0.098 A 
HETATM    4  C   UNK N   1      29.771  18.260   9.311  0.00  0.00     0.099 A 
HETATM    5  C   UNK N   1      30.971  18.014   8.647  0.00  0.00     0.056 A 
HETATM    6  C   UNK N   1      30.981  17.372   7.403  0.00  0.00     0.036 A 
ENDROOT
BRANCH   6   7
HETATM    7  C   UNK N   1      32.271  17.131   6.728  0.00  0.00     0.275 C 
HETATM    8  O   UNK N   1      32.363  16.275   5.856  0.00  0.00    -0.265 OA
HETATM    9  N   UNK N   1      33.355  17.865   7.075  0.00  0.00    -0.233 N 
HETATM   10  H   UNK N   1      33.269  18.550   7.775  0.00  0.00     0.197 HD
BRANCH   9  11
HETATM   11  O   UNK N   1      34.541  17.676   6.482  0.00  0.00    -0.287 OA
HETATM   12  H   UNK N   1      35.311  18.194   6.762  0.00  0.00     0.244 HD
ENDBRANCH   9  11
ENDBRANCH   6   7
BRANCH   4  13
HETATM   13  O   UNK N   1      29.788  18.877  10.503  0.00  0.00    -0.358 OA
HETATM   14  H   UNK N   1      30.021  19.783  10.558  0.00  0.00     0.217 HD
ENDBRANCH   4  13
BRANCH   3  15
HETATM   15  O   UNK N   1      27.398  18.094   9.367  0.00  0.00    -0.358 OA
HETATM   16  H   UNK N   1      26.978  17.406   9.844  0.00  0.00     0.217 HD
ENDBRANCH   3  15
TORSDOF 4
ENDMDL
MODEL 5
REMARK VINA RESULT:      -5.3      2.189      4.779
REMARK  4 active torsions:
REMARK  status: ('A' for Active; 'I' for Inactive)
REMARK    1  A    between atoms: C_3  and  O_12 
REMARK    2  A    between atoms: C_4  and  O_11 
REMARK    3  A    between atoms: C_6  and  C_7 
REMARK       I    between atoms: C_7  and  N_9 
REMARK    4  A    between atoms: N_9  and  O_10 
ROOT
HETATM    1  C   UNK N   1      23.303  13.376   9.053  0.00  0.00     0.020 A 
HETATM    2  C   UNK N   1      24.390  12.871   9.776  0.00  0.00     0.040 A 
HETATM    3  C   UNK N   1      24.183  12.237  11.006  0.00  0.00     0.098 A 
HETATM    4  C   UNK N   1      22.883  12.107  11.514  0.00  0.00     0.099 A 
HETATM    5  C   UNK N   1      21.803  12.610  10.792  0.00  0.00     0.056 A 
HETATM    6  C   UNK N   1      22.000  13.246   9.560  0.00  0.00     0.036 A 
ENDROOT
BRANCH   6   7
HETATM    7  C   UNK N   1      20.832  13.764   8.822  0.00  0.00     0.275 C 
HETATM    8  O   UNK N   1      19.790  14.020   9.414  0.00  0.00    -0.265 OA
HETATM    9  N   UNK N   1      20.918  13.960   7.485  0.00  0.00    -0.233 N 
HETATM   10  H   UNK N   1      21.760  13.752   7.021  0.00  0.00     0.197 HD
BRANCH   9  11
HETATM   11  O   UNK N   1      19.880  14.431   6.783  0.00  0.00    -0.287 OA
HETATM   12  H   UNK N   1      19.343  15.155   7.139  0.00  0.00     0.244 HD
ENDBRANCH   9  11
ENDBRANCH   6   7
BRANCH   4  13
HETATM   13  O   UNK N   1      22.668  11.502  12.693  0.00  0.00    -0.358 OA
HETATM   14  H   UNK N   1      23.068  11.836  13.471  0.00  0.00     0.217 HD
ENDBRANCH   4  13
BRANCH   3  15
HETATM   15  O   UNK N   1      25.229  11.754  11.697  0.00  0.00    -0.358 OA
HETATM   16  H   UNK N   1      25.993  11.456  11.243  0.00  0.00     0.217 HD
ENDBRANCH   3  15
TORSDOF 4
ENDMDL
MODEL 6
REMARK VINA RESULT:      -5.2     12.579     14.694
REMARK  4 active torsions:
REMARK  status: ('A' for Active; 'I' for Inactive)
REMARK    1  A    between atoms: C_3  and  O_12 
REMARK    2  A    between atoms: C_4  and  O_11 
REMARK    3  A    between atoms: C_6  and  C_7 
REMARK       I    between atoms: C_7  and  N_9 
REMARK    4  A    between atoms: N_9  and  O_10 
ROOT
HETATM    1  C   UNK N   1      34.971  11.026  17.158  0.00  0.00     0.020 A 
HETATM    2  C   UNK N   1      35.325  11.227  18.497  0.00  0.00     0.040 A 
HETATM    3  C   UNK N   1      35.424  12.525  19.011  0.00  0.00     0.098 A 
HETATM    4  C   UNK N   1      35.167  13.625  18.182  0.00  0.00     0.099 A 
HETATM    5  C   UNK N   1      34.815  13.422  16.850  0.00  0.00     0.056 A 
HETATM    6  C   UNK N   1      34.712  12.127  16.326  0.00  0.00     0.036 A 
ENDROOT
BRANCH   6   7
HETATM    7  C   UNK N   1      34.335  11.951  14.911  0.00  0.00     0.275 C 
HETATM    8  O   UNK N   1      34.555  12.838  14.095  0.00  0.00    -0.265 OA
HETATM    9  N   UNK N   1      33.744  10.798  14.515  0.00  0.00    -0.233 N 
HETATM   10  H   UNK N   1      33.573  10.092  15.177  0.00  0.00     0.197 HD
BRANCH   9  11
HETATM   11  O   UNK N   1      33.390  10.601  13.238  0.00  0.00    -0.287 OA
HETATM   12  H   UNK N   1      32.561  10.973  12.902  0.00  0.00     0.244 HD
ENDBRANCH   9  11
ENDBRANCH   6   7
BRANCH   4  13
HETATM   13  O   UNK N   1      35.259  14.877  18.659  0.00  0.00    -0.358 OA
HETATM   14  H   UNK N   1      34.505  15.294  19.027  0.00  0.00     0.217 HD
ENDBRANCH   4  13
BRANCH   3  15
HETATM   15  O   UNK N   1      35.764  12.713  20.297  0.00  0.00    -0.358 OA
HETATM   16  H   UNK N   1      35.321  13.360  20.810  0.00  0.00     0.217 HD
ENDBRANCH   3  15
TORSDOF 4
ENDMDL
MODEL 7
REMARK VINA RESULT:      -5.2     18.247     18.933
REMARK  4 active torsions:
REMARK  status: ('A' for Active; 'I' for Inactive)
REMARK    1  A    between atoms: C_3  and  O_12 
REMARK    2  A    between atoms: C_4  and  O_11 
REMARK    3  A    between atoms: C_6  and  C_7 
REMARK       I    between atoms: C_7  and  N_9 
REMARK    4  A    between atoms: N_9  and  O_10 
ROOT
HETATM    1  C   UNK N   1      29.590  22.792  -4.834  0.00  0.00     0.020 A 
HETATM    2  C   UNK N   1      28.586  23.222  -5.709  0.00  0.00     0.040 A 
HETATM    3  C   UNK N   1      27.477  23.920  -5.218  0.00  0.00     0.098 A 
HETATM    4  C   UNK N   1      27.373  24.188  -3.847  0.00  0.00     0.099 A 
HETATM    5  C   UNK N   1      28.373  23.759  -2.978  0.00  0.00     0.056 A 
HETATM    6  C   UNK N   1      29.488  23.061  -3.460  0.00  0.00     0.036 A 
ENDROOT
BRANCH   6   7
HETATM    7  C   UNK N   1      30.529  22.624  -2.510  0.00  0.00     0.275 C 
HETATM    8  O   UNK N   1      30.512  23.015  -1.349  0.00  0.00    -0.265 OA
HETATM    9  N   UNK N   1      31.505  21.783  -2.928  0.00  0.00    -0.233 N 
HETATM   10  H   UNK N   1      31.508  21.475  -3.862  0.00  0.00     0.197 HD
BRANCH   9  11
HETATM   11  O   UNK N   1      32.465  21.363  -2.094  0.00  0.00    -0.287 OA
HETATM   12  H   UNK N   1      32.973  22.006  -1.577  0.00  0.00     0.244 HD
ENDBRANCH   9  11
ENDBRANCH   6   7
BRANCH   4  13
HETATM   13  O   UNK N   1      26.314  24.855  -3.360  0.00  0.00    -0.358 OA
HETATM   14  H   UNK N   1      26.258  25.785  -3.463  0.00  0.00     0.217 HD
ENDBRANCH   4  13
BRANCH   3  15
HETATM   15  O   UNK N   1      26.516  24.331  -6.062  0.00  0.00    -0.358 OA
HETATM   16  H   UNK N   1      25.777  23.782  -6.235  0.00  0.00     0.217 HD
ENDBRANCH   3  15
TORSDOF 4
ENDMDL
MODEL 8
REMARK VINA RESULT:      -5.1     22.658     23.730
REMARK  4 active torsions:
REMARK  status: ('A' for Active; 'I' for Inactive)
REMARK    1  A    between atoms: C_3  and  O_12 
REMARK    2  A    between atoms: C_4  and  O_11 
REMARK    3  A    between atoms: C_6  and  C_7 
REMARK       I    between atoms: C_7  and  N_9 
REMARK    4  A    between atoms: N_9  and  O_10 
ROOT
HETATM    1  C   UNK N   1      43.442  20.147   2.884  0.00  0.00     0.020 A 
HETATM    2  C   UNK N   1      44.626  20.623   3.459  0.00  0.00     0.040 A 
HETATM    3  C   UNK N   1      44.756  21.978   3.781  0.00  0.00     0.098 A 
HETATM    4  C   UNK N   1      43.698  22.860   3.527  0.00  0.00     0.099 A 
HETATM    5  C   UNK N   1      42.521  22.384   2.954  0.00  0.00     0.056 A 
HETATM    6  C   UNK N   1      42.380  21.029   2.629  0.00  0.00     0.036 A 
ENDROOT
BRANCH   6   7
HETATM    7  C   UNK N   1      41.118  20.560   2.026  0.00  0.00     0.275 C 
HETATM    8  O   UNK N   1      41.134  19.732   1.123  0.00  0.00    -0.265 OA
HETATM    9  N   UNK N   1      39.939  21.047   2.479  0.00  0.00    -0.233 N 
HETATM   10  H   UNK N   1      39.938  21.710   3.205  0.00  0.00     0.197 HD
BRANCH   9  11
HETATM   11  O   UNK N   1      38.773  20.642   1.958  0.00  0.00    -0.287 OA
HETATM   12  H   UNK N   1      38.055  21.279   1.823  0.00  0.00     0.244 HD
ENDBRANCH   9  11
ENDBRANCH   6   7
BRANCH   4  13
HETATM   13  O   UNK N   1      43.807  24.164   3.829  0.00  0.00    -0.358 OA
HETATM   14  H   UNK N   1      43.951  24.429   4.716  0.00  0.00     0.217 HD
ENDBRANCH   4  13
BRANCH   3  15
HETATM   15  O   UNK N   1      45.895  22.431   4.333  0.00  0.00    -0.358 OA
HETATM   16  H   UNK N   1      46.362  21.899   4.947  0.00  0.00     0.217 HD
ENDBRANCH   3  15
TORSDOF 4
ENDMDL
MODEL 9
REMARK VINA RESULT:      -5.1      1.909      4.937
REMARK  4 active torsions:
REMARK  status: ('A' for Active; 'I' for Inactive)
REMARK    1  A    between atoms: C_3  and  O_12 
REMARK    2  A    between atoms: C_4  and  O_11 
REMARK    3  A    between atoms: C_6  and  C_7 
REMARK       I    between atoms: C_7  and  N_9 
REMARK    4  A    between atoms: N_9  and  O_10 
ROOT
HETATM    1  C   UNK N   1      21.076  12.252  11.130  0.00  0.00     0.020 A 
HETATM    2  C   UNK N   1      21.696  11.927  12.343  0.00  0.00     0.040 A 
HETATM    3  C   UNK N   1      23.091  11.977  12.454  0.00  0.00     0.098 A 
HETATM    4  C   UNK N   1      23.866  12.353  11.349  0.00  0.00     0.099 A 
HETATM    5  C   UNK N   1      23.246  12.675  10.144  0.00  0.00     0.056 A 
HETATM    6  C   UNK N   1      21.851  12.629  10.023  0.00  0.00     0.036 A 
ENDROOT
BRANCH   6   7
HETATM    7  C   UNK N   1      21.229  12.979   8.731  0.00  0.00     0.275 C 
HETATM    8  O   UNK N   1      21.234  12.178   7.804  0.00  0.00    -0.265 OA
HETATM    9  N   UNK N   1      20.648  14.193   8.576  0.00  0.00    -0.233 N 
HETATM   10  H   UNK N   1      20.649  14.828   9.327  0.00  0.00     0.197 HD
BRANCH   9  11
HETATM   11  O   UNK N   1      20.072  14.544   7.420  0.00  0.00    -0.287 OA
HETATM   12  H   UNK N   1      19.837  15.470   7.257  0.00  0.00     0.244 HD
ENDBRANCH   9  11
ENDBRANCH   6   7
BRANCH   4  13
HETATM   13  O   UNK N   1      25.205  12.404  11.440  0.00  0.00    -0.358 OA
HETATM   14  H   UNK N   1      25.735  11.988  10.789  0.00  0.00     0.217 HD
ENDBRANCH   4  13
BRANCH   3  15
HETATM   15  O   UNK N   1      23.682  11.665  13.620  0.00  0.00    -0.358 OA
HETATM   16  H   UNK N   1      24.086  12.335  14.135  0.00  0.00     0.217 HD
ENDBRANCH   3  15
TORSDOF 4
ENDMDL
