MODEL 1
REMARK VINA RESULT:      -7.5      0.000      0.000
REMARK  14 active torsions:
REMARK  status: ('A' for Active; 'I' for Inactive)
REMARK    1  A    between atoms: C_2  and  C_3 
REMARK    2  A    between atoms: C_3  and  C_4 
REMARK    3  A    between atoms: C_4  and  C_5 
REMARK    4  A    between atoms: C_5  and  C_6 
REMARK    5  A    between atoms: C_6  and  C_7 
REMARK    6  A    between atoms: C_6  and  O_33 
REMARK    7  A    between atoms: C_10  and  N_13 
REMARK    8  A    between atoms: C_14  and  C_19 
REMARK    9  A    between atoms: C_19  and  O_20 
REMARK   10  A    between atoms: O_20  and  C_21 
REMARK   11  A    between atoms: C_21  and  C_22 
REMARK   12  A    between atoms: C_25  and  C_27 
REMARK   13  A    between atoms: C_27  and  O_29 
REMARK   14  A    between atoms: O_29  and  C_30 
ROOT
HETATM    1  N   UNK N   1      25.157  19.576   3.872  0.00  0.00    -0.311 N 
HETATM    2  C   UNK N   1      24.326  18.736   4.721  0.00  0.00     0.117 A 
HETATM    3  C   UNK N   1      22.903  18.920   4.188  0.00  0.00     0.037 A 
HETATM    4  C   UNK N   1      22.982  19.923   3.021  0.00  0.00     0.105 A 
HETATM    5  C   UNK N   1      24.413  20.270   3.005  0.00  0.00     0.224 A 
HETATM    6  O   UNK N   1      24.874  21.184   2.325  0.00  0.00    -0.273 OA
ENDROOT
BRANCH   1   7
HETATM    7  C   UNK N   1      26.429  19.960   4.335  0.00  0.00     0.037 C 
HETATM    8  C   UNK N   1      27.428  18.982   4.273  0.00  0.00     0.030 C 
HETATM    9  C   UNK N   1      28.205  18.689   5.390  0.00  0.00     0.012 C 
HETATM   10  C   UNK N   1      28.000  19.397   6.577  0.00  0.00    -0.029 C 
HETATM   11  C   UNK N   1      27.156  20.505   6.580  0.00  0.00     0.012 C 
HETATM   12  C   UNK N   1      26.384  20.787   5.464  0.00  0.00     0.030 C 
BRANCH  10  13
HETATM   13  C   UNK N   1      28.457  18.831   7.892  0.00  0.00     0.151 C 
BRANCH  13  14
HETATM   14  C   UNK N   1      29.217  17.530   7.797  0.00  0.00     0.036 C 
BRANCH  14  15
HETATM   15  C   UNK N   1      30.476  17.574   8.643  0.00  0.00     0.003 C 
BRANCH  15  16
HETATM   16  C   UNK N   1      31.687  17.493   7.736  0.00  0.00    -0.000 C 
BRANCH  16  17
HETATM   17  C   UNK N   1      31.320  16.731   6.479  0.00  0.00    -0.005 C 
HETATM   18  C   UNK N   1      32.025  17.341   5.292  0.00  0.00     0.005 C 
ENDBRANCH  16  17
ENDBRANCH  15  16
ENDBRANCH  14  15
ENDBRANCH  13  14
BRANCH  13  19
HETATM   19  O   UNK N   1      27.403  18.715   8.802  0.00  0.00    -0.391 OA
HETATM   20  H   UNK N   1      27.574  18.755   9.757  0.00  0.00     0.210 HD
ENDBRANCH  13  19
ENDBRANCH  10  13
ENDBRANCH   1   7
BRANCH   2  21
HETATM   21  C   UNK N   1      24.624  17.227   4.781  0.00  0.00     0.193 C 
BRANCH  21  22
HETATM   22  O   UNK N   1      24.238  16.512   5.928  0.00  0.00    -0.384 OA
BRANCH  22  23
HETATM   23  C   UNK N   1      23.117  15.691   5.640  0.00  0.00     0.213 C 
BRANCH  23  24
HETATM   24  C   UNK N   1      22.278  15.278   6.817  0.00  0.00     0.007 A 
HETATM   25  C   UNK N   1      21.369  16.071   7.518  0.00  0.00     0.018 A 
HETATM   26  C   UNK N   1      20.821  15.398   8.650  0.00  0.00     0.026 A 
HETATM   27  C   UNK N   1      21.306  14.093   8.799  0.00  0.00     0.080 A 
HETATM   28  S   UNK N   1      22.371  13.815   7.587  0.00  0.00    -0.086 SA
BRANCH  27  29
HETATM   29  C   UNK N   1      21.022  13.185   9.904  0.00  0.00     0.300 C 
HETATM   30  O   UNK N   1      19.910  13.151  10.413  0.00  0.00    -0.259 OA
BRANCH  29  31
HETATM   31  O   UNK N   1      21.949  12.268  10.232  0.00  0.00    -0.312 OA
BRANCH  31  32
HETATM   32  C   UNK N   1      23.017  12.557  11.033  0.00  0.00     0.124 C 
HETATM   33  C   UNK N   1      24.265  12.047  10.340  0.00  0.00     0.040 C 
HETATM   34  C   UNK N   1      22.854  11.827  12.348  0.00  0.00     0.040 C 
ENDBRANCH  31  32
ENDBRANCH  29  31
ENDBRANCH  27  29
ENDBRANCH  23  24
ENDBRANCH  22  23
ENDBRANCH  21  22
ENDBRANCH   2  21
TORSDOF 14
ENDMDL
MODEL 2
REMARK VINA RESULT:      -7.2      4.181      6.277
REMARK  14 active torsions:
REMARK  status: ('A' for Active; 'I' for Inactive)
REMARK    1  A    between atoms: C_2  and  C_3 
REMARK    2  A    between atoms: C_3  and  C_4 
REMARK    3  A    between atoms: C_4  and  C_5 
REMARK    4  A    between atoms: C_5  and  C_6 
REMARK    5  A    between atoms: C_6  and  C_7 
REMARK    6  A    between atoms: C_6  and  O_33 
REMARK    7  A    between atoms: C_10  and  N_13 
REMARK    8  A    between atoms: C_14  and  C_19 
REMARK    9  A    between atoms: C_19  and  O_20 
REMARK   10  A    between atoms: O_20  and  C_21 
REMARK   11  A    between atoms: C_21  and  C_22 
REMARK   12  A    between atoms: C_25  and  C_27 
REMARK   13  A    between atoms: C_27  and  O_29 
REMARK   14  A    between atoms: O_29  and  C_30 
ROOT
HETATM    1  N   UNK N   1      25.011  19.603   3.948  0.00  0.00    -0.311 N 
HETATM    2  C   UNK N   1      24.229  18.713   4.793  0.00  0.00     0.117 A 
HETATM    3  C   UNK N   1      22.797  18.820   4.261  0.00  0.00     0.037 A 
HETATM    4  C   UNK N   1      22.819  19.831   3.099  0.00  0.00     0.105 A 
HETATM    5  C   UNK N   1      24.229  20.258   3.085  0.00  0.00     0.224 A 
HETATM    6  O   UNK N   1      24.637  21.200   2.410  0.00  0.00    -0.273 OA
ENDROOT
BRANCH   1   7
HETATM    7  C   UNK N   1      26.260  20.055   4.413  0.00  0.00     0.037 C 
HETATM    8  C   UNK N   1      27.340  19.188   4.215  0.00  0.00     0.030 C 
HETATM    9  C   UNK N   1      28.184  18.854   5.270  0.00  0.00     0.012 C 
HETATM   10  C   UNK N   1      27.963  19.409   6.534  0.00  0.00    -0.029 C 
HETATM   11  C   UNK N   1      27.021  20.425   6.682  0.00  0.00     0.012 C 
HETATM   12  C   UNK N   1      26.184  20.749   5.627  0.00  0.00     0.030 C 
BRANCH  10  13
HETATM   13  C   UNK N   1      28.521  18.753   7.765  0.00  0.00     0.151 C 
BRANCH  13  14
HETATM   14  C   UNK N   1      28.882  17.296   7.603  0.00  0.00     0.036 C 
BRANCH  14  15
HETATM   15  C   UNK N   1      30.371  17.129   7.368  0.00  0.00     0.003 C 
BRANCH  15  16
HETATM   16  C   UNK N   1      31.124  17.576   8.603  0.00  0.00    -0.000 C 
BRANCH  16  17
HETATM   17  C   UNK N   1      32.448  18.186   8.189  0.00  0.00    -0.005 C 
HETATM   18  C   UNK N   1      33.581  17.316   8.674  0.00  0.00     0.005 C 
ENDBRANCH  16  17
ENDBRANCH  15  16
ENDBRANCH  14  15
ENDBRANCH  13  14
BRANCH  13  19
HETATM   19  O   UNK N   1      27.686  18.929   8.871  0.00  0.00    -0.391 OA
HETATM   20  H   UNK N   1      27.833  19.668   9.483  0.00  0.00     0.210 HD
ENDBRANCH  13  19
ENDBRANCH  10  13
ENDBRANCH   1   7
BRANCH   2  21
HETATM   21  C   UNK N   1      24.611  17.223   4.845  0.00  0.00     0.193 C 
BRANCH  21  22
HETATM   22  O   UNK N   1      25.110  16.617   3.679  0.00  0.00    -0.384 OA
BRANCH  22  23
HETATM   23  C   UNK N   1      25.794  15.416   4.005  0.00  0.00     0.213 C 
BRANCH  23  24
HETATM   24  C   UNK N   1      27.292  15.452   3.883  0.00  0.00     0.007 A 
HETATM   25  C   UNK N   1      28.034  15.972   2.822  0.00  0.00     0.018 A 
HETATM   26  C   UNK N   1      29.434  15.749   2.978  0.00  0.00     0.026 A 
HETATM   27  C   UNK N   1      29.752  15.071   4.161  0.00  0.00     0.080 A 
HETATM   28  S   UNK N   1      28.352  14.760   4.950  0.00  0.00    -0.086 SA
BRANCH  27  29
HETATM   29  C   UNK N   1      31.074  14.605   4.563  0.00  0.00     0.300 C 
HETATM   30  O   UNK N   1      31.216  13.511   5.090  0.00  0.00    -0.259 OA
BRANCH  29  31
HETATM   31  O   UNK N   1      32.147  15.323   4.184  0.00  0.00    -0.312 OA
BRANCH  31  32
HETATM   32  C   UNK N   1      32.801  16.170   5.031  0.00  0.00     0.124 C 
HETATM   33  C   UNK N   1      32.836  17.539   4.380  0.00  0.00     0.040 C 
HETATM   34  C   UNK N   1      34.220  15.680   5.216  0.00  0.00     0.040 C 
ENDBRANCH  31  32
ENDBRANCH  29  31
ENDBRANCH  27  29
ENDBRANCH  23  24
ENDBRANCH  22  23
ENDBRANCH  21  22
ENDBRANCH   2  21
TORSDOF 14
ENDMDL
MODEL 3
REMARK VINA RESULT:      -7.0     13.374     16.071
REMARK  14 active torsions:
REMARK  status: ('A' for Active; 'I' for Inactive)
REMARK    1  A    between atoms: C_2  and  C_3 
REMARK    2  A    between atoms: C_3  and  C_4 
REMARK    3  A    between atoms: C_4  and  C_5 
REMARK    4  A    between atoms: C_5  and  C_6 
REMARK    5  A    between atoms: C_6  and  C_7 
REMARK    6  A    between atoms: C_6  and  O_33 
REMARK    7  A    between atoms: C_10  and  N_13 
REMARK    8  A    between atoms: C_14  and  C_19 
REMARK    9  A    between atoms: C_19  and  O_20 
REMARK   10  A    between atoms: O_20  and  C_21 
REMARK   11  A    between atoms: C_21  and  C_22 
REMARK   12  A    between atoms: C_25  and  C_27 
REMARK   13  A    between atoms: C_27  and  O_29 
REMARK   14  A    between atoms: O_29  and  C_30 
ROOT
HETATM    1  N   UNK N   1      27.267  28.530  -4.232  0.00  0.00    -0.311 N 
HETATM    2  C   UNK N   1      27.736  28.989  -5.531  0.00  0.00     0.117 A 
HETATM    3  C   UNK N   1      28.359  30.361  -5.264  0.00  0.00     0.037 A 
HETATM    4  C   UNK N   1      28.189  30.652  -3.761  0.00  0.00     0.105 A 
HETATM    5  C   UNK N   1      27.449  29.466  -3.296  0.00  0.00     0.224 A 
HETATM    6  O   UNK N   1      26.956  29.381  -2.174  0.00  0.00    -0.273 OA
ENDROOT
BRANCH   1   7
HETATM    7  C   UNK N   1      26.293  27.515  -4.183  0.00  0.00     0.037 C 
HETATM    8  C   UNK N   1      26.758  26.231  -3.879  0.00  0.00     0.030 C 
HETATM    9  C   UNK N   1      26.418  25.145  -4.680  0.00  0.00     0.012 C 
HETATM   10  C   UNK N   1      25.585  25.337  -5.786  0.00  0.00    -0.029 C 
HETATM   11  C   UNK N   1      24.958  26.568  -5.968  0.00  0.00     0.012 C 
HETATM   12  C   UNK N   1      25.305  27.644  -5.167  0.00  0.00     0.030 C 
BRANCH  10  13
HETATM   13  C   UNK N   1      25.567  24.341  -6.911  0.00  0.00     0.151 C 
BRANCH  13  14
HETATM   14  C   UNK N   1      26.115  22.978  -6.565  0.00  0.00     0.036 C 
BRANCH  14  15
HETATM   15  C   UNK N   1      25.277  21.880  -7.192  0.00  0.00     0.003 C 
BRANCH  15  16
HETATM   16  C   UNK N   1      26.146  21.063  -8.125  0.00  0.00    -0.000 C 
BRANCH  16  17
HETATM   17  C   UNK N   1      27.589  21.501  -7.976  0.00  0.00    -0.005 C 
HETATM   18  C   UNK N   1      28.493  20.293  -8.024  0.00  0.00     0.005 C 
ENDBRANCH  16  17
ENDBRANCH  15  16
ENDBRANCH  14  15
ENDBRANCH  13  14
BRANCH  13  19
HETATM   19  O   UNK N   1      26.189  24.841  -8.057  0.00  0.00    -0.391 OA
HETATM   20  H   UNK N   1      26.328  25.796  -8.163  0.00  0.00     0.210 HD
ENDBRANCH  13  19
ENDBRANCH  10  13
ENDBRANCH   1   7
BRANCH   2  21
HETATM   21  C   UNK N   1      28.768  28.132  -6.286  0.00  0.00     0.193 C 
BRANCH  21  22
HETATM   22  O   UNK N   1      29.957  27.777  -5.626  0.00  0.00    -0.384 OA
BRANCH  22  23
HETATM   23  C   UNK N   1      30.537  26.636  -6.240  0.00  0.00     0.213 C 
BRANCH  23  24
HETATM   24  C   UNK N   1      30.426  25.345  -5.478  0.00  0.00     0.007 A 
HETATM   25  C   UNK N   1      29.563  24.283  -5.748  0.00  0.00     0.018 A 
HETATM   26  C   UNK N   1      29.641  23.255  -4.764  0.00  0.00     0.026 A 
HETATM   27  C   UNK N   1      30.571  23.532  -3.755  0.00  0.00     0.080 A 
HETATM   28  S   UNK N   1      31.239  24.991  -4.079  0.00  0.00    -0.086 SA
BRANCH  27  29
HETATM   29  C   UNK N   1      30.813  22.735  -2.558  0.00  0.00     0.300 C 
HETATM   30  O   UNK N   1      30.358  23.079  -1.476  0.00  0.00    -0.259 OA
BRANCH  29  31
HETATM   31  O   UNK N   1      31.394  21.530  -2.700  0.00  0.00    -0.312 OA
BRANCH  31  32
HETATM   32  C   UNK N   1      32.337  21.276  -3.654  0.00  0.00     0.124 C 
HETATM   33  C   UNK N   1      31.830  20.135  -4.513  0.00  0.00     0.040 C 
HETATM   34  C   UNK N   1      33.618  20.846  -2.975  0.00  0.00     0.040 C 
ENDBRANCH  31  32
ENDBRANCH  29  31
ENDBRANCH  27  29
ENDBRANCH  23  24
ENDBRANCH  22  23
ENDBRANCH  21  22
ENDBRANCH   2  21
TORSDOF 14
ENDMDL
MODEL 4
REMARK VINA RESULT:      -7.0      1.620      2.371
REMARK  14 active torsions:
REMARK  status: ('A' for Active; 'I' for Inactive)
REMARK    1  A    between atoms: C_2  and  C_3 
REMARK    2  A    between atoms: C_3  and  C_4 
REMARK    3  A    between atoms: C_4  and  C_5 
REMARK    4  A    between atoms: C_5  and  C_6 
REMARK    5  A    between atoms: C_6  and  C_7 
REMARK    6  A    between atoms: C_6  and  O_33 
REMARK    7  A    between atoms: C_10  and  N_13 
REMARK    8  A    between atoms: C_14  and  C_19 
REMARK    9  A    between atoms: C_19  and  O_20 
REMARK   10  A    between atoms: O_20  and  C_21 
REMARK   11  A    between atoms: C_21  and  C_22 
REMARK   12  A    between atoms: C_25  and  C_27 
REMARK   13  A    between atoms: C_27  and  O_29 
REMARK   14  A    between atoms: O_29  and  C_30 
ROOT
HETATM    1  N   UNK N   1      25.254  19.650   3.904  0.00  0.00    -0.311 N 
HETATM    2  C   UNK N   1      24.407  18.805   4.733  0.00  0.00     0.117 A 
HETATM    3  C   UNK N   1      23.002  18.957   4.144  0.00  0.00     0.037 A 
HETATM    4  C   UNK N   1      23.107  19.946   2.968  0.00  0.00     0.105 A 
HETATM    5  C   UNK N   1      24.532  20.319   3.001  0.00  0.00     0.224 A 
HETATM    6  O   UNK N   1      25.001  21.233   2.327  0.00  0.00    -0.273 OA
ENDROOT
BRANCH   1   7
HETATM    7  C   UNK N   1      26.501  20.063   4.410  0.00  0.00     0.037 C 
HETATM    8  C   UNK N   1      27.549  19.143   4.290  0.00  0.00     0.030 C 
HETATM    9  C   UNK N   1      28.330  18.810   5.393  0.00  0.00     0.012 C 
HETATM   10  C   UNK N   1      28.079  19.418   6.625  0.00  0.00    -0.029 C 
HETATM   11  C   UNK N   1      27.179  20.479   6.698  0.00  0.00     0.012 C 
HETATM   12  C   UNK N   1      26.404  20.802   5.596  0.00  0.00     0.030 C 
BRANCH  10  13
HETATM   13  C   UNK N   1      28.553  18.781   7.902  0.00  0.00     0.151 C 
BRANCH  13  14
HETATM   14  C   UNK N   1      29.206  17.430   7.737  0.00  0.00     0.036 C 
BRANCH  14  15
HETATM   15  C   UNK N   1      30.270  17.208   8.795  0.00  0.00     0.003 C 
BRANCH  15  16
HETATM   16  C   UNK N   1      31.493  18.033   8.451  0.00  0.00    -0.000 C 
BRANCH  16  17
HETATM   17  C   UNK N   1      32.168  17.441   7.230  0.00  0.00    -0.005 C 
HETATM   18  C   UNK N   1      33.646  17.741   7.273  0.00  0.00     0.005 C 
ENDBRANCH  16  17
ENDBRANCH  15  16
ENDBRANCH  14  15
ENDBRANCH  13  14
BRANCH  13  19
HETATM   19  O   UNK N   1      27.537  18.718   8.859  0.00  0.00    -0.391 OA
HETATM   20  H   UNK N   1      27.646  19.157   9.718  0.00  0.00     0.210 HD
ENDBRANCH  13  19
ENDBRANCH  10  13
ENDBRANCH   1   7
BRANCH   2  21
HETATM   21  C   UNK N   1      24.730  17.303   4.824  0.00  0.00     0.193 C 
BRANCH  21  22
HETATM   22  O   UNK N   1      24.994  16.600   3.636  0.00  0.00    -0.384 OA
BRANCH  22  23
HETATM   23  C   UNK N   1      24.839  15.205   3.847  0.00  0.00     0.213 C 
BRANCH  23  24
HETATM   24  C   UNK N   1      23.491  14.755   4.338  0.00  0.00     0.007 A 
HETATM   25  C   UNK N   1      22.247  15.118   3.824  0.00  0.00     0.018 A 
HETATM   26  C   UNK N   1      21.167  14.595   4.593  0.00  0.00     0.026 A 
HETATM   27  C   UNK N   1      21.593  13.827   5.683  0.00  0.00     0.080 A 
HETATM   28  S   UNK N   1      23.229  13.823   5.682  0.00  0.00    -0.086 SA
BRANCH  27  29
HETATM   29  C   UNK N   1      20.743  13.241   6.714  0.00  0.00     0.300 C 
HETATM   30  O   UNK N   1      20.751  12.035   6.918  0.00  0.00    -0.259 OA
BRANCH  29  31
HETATM   31  O   UNK N   1      20.089  14.069   7.548  0.00  0.00    -0.312 OA
BRANCH  31  32
HETATM   32  C   UNK N   1      20.736  14.925   8.392  0.00  0.00     0.124 C 
HETATM   33  C   UNK N   1      21.244  14.117   9.570  0.00  0.00     0.040 C 
HETATM   34  C   UNK N   1      19.749  15.956   8.894  0.00  0.00     0.040 C 
ENDBRANCH  31  32
ENDBRANCH  29  31
ENDBRANCH  27  29
ENDBRANCH  23  24
ENDBRANCH  22  23
ENDBRANCH  21  22
ENDBRANCH   2  21
TORSDOF 14
ENDMDL
MODEL 5
REMARK VINA RESULT:      -6.8     13.400     15.644
REMARK  14 active torsions:
REMARK  status: ('A' for Active; 'I' for Inactive)
REMARK    1  A    between atoms: C_2  and  C_3 
REMARK    2  A    between atoms: C_3  and  C_4 
REMARK    3  A    between atoms: C_4  and  C_5 
REMARK    4  A    between atoms: C_5  and  C_6 
REMARK    5  A    between atoms: C_6  and  C_7 
REMARK    6  A    between atoms: C_6  and  O_33 
REMARK    7  A    between atoms: C_10  and  N_13 
REMARK    8  A    between atoms: C_14  and  C_19 
REMARK    9  A    between atoms: C_19  and  O_20 
REMARK   10  A    between atoms: O_20  and  C_21 
REMARK   11  A    between atoms: C_21  and  C_22 
REMARK   12  A    between atoms: C_25  and  C_27 
REMARK   13  A    between atoms: C_27  and  O_29 
REMARK   14  A    between atoms: O_29  and  C_30 
ROOT
HETATM    1  N   UNK N   1      25.962  25.079  -7.294  0.00  0.00    -0.311 N 
HETATM    2  C   UNK N   1      25.928  24.134  -6.188  0.00  0.00     0.117 A 
HETATM    3  C   UNK N   1      25.641  22.777  -6.836  0.00  0.00     0.037 A 
HETATM    4  C   UNK N   1      25.490  23.021  -8.350  0.00  0.00     0.105 A 
HETATM    5  C   UNK N   1      25.651  24.482  -8.448  0.00  0.00     0.224 A 
HETATM    6  O   UNK N   1      25.426  25.113  -9.477  0.00  0.00    -0.273 OA
ENDROOT
BRANCH   1   7
HETATM    7  C   UNK N   1      25.792  26.449  -7.020  0.00  0.00     0.037 C 
HETATM    8  C   UNK N   1      26.949  27.235  -7.067  0.00  0.00     0.030 C 
HETATM    9  C   UNK N   1      27.275  28.082  -6.012  0.00  0.00     0.012 C 
HETATM   10  C   UNK N   1      26.425  28.165  -4.906  0.00  0.00    -0.029 C 
HETATM   11  C   UNK N   1      25.177  27.545  -4.949  0.00  0.00     0.012 C 
HETATM   12  C   UNK N   1      24.863  26.702  -6.003  0.00  0.00     0.030 C 
BRANCH  10  13
HETATM   13  C   UNK N   1      26.934  28.675  -3.587  0.00  0.00     0.151 C 
BRANCH  13  14
HETATM   14  C   UNK N   1      28.438  28.723  -3.460  0.00  0.00     0.036 C 
BRANCH  14  15
HETATM   15  C   UNK N   1      28.884  29.995  -2.763  0.00  0.00     0.003 C 
BRANCH  15  16
HETATM   16  C   UNK N   1      29.845  29.639  -1.648  0.00  0.00    -0.000 C 
BRANCH  16  17
HETATM   17  C   UNK N   1      29.228  30.017  -0.317  0.00  0.00    -0.005 C 
HETATM   18  C   UNK N   1      28.154  31.056  -0.532  0.00  0.00     0.005 C 
ENDBRANCH  16  17
ENDBRANCH  15  16
ENDBRANCH  14  15
ENDBRANCH  13  14
BRANCH  13  19
HETATM   19  O   UNK N   1      26.376  27.982  -2.510  0.00  0.00    -0.391 OA
HETATM   20  H   UNK N   1      25.904  28.461  -1.811  0.00  0.00     0.210 HD
ENDBRANCH  13  19
ENDBRANCH  10  13
ENDBRANCH   1   7
BRANCH   2  21
HETATM   21  C   UNK N   1      27.181  23.988  -5.306  0.00  0.00     0.193 C 
BRANCH  21  22
HETATM   22  O   UNK N   1      27.321  24.836  -4.194  0.00  0.00    -0.384 OA
BRANCH  22  23
HETATM   23  C   UNK N   1      27.868  24.120  -3.096  0.00  0.00     0.213 C 
BRANCH  23  24
HETATM   24  C   UNK N   1      29.327  23.771  -3.194  0.00  0.00     0.007 A 
HETATM   25  C   UNK N   1      30.319  24.493  -3.857  0.00  0.00     0.018 A 
HETATM   26  C   UNK N   1      31.579  23.825  -3.843  0.00  0.00     0.026 A 
HETATM   27  C   UNK N   1      31.542  22.603  -3.161  0.00  0.00     0.080 A 
HETATM   28  S   UNK N   1      30.013  22.376  -2.624  0.00  0.00    -0.086 SA
BRANCH  27  29
HETATM   29  C   UNK N   1      32.631  21.638  -3.056  0.00  0.00     0.300 C 
HETATM   30  O   UNK N   1      32.995  21.225  -1.963  0.00  0.00    -0.259 OA
BRANCH  29  31
HETATM   31  O   UNK N   1      33.104  21.082  -4.186  0.00  0.00    -0.312 OA
BRANCH  31  32
HETATM   32  C   UNK N   1      32.650  19.886  -4.662  0.00  0.00     0.124 C 
HETATM   33  C   UNK N   1      33.858  19.029  -4.985  0.00  0.00     0.040 C 
HETATM   34  C   UNK N   1      31.869  20.130  -5.935  0.00  0.00     0.040 C 
ENDBRANCH  31  32
ENDBRANCH  29  31
ENDBRANCH  27  29
ENDBRANCH  23  24
ENDBRANCH  22  23
ENDBRANCH  21  22
ENDBRANCH   2  21
TORSDOF 14
ENDMDL
MODEL 6
REMARK VINA RESULT:      -6.8     13.679     15.890
REMARK  14 active torsions:
REMARK  status: ('A' for Active; 'I' for Inactive)
REMARK    1  A    between atoms: C_2  and  C_3 
REMARK    2  A    between atoms: C_3  and  C_4 
REMARK    3  A    between atoms: C_4  and  C_5 
REMARK    4  A    between atoms: C_5  and  C_6 
REMARK    5  A    between atoms: C_6  and  C_7 
REMARK    6  A    between atoms: C_6  and  O_33 
REMARK    7  A    between atoms: C_10  and  N_13 
REMARK    8  A    between atoms: C_14  and  C_19 
REMARK    9  A    between atoms: C_19  and  O_20 
REMARK   10  A    between atoms: O_20  and  C_21 
REMARK   11  A    between atoms: C_21  and  C_22 
REMARK   12  A    between atoms: C_25  and  C_27 
REMARK   13  A    between atoms: C_27  and  O_29 
REMARK   14  A    between atoms: O_29  and  C_30 
ROOT
HETATM    1  N   UNK N   1      26.116  25.207  -6.760  0.00  0.00    -0.311 N 
HETATM    2  C   UNK N   1      25.796  24.352  -5.628  0.00  0.00     0.117 A 
HETATM    3  C   UNK N   1      25.707  22.940  -6.212  0.00  0.00     0.037 A 
HETATM    4  C   UNK N   1      25.967  23.058  -7.725  0.00  0.00     0.105 A 
HETATM    5  C   UNK N   1      26.133  24.511  -7.901  0.00  0.00     0.224 A 
HETATM    6  O   UNK N   1      26.187  25.052  -9.003  0.00  0.00    -0.273 OA
ENDROOT
BRANCH   1   7
HETATM    7  C   UNK N   1      25.864  26.589  -6.659  0.00  0.00     0.037 C 
HETATM    8  C   UNK N   1      26.981  27.426  -6.751  0.00  0.00     0.030 C 
HETATM    9  C   UNK N   1      27.212  28.408  -5.791  0.00  0.00     0.012 C 
HETATM   10  C   UNK N   1      26.306  28.572  -4.740  0.00  0.00    -0.029 C 
HETATM   11  C   UNK N   1      25.095  27.883  -4.762  0.00  0.00     0.012 C 
HETATM   12  C   UNK N   1      24.875  26.906  -5.720  0.00  0.00     0.030 C 
BRANCH  10  13
HETATM   13  C   UNK N   1      26.725  29.260  -3.471  0.00  0.00     0.151 C 
BRANCH  13  14
HETATM   14  C   UNK N   1      28.065  29.953  -3.533  0.00  0.00     0.036 C 
BRANCH  14  15
HETATM   15  C   UNK N   1      28.900  29.632  -2.307  0.00  0.00     0.003 C 
BRANCH  15  16
HETATM   16  C   UNK N   1      30.268  29.156  -2.749  0.00  0.00    -0.000 C 
BRANCH  16  17
HETATM   17  C   UNK N   1      30.135  27.801  -3.415  0.00  0.00    -0.005 C 
HETATM   18  C   UNK N   1      30.880  27.807  -4.727  0.00  0.00     0.005 C 
ENDBRANCH  16  17
ENDBRANCH  15  16
ENDBRANCH  14  15
ENDBRANCH  13  14
BRANCH  13  19
HETATM   19  O   UNK N   1      26.670  28.400  -2.371  0.00  0.00    -0.391 OA
HETATM   20  H   UNK N   1      27.188  27.580  -2.365  0.00  0.00     0.210 HD
ENDBRANCH  13  19
ENDBRANCH  10  13
ENDBRANCH   1   7
BRANCH   2  21
HETATM   21  C   UNK N   1      26.766  24.317  -4.434  0.00  0.00     0.193 C 
BRANCH  21  22
HETATM   22  O   UNK N   1      28.028  24.919  -4.577  0.00  0.00    -0.384 OA
BRANCH  22  23
HETATM   23  C   UNK N   1      28.950  24.354  -3.656  0.00  0.00     0.213 C 
BRANCH  23  24
HETATM   24  C   UNK N   1      29.584  23.055  -4.067  0.00  0.00     0.007 A 
HETATM   25  C   UNK N   1      30.029  22.036  -3.225  0.00  0.00     0.018 A 
HETATM   26  C   UNK N   1      30.680  20.986  -3.938  0.00  0.00     0.026 A 
HETATM   27  C   UNK N   1      30.718  21.206  -5.320  0.00  0.00     0.080 A 
HETATM   28  S   UNK N   1      29.990  22.641  -5.618  0.00  0.00    -0.086 SA
BRANCH  27  29
HETATM   29  C   UNK N   1      31.397  20.376  -6.310  0.00  0.00     0.300 C 
HETATM   30  O   UNK N   1      32.427  19.783  -6.025  0.00  0.00    -0.259 OA
BRANCH  29  31
HETATM   31  O   UNK N   1      30.775  20.139  -7.479  0.00  0.00    -0.312 OA
BRANCH  31  32
HETATM   32  C   UNK N   1      29.705  19.297  -7.585  0.00  0.00     0.124 C 
HETATM   33  C   UNK N   1      30.035  18.263  -8.643  0.00  0.00     0.040 C 
HETATM   34  C   UNK N   1      28.500  20.092  -8.036  0.00  0.00     0.040 C 
ENDBRANCH  31  32
ENDBRANCH  29  31
ENDBRANCH  27  29
ENDBRANCH  23  24
ENDBRANCH  22  23
ENDBRANCH  21  22
ENDBRANCH   2  21
TORSDOF 14
ENDMDL
MODEL 7
REMARK VINA RESULT:      -6.8      4.346      8.485
REMARK  14 active torsions:
REMARK  status: ('A' for Active; 'I' for Inactive)
REMARK    1  A    between atoms: C_2  and  C_3 
REMARK    2  A    between atoms: C_3  and  C_4 
REMARK    3  A    between atoms: C_4  and  C_5 
REMARK    4  A    between atoms: C_5  and  C_6 
REMARK    5  A    between atoms: C_6  and  C_7 
REMARK    6  A    between atoms: C_6  and  O_33 
REMARK    7  A    between atoms: C_10  and  N_13 
REMARK    8  A    between atoms: C_14  and  C_19 
REMARK    9  A    between atoms: C_19  and  O_20 
REMARK   10  A    between atoms: O_20  and  C_21 
REMARK   11  A    between atoms: C_21  and  C_22 
REMARK   12  A    between atoms: C_25  and  C_27 
REMARK   13  A    between atoms: C_27  and  O_29 
REMARK   14  A    between atoms: O_29  and  C_30 
ROOT
HETATM    1  N   UNK N   1      23.358  12.618  10.203  0.00  0.00    -0.311 N 
HETATM    2  C   UNK N   1      21.918  12.704  10.007  0.00  0.00     0.117 A 
HETATM    3  C   UNK N   1      21.312  12.245  11.336  0.00  0.00     0.037 A 
HETATM    4  C   UNK N   1      22.482  11.876  12.266  0.00  0.00     0.105 A 
HETATM    5  C   UNK N   1      23.652  12.100  11.398  0.00  0.00     0.224 A 
HETATM    6  O   UNK N   1      24.790  11.753  11.705  0.00  0.00    -0.273 OA
ENDROOT
BRANCH   1   7
HETATM    7  C   UNK N   1      24.193  12.568   9.071  0.00  0.00     0.037 C 
HETATM    8  C   UNK N   1      25.151  13.583   8.967  0.00  0.00     0.030 C 
HETATM    9  C   UNK N   1      25.276  14.323   7.795  0.00  0.00     0.012 C 
HETATM   10  C   UNK N   1      24.453  14.032   6.704  0.00  0.00    -0.029 C 
HETATM   11  C   UNK N   1      23.649  12.894   6.734  0.00  0.00     0.012 C 
HETATM   12  C   UNK N   1      23.529  12.165   7.906  0.00  0.00     0.030 C 
BRANCH  10  13
HETATM   13  C   UNK N   1      24.222  15.054   5.627  0.00  0.00     0.151 C 
BRANCH  13  14
HETATM   14  C   UNK N   1      24.977  14.811   4.343  0.00  0.00     0.036 C 
BRANCH  14  15
HETATM   15  C   UNK N   1      24.097  15.076   3.136  0.00  0.00     0.003 C 
BRANCH  15  16
HETATM   16  C   UNK N   1      24.283  13.960   2.130  0.00  0.00    -0.000 C 
BRANCH  16  17
HETATM   17  C   UNK N   1      23.348  14.181   0.959  0.00  0.00    -0.005 C 
HETATM   18  C   UNK N   1      23.538  13.080  -0.057  0.00  0.00     0.005 C 
ENDBRANCH  16  17
ENDBRANCH  15  16
ENDBRANCH  14  15
ENDBRANCH  13  14
BRANCH  13  19
HETATM   19  O   UNK N   1      24.448  16.354   6.087  0.00  0.00    -0.391 OA
HETATM   20  H   UNK N   1      24.620  16.517   7.028  0.00  0.00     0.210 HD
ENDBRANCH  13  19
ENDBRANCH  10  13
ENDBRANCH   1   7
BRANCH   2  21
HETATM   21  C   UNK N   1      21.305  14.068   9.645  0.00  0.00     0.193 C 
BRANCH  21  22
HETATM   22  O   UNK N   1      19.995  14.101   9.137  0.00  0.00    -0.384 OA
BRANCH  22  23
HETATM   23  C   UNK N   1      19.616  15.438   8.842  0.00  0.00     0.213 C 
BRANCH  23  24
HETATM   24  C   UNK N   1      20.070  15.978   7.516  0.00  0.00     0.007 A 
HETATM   25  C   UNK N   1      20.139  15.284   6.307  0.00  0.00     0.018 A 
HETATM   26  C   UNK N   1      20.717  16.066   5.264  0.00  0.00     0.026 A 
HETATM   27  C   UNK N   1      21.074  17.355   5.679  0.00  0.00     0.080 A 
HETATM   28  S   UNK N   1      20.699  17.490   7.266  0.00  0.00    -0.086 SA
BRANCH  27  29
HETATM   29  C   UNK N   1      21.775  18.357   4.885  0.00  0.00     0.300 C 
HETATM   30  O   UNK N   1      22.967  18.236   4.638  0.00  0.00    -0.259 OA
BRANCH  29  31
HETATM   31  O   UNK N   1      21.050  19.318   4.285  0.00  0.00    -0.312 OA
BRANCH  31  32
HETATM   32  C   UNK N   1      20.843  19.348   2.936  0.00  0.00     0.124 C 
HETATM   33  C   UNK N   1      20.951  20.792   2.484  0.00  0.00     0.040 C 
HETATM   34  C   UNK N   1      19.446  18.847   2.642  0.00  0.00     0.040 C 
ENDBRANCH  31  32
ENDBRANCH  29  31
ENDBRANCH  27  29
ENDBRANCH  23  24
ENDBRANCH  22  23
ENDBRANCH  21  22
ENDBRANCH   2  21
TORSDOF 14
ENDMDL
MODEL 8
REMARK VINA RESULT:      -6.7     13.884     16.265
REMARK  14 active torsions:
REMARK  status: ('A' for Active; 'I' for Inactive)
REMARK    1  A    between atoms: C_2  and  C_3 
REMARK    2  A    between atoms: C_3  and  C_4 
REMARK    3  A    between atoms: C_4  and  C_5 
REMARK    4  A    between atoms: C_5  and  C_6 
REMARK    5  A    between atoms: C_6  and  C_7 
REMARK    6  A    between atoms: C_6  and  O_33 
REMARK    7  A    between atoms: C_10  and  N_13 
REMARK    8  A    between atoms: C_14  and  C_19 
REMARK    9  A    between atoms: C_19  and  O_20 
REMARK   10  A    between atoms: O_20  and  C_21 
REMARK   11  A    between atoms: C_21  and  C_22 
REMARK   12  A    between atoms: C_25  and  C_27 
REMARK   13  A    between atoms: C_27  and  O_29 
REMARK   14  A    between atoms: O_29  and  C_30 
ROOT
HETATM    1  N   UNK N   1      26.988  28.270  -4.646  0.00  0.00    -0.311 N 
HETATM    2  C   UNK N   1      27.663  28.320  -5.934  0.00  0.00     0.117 A 
HETATM    3  C   UNK N   1      28.148  29.765  -6.070  0.00  0.00     0.037 A 
HETATM    4  C   UNK N   1      27.685  30.519  -4.809  0.00  0.00     0.105 A 
HETATM    5  C   UNK N   1      26.939  29.479  -4.080  0.00  0.00     0.224 A 
HETATM    6  O   UNK N   1      26.252  29.717  -3.090  0.00  0.00    -0.273 OA
ENDROOT
BRANCH   1   7
HETATM    7  C   UNK N   1      26.081  27.223  -4.397  0.00  0.00     0.037 C 
HETATM    8  C   UNK N   1      26.539  26.196  -3.564  0.00  0.00     0.030 C 
HETATM    9  C   UNK N   1      26.432  24.865  -3.954  0.00  0.00     0.012 C 
HETATM   10  C   UNK N   1      25.839  24.550  -5.180  0.00  0.00    -0.029 C 
HETATM   11  C   UNK N   1      25.199  25.550  -5.910  0.00  0.00     0.012 C 
HETATM   12  C   UNK N   1      25.314  26.873  -5.515  0.00  0.00     0.030 C 
BRANCH  10  13
HETATM   13  C   UNK N   1      26.109  23.229  -5.843  0.00  0.00     0.151 C 
BRANCH  13  14
HETATM   14  C   UNK N   1      27.247  23.234  -6.835  0.00  0.00     0.036 C 
BRANCH  14  15
HETATM   15  C   UNK N   1      26.780  22.769  -8.201  0.00  0.00     0.003 C 
BRANCH  15  16
HETATM   16  C   UNK N   1      26.897  23.916  -9.184  0.00  0.00    -0.000 C 
BRANCH  16  17
HETATM   17  C   UNK N   1      25.521  24.493  -9.446  0.00  0.00    -0.005 C 
HETATM   18  C   UNK N   1      25.620  25.991  -9.602  0.00  0.00     0.005 C 
ENDBRANCH  16  17
ENDBRANCH  15  16
ENDBRANCH  14  15
ENDBRANCH  13  14
BRANCH  13  19
HETATM   19  O   UNK N   1      24.958  22.694  -6.425  0.00  0.00    -0.391 OA
HETATM   20  H   UNK N   1      24.970  22.389  -7.346  0.00  0.00     0.210 HD
ENDBRANCH  13  19
ENDBRANCH  10  13
ENDBRANCH   1   7
BRANCH   2  21
HETATM   21  C   UNK N   1      28.865  27.387  -6.171  0.00  0.00     0.193 C 
BRANCH  21  22
HETATM   22  O   UNK N   1      29.524  26.845  -5.054  0.00  0.00    -0.384 OA
BRANCH  22  23
HETATM   23  C   UNK N   1      30.587  26.002  -5.473  0.00  0.00     0.213 C 
BRANCH  23  24
HETATM   24  C   UNK N   1      30.464  24.549  -5.108  0.00  0.00     0.007 A 
HETATM   25  C   UNK N   1      29.961  24.024  -3.918  0.00  0.00     0.018 A 
HETATM   26  C   UNK N   1      30.087  22.605  -3.854  0.00  0.00     0.026 A 
HETATM   27  C   UNK N   1      30.674  22.056  -4.999  0.00  0.00     0.080 A 
HETATM   28  S   UNK N   1      31.026  23.286  -6.019  0.00  0.00    -0.086 SA
BRANCH  27  29
HETATM   29  C   UNK N   1      31.032  20.656  -5.202  0.00  0.00     0.300 C 
HETATM   30  O   UNK N   1      30.752  20.085  -6.246  0.00  0.00    -0.259 OA
BRANCH  29  31
HETATM   31  O   UNK N   1      31.827  20.063  -4.294  0.00  0.00    -0.312 OA
BRANCH  31  32
HETATM   32  C   UNK N   1      33.174  20.279  -4.243  0.00  0.00     0.124 C 
HETATM   33  C   UNK N   1      33.863  18.931  -4.339  0.00  0.00     0.040 C 
HETATM   34  C   UNK N   1      33.519  20.911  -2.913  0.00  0.00     0.040 C 
ENDBRANCH  31  32
ENDBRANCH  29  31
ENDBRANCH  27  29
ENDBRANCH  23  24
ENDBRANCH  22  23
ENDBRANCH  21  22
ENDBRANCH   2  21
TORSDOF 14
ENDMDL
MODEL 9
REMARK VINA RESULT:      -6.7      5.558      9.788
REMARK  14 active torsions:
REMARK  status: ('A' for Active; 'I' for Inactive)
REMARK    1  A    between atoms: C_2  and  C_3 
REMARK    2  A    between atoms: C_3  and  C_4 
REMARK    3  A    between atoms: C_4  and  C_5 
REMARK    4  A    between atoms: C_5  and  C_6 
REMARK    5  A    between atoms: C_6  and  C_7 
REMARK    6  A    between atoms: C_6  and  O_33 
REMARK    7  A    between atoms: C_10  and  N_13 
REMARK    8  A    between atoms: C_14  and  C_19 
REMARK    9  A    between atoms: C_19  and  O_20 
REMARK   10  A    between atoms: O_20  and  C_21 
REMARK   11  A    between atoms: C_21  and  C_22 
REMARK   12  A    between atoms: C_25  and  C_27 
REMARK   13  A    between atoms: C_27  and  O_29 
REMARK   14  A    between atoms: O_29  and  C_30 
ROOT
HETATM    1  N   UNK N   1      31.777  16.645   6.210  0.00  0.00    -0.311 N 
HETATM    2  C   UNK N   1      32.756  16.275   5.199  0.00  0.00     0.117 A 
HETATM    3  C   UNK N   1      34.070  16.899   5.674  0.00  0.00     0.037 A 
HETATM    4  C   UNK N   1      33.767  17.656   6.981  0.00  0.00     0.105 A 
HETATM    5  C   UNK N   1      32.315  17.453   7.129  0.00  0.00     0.224 A 
HETATM    6  O   UNK N   1      31.637  18.047   7.963  0.00  0.00    -0.273 OA
ENDROOT
BRANCH   1   7
HETATM    7  C   UNK N   1      30.409  16.592   5.881  0.00  0.00     0.037 C 
HETATM    8  C   UNK N   1      29.985  17.464   4.873  0.00  0.00     0.030 C 
HETATM    9  C   UNK N   1      28.885  18.294   5.070  0.00  0.00     0.012 C 
HETATM   10  C   UNK N   1      28.186  18.237   6.279  0.00  0.00    -0.029 C 
HETATM   11  C   UNK N   1      28.479  17.230   7.196  0.00  0.00     0.012 C 
HETATM   12  C   UNK N   1      29.577  16.410   6.992  0.00  0.00     0.030 C 
BRANCH  10  13
HETATM   13  C   UNK N   1      27.323  19.388   6.717  0.00  0.00     0.151 C 
BRANCH  13  14
HETATM   14  C   UNK N   1      27.598  20.695   6.014  0.00  0.00     0.036 C 
BRANCH  14  15
HETATM   15  C   UNK N   1      26.624  20.912   4.871  0.00  0.00     0.003 C 
BRANCH  15  16
HETATM   16  C   UNK N   1      25.452  19.967   5.031  0.00  0.00    -0.000 C 
BRANCH  16  17
HETATM   17  C   UNK N   1      24.878  19.647   3.665  0.00  0.00    -0.005 C 
HETATM   18  C   UNK N   1      25.505  20.548   2.628  0.00  0.00     0.005 C 
ENDBRANCH  16  17
ENDBRANCH  15  16
ENDBRANCH  14  15
ENDBRANCH  13  14
BRANCH  13  19
HETATM   19  O   UNK N   1      27.355  19.563   8.103  0.00  0.00    -0.391 OA
HETATM   20  H   UNK N   1      28.014  20.150   8.507  0.00  0.00     0.210 HD
ENDBRANCH  13  19
ENDBRANCH  10  13
ENDBRANCH   1   7
BRANCH   2  21
HETATM   21  C   UNK N   1      33.005  14.780   4.930  0.00  0.00     0.193 C 
BRANCH  21  22
HETATM   22  O   UNK N   1      32.397  13.835   5.774  0.00  0.00    -0.384 OA
BRANCH  22  23
HETATM   23  C   UNK N   1      33.367  13.240   6.623  0.00  0.00     0.213 C 
BRANCH  23  24
HETATM   24  C   UNK N   1      33.662  13.967   7.905  0.00  0.00     0.007 A 
HETATM   25  C   UNK N   1      32.739  14.374   8.869  0.00  0.00     0.018 A 
HETATM   26  C   UNK N   1      33.343  15.135   9.913  0.00  0.00     0.026 A 
HETATM   27  C   UNK N   1      34.724  15.293   9.746  0.00  0.00     0.080 A 
HETATM   28  S   UNK N   1      35.149  14.534   8.360  0.00  0.00    -0.086 SA
BRANCH  27  29
HETATM   29  C   UNK N   1      35.610  16.098  10.579  0.00  0.00     0.300 C 
HETATM   30  O   UNK N   1      35.648  17.314  10.456  0.00  0.00    -0.259 OA
BRANCH  29  31
HETATM   31  O   UNK N   1      36.248  15.496  11.599  0.00  0.00    -0.312 OA
BRANCH  31  32
HETATM   32  C   UNK N   1      36.015  14.197  11.948  0.00  0.00     0.124 C 
HETATM   33  C   UNK N   1      35.892  14.140  13.458  0.00  0.00     0.040 C 
HETATM   34  C   UNK N   1      37.198  13.356  11.522  0.00  0.00     0.040 C 
ENDBRANCH  31  32
ENDBRANCH  29  31
ENDBRANCH  27  29
ENDBRANCH  23  24
ENDBRANCH  22  23
ENDBRANCH  21  22
ENDBRANCH   2  21
TORSDOF 14
ENDMDL
