MODEL 1
REMARK VINA RESULT:      -5.8      0.000      0.000
REMARK  4 active torsions:
REMARK  status: ('A' for Active; 'I' for Inactive)
REMARK    1  A    between atoms: N_11  and  C_7 
REMARK    2  A    between atoms: N_13  and  C_8 
REMARK    3  A    between atoms: N_11  and  N_9 
REMARK    4  A    between atoms: N_13  and  N_10 
ROOT
HETATM    1  C   UNK N   1      34.952   9.457  18.220  0.00  0.00     0.001 A 
HETATM    2  C   UNK N   1      35.236   9.542  16.858  0.00  0.00     0.001 A 
HETATM    3  C   UNK N   1      34.919  10.613  19.002  0.00  0.00     0.016 A 
HETATM    4  C   UNK N   1      35.486  10.783  16.276  0.00  0.00     0.016 A 
HETATM    5  C   UNK N   1      35.168  11.878  18.438  0.00  0.00     0.025 A 
HETATM    6  C   UNK N   1      35.455  11.955  17.053  0.00  0.00     0.025 A 
HETATM    7  C   UNK N   1      35.145  13.086  19.196  0.00  0.00     0.145 A 
HETATM    8  C   UNK N   1      35.706  13.204  16.471  0.00  0.00     0.145 A 
HETATM    9  N   UNK N   1      35.399  14.257  18.554  0.00  0.00    -0.282 N 
HETATM   10  N   UNK N   1      35.668  14.318  17.250  0.00  0.00    -0.282 N 
HETATM   11  H   UNK N   1      35.385  15.094  19.073  0.00  0.00     0.188 HD
HETATM   12  H   UNK N   1      35.845  15.195  16.838  0.00  0.00     0.188 HD
ENDROOT
BRANCH   7  13
HETATM   13  N   UNK N   1      34.895  13.140  20.465  0.00  0.00    -0.290 N 
ATOM     14  HN  UNK N   1      35.265  12.395  21.057  1.00  0.00     0.188 HD
BRANCH  13  15
HETATM   15  N   UNK N   1      34.164  14.136  21.065  0.00  0.00    -0.344 N 
HETATM   16  H   UNK N   1      33.217  14.263  20.826  0.00  0.00     0.176 HD
HETATM   17  H   UNK N   1      34.585  14.722  21.733  0.00  0.00     0.176 HD
ENDBRANCH  13  15
ENDBRANCH   7  13
BRANCH   8  18
HETATM   18  N   UNK N   1      35.969  13.299  15.214  0.00  0.00    -0.290 N 
ATOM     19  HN  UNK N   1      35.247  13.063  14.534  1.00  0.00     0.188 HD
BRANCH  18  20
HETATM   20  N   UNK N   1      37.202  13.709  14.771  0.00  0.00    -0.344 N 
HETATM   21  H   UNK N   1      37.337  14.642  14.484  0.00  0.00     0.176 HD
HETATM   22  H   UNK N   1      37.952  13.072  14.740  0.00  0.00     0.176 HD
ENDBRANCH  18  20
ENDBRANCH   8  18
TORSDOF 4
ENDMDL
MODEL 2
REMARK VINA RESULT:      -5.7      0.220      3.756
REMARK  4 active torsions:
REMARK  status: ('A' for Active; 'I' for Inactive)
REMARK    1  A    between atoms: N_11  and  C_7 
REMARK    2  A    between atoms: N_13  and  C_8 
REMARK    3  A    between atoms: N_11  and  N_9 
REMARK    4  A    between atoms: N_13  and  N_10 
ROOT
HETATM    1  C   UNK N   1      35.231   9.513  16.786  0.00  0.00     0.001 A 
HETATM    2  C   UNK N   1      35.036   9.449  18.164  0.00  0.00     0.001 A 
HETATM    3  C   UNK N   1      35.432  10.747  16.163  0.00  0.00     0.016 A 
HETATM    4  C   UNK N   1      35.042  10.619  18.922  0.00  0.00     0.016 A 
HETATM    5  C   UNK N   1      35.443  11.942  16.907  0.00  0.00     0.025 A 
HETATM    6  C   UNK N   1      35.244  11.867  18.307  0.00  0.00     0.025 A 
HETATM    7  C   UNK N   1      35.644  13.224  16.316  0.00  0.00     0.145 A 
HETATM    8  C   UNK N   1      35.250  13.045  19.066  0.00  0.00     0.145 A 
HETATM    9  N   UNK N   1      35.636  14.317  17.124  0.00  0.00    -0.282 N 
HETATM   10  N   UNK N   1      35.448  14.235  18.441  0.00  0.00    -0.282 N 
HETATM   11  H   UNK N   1      35.775  15.205  16.721  0.00  0.00     0.188 HD
HETATM   12  H   UNK N   1      35.452  15.061  18.977  0.00  0.00     0.188 HD
ENDROOT
BRANCH   7  13
HETATM   13  N   UNK N   1      35.836  13.416  15.049  0.00  0.00    -0.290 N 
ATOM     14  HN  UNK N   1      35.147  13.037  14.399  1.00  0.00     0.188 HD
BRANCH  13  15
HETATM   15  N   UNK N   1      36.907  14.097  14.527  0.00  0.00    -0.344 N 
HETATM   16  H   UNK N   1      36.800  14.628  13.704  0.00  0.00     0.176 HD
HETATM   17  H   UNK N   1      37.782  14.056  14.974  0.00  0.00     0.176 HD
ENDBRANCH  13  15
ENDBRANCH   7  13
BRANCH   8  18
HETATM   18  N   UNK N   1      35.071  13.001  20.341  0.00  0.00    -0.290 N 
ATOM     19  HN  UNK N   1      35.524  12.265  20.883  1.00  0.00     0.188 HD
BRANCH  18  20
HETATM   20  N   UNK N   1      34.285  13.925  20.984  0.00  0.00    -0.344 N 
HETATM   21  H   UNK N   1      34.131  14.809  20.578  0.00  0.00     0.176 HD
HETATM   22  H   UNK N   1      33.875  13.704  21.852  0.00  0.00     0.176 HD
ENDBRANCH  18  20
ENDBRANCH   8  18
TORSDOF 4
ENDMDL
MODEL 3
REMARK VINA RESULT:      -5.5      3.077      4.336
REMARK  4 active torsions:
REMARK  status: ('A' for Active; 'I' for Inactive)
REMARK    1  A    between atoms: N_11  and  C_7 
REMARK    2  A    between atoms: N_13  and  C_8 
REMARK    3  A    between atoms: N_11  and  N_9 
REMARK    4  A    between atoms: N_13  and  N_10 
ROOT
HETATM    1  C   UNK N   1      34.922  11.230  16.246  0.00  0.00     0.001 A 
HETATM    2  C   UNK N   1      34.193  10.769  15.151  0.00  0.00     0.001 A 
HETATM    3  C   UNK N   1      35.738  12.356  16.120  0.00  0.00     0.016 A 
HETATM    4  C   UNK N   1      34.281  11.433  13.928  0.00  0.00     0.016 A 
HETATM    5  C   UNK N   1      35.843  13.043  14.896  0.00  0.00     0.025 A 
HETATM    6  C   UNK N   1      35.099  12.567  13.789  0.00  0.00     0.025 A 
HETATM    7  C   UNK N   1      36.664  14.196  14.719  0.00  0.00     0.145 A 
HETATM    8  C   UNK N   1      35.189  13.236  12.561  0.00  0.00     0.145 A 
HETATM    9  N   UNK N   1      36.695  14.787  13.494  0.00  0.00    -0.282 N 
HETATM   10  N   UNK N   1      35.990  14.330  12.460  0.00  0.00    -0.282 N 
HETATM   11  H   UNK N   1      37.260  15.583  13.368  0.00  0.00     0.188 HD
HETATM   12  H   UNK N   1      36.051  14.798  11.595  0.00  0.00     0.188 HD
ENDROOT
BRANCH   7  13
HETATM   13  N   UNK N   1      37.387  14.721  15.656  0.00  0.00    -0.290 N 
ATOM     14  HN  UNK N   1      37.955  14.096  16.229  1.00  0.00     0.188 HD
BRANCH  13  15
HETATM   15  N   UNK N   1      37.438  16.066  15.928  0.00  0.00    -0.344 N 
HETATM   16  H   UNK N   1      37.450  16.380  16.861  0.00  0.00     0.176 HD
HETATM   17  H   UNK N   1      37.462  16.717  15.190  0.00  0.00     0.176 HD
ENDBRANCH  13  15
ENDBRANCH   7  13
BRANCH   8  18
HETATM   18  N   UNK N   1      34.522  12.822  11.541  0.00  0.00    -0.290 N 
ATOM     19  HN  UNK N   1      34.432  11.819  11.377  1.00  0.00     0.188 HD
BRANCH  18  20
HETATM   20  N   UNK N   1      33.929  13.702  10.669  0.00  0.00    -0.344 N 
HETATM   21  H   UNK N   1      32.948  13.731  10.590  0.00  0.00     0.176 HD
HETATM   22  H   UNK N   1      34.485  14.304  10.123  0.00  0.00     0.176 HD
ENDBRANCH  18  20
ENDBRANCH   8  18
TORSDOF 4
ENDMDL
MODEL 4
REMARK VINA RESULT:      -5.5     13.981     14.968
REMARK  4 active torsions:
REMARK  status: ('A' for Active; 'I' for Inactive)
REMARK    1  A    between atoms: N_11  and  C_7 
REMARK    2  A    between atoms: N_13  and  C_8 
REMARK    3  A    between atoms: N_11  and  N_9 
REMARK    4  A    between atoms: N_13  and  N_10 
ROOT
HETATM    1  C   UNK N   1      20.818  13.785   8.873  0.00  0.00     0.001 A 
HETATM    2  C   UNK N   1      20.362  13.239  10.071  0.00  0.00     0.001 A 
HETATM    3  C   UNK N   1      22.184  13.795   8.582  0.00  0.00     0.016 A 
HETATM    4  C   UNK N   1      21.272  12.702  10.980  0.00  0.00     0.016 A 
HETATM    5  C   UNK N   1      23.122  13.258   9.484  0.00  0.00     0.025 A 
HETATM    6  C   UNK N   1      22.649  12.705  10.699  0.00  0.00     0.025 A 
HETATM    7  C   UNK N   1      24.526  13.245   9.231  0.00  0.00     0.145 A 
HETATM    8  C   UNK N   1      23.566  12.166  11.611  0.00  0.00     0.145 A 
HETATM    9  N   UNK N   1      25.347  12.703  10.170  0.00  0.00    -0.282 N 
HETATM   10  N   UNK N   1      24.890  12.185  11.310  0.00  0.00    -0.282 N 
HETATM   11  H   UNK N   1      26.316  12.691   9.999  0.00  0.00     0.188 HD
HETATM   12  H   UNK N   1      25.533  11.805  11.953  0.00  0.00     0.188 HD
ENDROOT
BRANCH   7  13
HETATM   13  N   UNK N   1      25.073  13.721   8.158  0.00  0.00    -0.290 N 
ATOM     14  HN  UNK N   1      25.343  14.705   8.156  1.00  0.00     0.188 HD
BRANCH  13  15
HETATM   15  N   UNK N   1      25.312  12.985   7.025  0.00  0.00    -0.344 N 
HETATM   16  H   UNK N   1      25.706  13.415   6.232  0.00  0.00     0.176 HD
HETATM   17  H   UNK N   1      25.088  12.027   7.003  0.00  0.00     0.176 HD
ENDBRANCH  13  15
ENDBRANCH   7  13
BRANCH   8  18
HETATM   18  N   UNK N   1      23.159  11.658  12.723  0.00  0.00    -0.290 N 
ATOM     19  HN  UNK N   1      22.585  10.815  12.706  1.00  0.00     0.188 HD
BRANCH  18  20
HETATM   20  N   UNK N   1      23.482  12.227  13.930  0.00  0.00    -0.344 N 
HETATM   21  H   UNK N   1      23.845  13.142  13.961  0.00  0.00     0.176 HD
HETATM   22  H   UNK N   1      23.351  11.721  14.765  0.00  0.00     0.176 HD
ENDBRANCH  18  20
ENDBRANCH   8  18
TORSDOF 4
ENDMDL
MODEL 5
REMARK VINA RESULT:      -5.5      3.055      5.149
REMARK  4 active torsions:
REMARK  status: ('A' for Active; 'I' for Inactive)
REMARK    1  A    between atoms: N_11  and  C_7 
REMARK    2  A    between atoms: N_13  and  C_8 
REMARK    3  A    between atoms: N_11  and  N_9 
REMARK    4  A    between atoms: N_13  and  N_10 
ROOT
HETATM    1  C   UNK N   1      34.193  10.854  15.399  0.00  0.00     0.001 A 
HETATM    2  C   UNK N   1      34.981  11.365  16.428  0.00  0.00     0.001 A 
HETATM    3  C   UNK N   1      34.225  11.442  14.133  0.00  0.00     0.016 A 
HETATM    4  C   UNK N   1      35.802  12.467  16.193  0.00  0.00     0.016 A 
HETATM    5  C   UNK N   1      35.046  12.556  13.871  0.00  0.00     0.025 A 
HETATM    6  C   UNK N   1      35.843  13.068  14.923  0.00  0.00     0.025 A 
HETATM    7  C   UNK N   1      35.112  13.190  12.595  0.00  0.00     0.145 A 
HETATM    8  C   UNK N   1      36.667  14.176  14.683  0.00  0.00     0.145 A 
HETATM    9  N   UNK N   1      35.938  14.260  12.447  0.00  0.00    -0.282 N 
HETATM   10  N   UNK N   1      36.684  14.734  13.444  0.00  0.00    -0.282 N 
HETATM   11  H   UNK N   1      35.986  14.701  11.569  0.00  0.00     0.188 HD
HETATM   12  H   UNK N   1      37.264  15.513  13.279  0.00  0.00     0.188 HD
ENDROOT
BRANCH   7  13
HETATM   13  N   UNK N   1      34.430  12.811  11.561  0.00  0.00    -0.290 N 
ATOM     14  HN  UNK N   1      34.232  11.815  11.459  1.00  0.00     0.188 HD
BRANCH  13  15
HETATM   15  N   UNK N   1      33.959  13.664  10.594  0.00  0.00    -0.344 N 
HETATM   16  H   UNK N   1      34.369  14.552  10.479  0.00  0.00     0.176 HD
HETATM   17  H   UNK N   1      33.212  13.388  10.016  0.00  0.00     0.176 HD
ENDBRANCH  13  15
ENDBRANCH   7  13
BRANCH   8  18
HETATM   18  N   UNK N   1      37.401  14.660  15.625  0.00  0.00    -0.290 N 
ATOM     19  HN  UNK N   1      37.951  14.026  16.204  1.00  0.00     0.188 HD
BRANCH  18  20
HETATM   20  N   UNK N   1      37.458  16.011  15.863  0.00  0.00    -0.344 N 
HETATM   21  H   UNK N   1      38.238  16.397  16.324  0.00  0.00     0.176 HD
HETATM   22  H   UNK N   1      36.719  16.594  15.573  0.00  0.00     0.176 HD
ENDBRANCH  18  20
ENDBRANCH   8  18
TORSDOF 4
ENDMDL
MODEL 6
REMARK VINA RESULT:      -5.5      2.261      3.270
REMARK  4 active torsions:
REMARK  status: ('A' for Active; 'I' for Inactive)
REMARK    1  A    between atoms: N_11  and  C_7 
REMARK    2  A    between atoms: N_13  and  C_8 
REMARK    3  A    between atoms: N_11  and  N_9 
REMARK    4  A    between atoms: N_13  and  N_10 
ROOT
HETATM    1  C   UNK N   1      33.761  10.647  14.415  0.00  0.00     0.001 A 
HETATM    2  C   UNK N   1      34.199  10.911  13.119  0.00  0.00     0.001 A 
HETATM    3  C   UNK N   1      34.222  11.421  15.481  0.00  0.00     0.016 A 
HETATM    4  C   UNK N   1      35.099  11.950  12.887  0.00  0.00     0.016 A 
HETATM    5  C   UNK N   1      35.132  12.475  15.273  0.00  0.00     0.025 A 
HETATM    6  C   UNK N   1      35.571  12.736  13.952  0.00  0.00     0.025 A 
HETATM    7  C   UNK N   1      35.630  13.293  16.330  0.00  0.00     0.145 A 
HETATM    8  C   UNK N   1      36.476  13.781  13.723  0.00  0.00     0.145 A 
HETATM    9  N   UNK N   1      36.506  14.286  16.021  0.00  0.00    -0.282 N 
HETATM   10  N   UNK N   1      36.913  14.523  14.775  0.00  0.00    -0.282 N 
HETATM   11  H   UNK N   1      36.853  14.853  16.748  0.00  0.00     0.188 HD
HETATM   12  H   UNK N   1      37.549  15.257  14.610  0.00  0.00     0.188 HD
ENDROOT
BRANCH   7  13
HETATM   13  N   UNK N   1      35.301  13.149  17.574  0.00  0.00    -0.290 N 
ATOM     14  HN  UNK N   1      35.011  12.222  17.888  1.00  0.00     0.188 HD
BRANCH  13  15
HETATM   15  N   UNK N   1      35.316  14.165  18.498  0.00  0.00    -0.344 N 
HETATM   16  H   UNK N   1      35.777  15.011  18.292  0.00  0.00     0.176 HD
HETATM   17  H   UNK N   1      34.868  14.049  19.365  0.00  0.00     0.176 HD
ENDBRANCH  13  15
ENDBRANCH   7  13
BRANCH   8  18
HETATM   18  N   UNK N   1      36.889  14.037  12.530  0.00  0.00    -0.290 N 
ATOM     19  HN  UNK N   1      37.482  13.359  12.052  1.00  0.00     0.188 HD
BRANCH  18  20
HETATM   20  N   UNK N   1      36.549  15.203  11.891  0.00  0.00    -0.344 N 
HETATM   21  H   UNK N   1      36.227  15.974  12.411  0.00  0.00     0.176 HD
HETATM   22  H   UNK N   1      36.627  15.269  10.911  0.00  0.00     0.176 HD
ENDBRANCH  18  20
ENDBRANCH   8  18
TORSDOF 4
ENDMDL
MODEL 7
REMARK VINA RESULT:      -5.5      2.243      4.910
REMARK  4 active torsions:
REMARK  status: ('A' for Active; 'I' for Inactive)
REMARK    1  A    between atoms: N_11  and  C_7 
REMARK    2  A    between atoms: N_13  and  C_8 
REMARK    3  A    between atoms: N_11  and  N_9 
REMARK    4  A    between atoms: N_13  and  N_10 
ROOT
HETATM    1  C   UNK N   1      34.103  10.835  13.256  0.00  0.00     0.001 A 
HETATM    2  C   UNK N   1      33.694  10.643  14.574  0.00  0.00     0.001 A 
HETATM    3  C   UNK N   1      35.018  11.842  12.946  0.00  0.00     0.016 A 
HETATM    4  C   UNK N   1      34.200  11.459  15.585  0.00  0.00     0.016 A 
HETATM    5  C   UNK N   1      35.544  12.679  13.949  0.00  0.00     0.025 A 
HETATM    6  C   UNK N   1      35.122  12.476  15.286  0.00  0.00     0.025 A 
HETATM    7  C   UNK N   1      36.480  13.721  13.681  0.00  0.00     0.145 A 
HETATM    8  C   UNK N   1      35.633  13.298  16.299  0.00  0.00     0.145 A 
HETATM    9  N   UNK N   1      36.927  14.473  14.722  0.00  0.00    -0.282 N 
HETATM   10  N   UNK N   1      36.523  14.273  15.977  0.00  0.00    -0.282 N 
HETATM   11  H   UNK N   1      37.573  15.193  14.542  0.00  0.00     0.188 HD
HETATM   12  H   UNK N   1      36.881  14.849  16.691  0.00  0.00     0.188 HD
ENDROOT
BRANCH   7  13
HETATM   13  N   UNK N   1      36.937  13.999  12.501  0.00  0.00    -0.290 N 
ATOM     14  HN  UNK N   1      37.560  13.323  12.058  1.00  0.00     0.188 HD
BRANCH  13  15
HETATM   15  N   UNK N   1      36.635  15.146  11.810  0.00  0.00    -0.344 N 
HETATM   16  H   UNK N   1      35.696  15.377  11.624  0.00  0.00     0.176 HD
HETATM   17  H   UNK N   1      37.357  15.738  11.499  0.00  0.00     0.176 HD
ENDBRANCH  13  15
ENDBRANCH   7  13
BRANCH   8  18
HETATM   18  N   UNK N   1      35.264  13.133  17.522  0.00  0.00    -0.290 N 
ATOM     19  HN  UNK N   1      34.928  12.218  17.823  1.00  0.00     0.188 HD
BRANCH  18  20
HETATM   20  N   UNK N   1      35.314  14.162  18.429  0.00  0.00    -0.344 N 
HETATM   21  H   UNK N   1      35.127  13.991  19.380  0.00  0.00     0.176 HD
HETATM   22  H   UNK N   1      35.538  15.073  18.128  0.00  0.00     0.176 HD
ENDBRANCH  18  20
ENDBRANCH   8  18
TORSDOF 4
ENDMDL
MODEL 8
REMARK VINA RESULT:      -5.5     12.206     13.652
REMARK  4 active torsions:
REMARK  status: ('A' for Active; 'I' for Inactive)
REMARK    1  A    between atoms: N_11  and  C_7 
REMARK    2  A    between atoms: N_13  and  C_8 
REMARK    3  A    between atoms: N_11  and  N_9 
REMARK    4  A    between atoms: N_13  and  N_10 
ROOT
HETATM    1  C   UNK N   1      30.801  16.711   5.567  0.00  0.00     0.001 A 
HETATM    2  C   UNK N   1      29.931  17.433   4.752  0.00  0.00     0.001 A 
HETATM    3  C   UNK N   1      30.655  16.750   6.955  0.00  0.00     0.016 A 
HETATM    4  C   UNK N   1      28.914  18.196   5.324  0.00  0.00     0.016 A 
HETATM    5  C   UNK N   1      29.636  17.512   7.557  0.00  0.00     0.025 A 
HETATM    6  C   UNK N   1      28.757  18.243   6.720  0.00  0.00     0.025 A 
HETATM    7  C   UNK N   1      29.448  17.583   8.969  0.00  0.00     0.145 A 
HETATM    8  C   UNK N   1      27.736  19.008   7.299  0.00  0.00     0.145 A 
HETATM    9  N   UNK N   1      28.432  18.349   9.448  0.00  0.00    -0.282 N 
HETATM   10  N   UNK N   1      27.611  19.033   8.652  0.00  0.00    -0.282 N 
HETATM   11  H   UNK N   1      28.298  18.401  10.422  0.00  0.00     0.188 HD
HETATM   12  H   UNK N   1      26.891  19.572   9.055  0.00  0.00     0.188 HD
ENDROOT
BRANCH   7  13
HETATM   13  N   UNK N   1      30.187  16.960   9.830  0.00  0.00    -0.290 N 
ATOM     14  HN  UNK N   1      31.184  16.870   9.629  1.00  0.00     0.188 HD
BRANCH  13  15
HETATM   15  N   UNK N   1      29.715  16.413  10.998  0.00  0.00    -0.344 N 
HETATM   16  H   UNK N   1      28.783  16.572  11.275  0.00  0.00     0.176 HD
HETATM   17  H   UNK N   1      30.307  15.861  11.558  0.00  0.00     0.176 HD
ENDBRANCH  13  15
ENDBRANCH   7  13
BRANCH   8  18
HETATM   18  N   UNK N   1      26.924  19.681   6.558  0.00  0.00    -0.290 N 
ATOM     19  HN  UNK N   1      26.823  19.431   5.575  1.00  0.00     0.188 HD
BRANCH  18  20
HETATM   20  N   UNK N   1      26.194  20.727   7.066  0.00  0.00    -0.344 N 
HETATM   21  H   UNK N   1      25.230  20.619   7.233  0.00  0.00     0.176 HD
HETATM   22  H   UNK N   1      26.634  21.586   7.263  0.00  0.00     0.176 HD
ENDBRANCH  18  20
ENDBRANCH   8  18
TORSDOF 4
ENDMDL
MODEL 9
REMARK VINA RESULT:      -5.5     12.151     13.788
REMARK  4 active torsions:
REMARK  status: ('A' for Active; 'I' for Inactive)
REMARK    1  A    between atoms: N_11  and  C_7 
REMARK    2  A    between atoms: N_13  and  C_8 
REMARK    3  A    between atoms: N_11  and  N_9 
REMARK    4  A    between atoms: N_13  and  N_10 
ROOT
HETATM    1  C   UNK N   1      30.102  17.346   4.840  0.00  0.00     0.001 A 
HETATM    2  C   UNK N   1      30.921  16.632   5.712  0.00  0.00     0.001 A 
HETATM    3  C   UNK N   1      29.063  18.134   5.341  0.00  0.00     0.016 A 
HETATM    4  C   UNK N   1      30.703  16.705   7.087  0.00  0.00     0.016 A 
HETATM    5  C   UNK N   1      28.823  18.224   6.725  0.00  0.00     0.025 A 
HETATM    6  C   UNK N   1      29.661  17.494   7.603  0.00  0.00     0.025 A 
HETATM    7  C   UNK N   1      27.775  19.015   7.283  0.00  0.00     0.145 A 
HETATM    8  C   UNK N   1      29.438  17.570   8.985  0.00  0.00     0.145 A 
HETATM    9  N   UNK N   1      27.628  19.033   8.634  0.00  0.00    -0.282 N 
HETATM   10  N   UNK N   1      28.422  18.342   9.452  0.00  0.00    -0.282 N 
HETATM   11  H   UNK N   1      26.906  19.577   9.024  0.00  0.00     0.188 HD
HETATM   12  H   UNK N   1      28.269  18.393  10.424  0.00  0.00     0.188 HD
ENDROOT
BRANCH   7  13
HETATM   13  N   UNK N   1      26.949  19.722   6.580  0.00  0.00    -0.290 N 
ATOM     14  HN  UNK N   1      26.890  19.533   5.579  1.00  0.00     0.188 HD
BRANCH  13  15
HETATM   15  N   UNK N   1      26.147  20.709   7.097  0.00  0.00    -0.344 N 
HETATM   16  H   UNK N   1      25.254  20.486   7.447  0.00  0.00     0.176 HD
HETATM   17  H   UNK N   1      26.464  21.640   7.118  0.00  0.00     0.176 HD
ENDBRANCH  13  15
ENDBRANCH   7  13
BRANCH   8  18
HETATM   18  N   UNK N   1      30.187  16.915   9.804  0.00  0.00    -0.290 N 
ATOM     19  HN  UNK N   1      31.160  16.736   9.556  1.00  0.00     0.188 HD
BRANCH  18  20
HETATM   20  N   UNK N   1      29.703  16.454  11.003  0.00  0.00    -0.344 N 
HETATM   21  H   UNK N   1      30.146  15.702  11.457  0.00  0.00     0.176 HD
HETATM   22  H   UNK N   1      28.911  16.877  11.409  0.00  0.00     0.176 HD
ENDBRANCH  18  20
ENDBRANCH   8  18
TORSDOF 4
ENDMDL
