REMARK  8 active torsions:
REMARK  status: ('A' for Active; 'I' for Inactive)
REMARK    1  A    between atoms: C_3  and  C_2 
REMARK    2  A    between atoms: C_7  and  C_3 
REMARK    3  A    between atoms: O_16  and  C_7 
REMARK    4  A    between atoms: C_9  and  C_8 
REMARK    5  A    between atoms: O_16  and  C_8 
REMARK    6  A    between atoms: O_17  and  C_9 
REMARK    7  A    between atoms: C_12  and  C_11 
REMARK    8  A    between atoms: O_17  and  C_12 
ROOT
HETATM    1  C   UNK N   1      11.269   0.141  -0.000  0.00  0.00     0.294 C 
HETATM    2  O   UNK N   1      11.286   1.360  -0.000  0.00  0.00    -0.259 OA
ENDROOT
BRANCH   1   3
HETATM    3  C   UNK N   1      12.496  -0.648   0.000  0.00  0.00     0.054 A 
HETATM    4  C   UNK N   1      13.759  -0.053   0.000  0.00  0.00     0.020 A 
HETATM    5  C   UNK N   1      14.892  -0.867   0.000  0.00  0.00     0.018 A 
HETATM    6  C   UNK N   1      14.743  -2.258   0.000  0.00  0.00     0.087 A 
HETATM    7  N   UNK N   1      13.503  -2.815   0.000  0.00  0.00    -0.374 N 
HETATM    8  C   UNK N   1      12.391  -2.041   0.000  0.00  0.00     0.105 A 
ATOM      9  HN  UNK N   1      13.409  -3.830   0.000  1.00  0.00     0.164 HD
ENDBRANCH   1   3
BRANCH   1  10
HETATM   10  O   UNK N   1      10.110  -0.549  -0.000  0.00  0.00    -0.315 OA
BRANCH  10  11
HETATM   11  C   UNK N   1       8.893   0.040  -0.000  0.00  0.00     0.205 C 
BRANCH  11  12
HETATM   12  C   UNK N   1       7.858  -1.048  -0.000  0.00  0.00     0.194 C 
BRANCH  12  13
HETATM   13  O   UNK N   1       6.666  -0.366   0.000  0.00  0.00    -0.389 OA
BRANCH  13  14
HETATM   14  C   UNK N   1       5.629  -1.278  -0.000  0.00  0.00     0.167 C 
BRANCH  14  15
HETATM   15  C   UNK N   1       4.432  -0.375  -0.000  0.00  0.00     0.026 C 
BRANCH  15  16
HETATM   16  C   UNK N   1       3.109  -1.069   0.000  0.00  0.00    -0.002 C 
HETATM   17  C   UNK N   1       2.085   0.045   0.000  0.00  0.00     0.005 C 
ENDBRANCH  15  16
ENDBRANCH  14  15
ENDBRANCH  13  14
ENDBRANCH  12  13
ENDBRANCH  11  12
ENDBRANCH  10  11
ENDBRANCH   1  10
TORSDOF 8
