MODEL 1
REMARK VINA RESULT:      -4.8      0.000      0.000
REMARK  10 active torsions:
REMARK  status: ('A' for Active; 'I' for Inactive)
REMARK    1  A    between atoms: C_2  and  C_3 
REMARK    2  A    between atoms: C_3  and  C_4 
REMARK    3  A    between atoms: C_4  and  S_5 
REMARK    4  A    between atoms: S_5  and  N_6 
REMARK    5  A    between atoms: S_5  and  C_9 
REMARK    6  A    between atoms: C_9  and  C_10 
REMARK    7  A    between atoms: C_10  and  C_11 
REMARK    8  A    between atoms: C_11  and  C_12 
REMARK    9  A    between atoms: C_11  and  N_15 
REMARK   10  A    between atoms: C_12  and  O_14 
ROOT
HETATM    1  C   UNK N   1      35.069  12.977  11.230  0.00  0.00     0.119 C 
ENDROOT
BRANCH   1   2
HETATM    2  S   UNK N   1      36.242  12.962  12.639  0.00  0.00     0.019 S 
HETATM    3  O   UNK N   1      36.479  11.509  13.071  0.00  0.00    -0.250 OA
BRANCH   2   4
HETATM    4  C   UNK N   1      36.312  14.029  14.114  0.00  0.00     0.117 C 
BRANCH   4   5
HETATM    5  C   UNK N   1      36.422  13.189  15.371  0.00  0.00     0.013 C 
BRANCH   5   6
HETATM    6  C   UNK N   1      35.050  13.028  15.997  0.00  0.00    -0.004 C 
HETATM    7  C   UNK N   1      35.104  13.434  17.456  0.00  0.00     0.005 C 
ENDBRANCH   5   6
ENDBRANCH   4   5
ENDBRANCH   2   4
BRANCH   2   8
HETATM    8  N   UNK N   1      37.669  13.212  11.985  0.00  0.00    -0.360 N 
HETATM    9  H   UNK N   1      38.385  12.545  12.094  0.00  0.00     0.165 HD
ATOM     10  HN  UNK N   1      37.844  14.064  11.451  1.00  0.00     0.165 HD
ENDBRANCH   2   8
ENDBRANCH   1   2
BRANCH   1  11
HETATM   11  C   UNK N   1      35.531  13.873  10.083  0.00  0.00     0.049 C 
BRANCH  11  12
HETATM   12  C   UNK N   1      34.790  15.204  10.077  0.00  0.00     0.174 C 
BRANCH  12  13
HETATM   13  C   UNK N   1      35.732  16.311  10.468  0.00  0.00     0.163 C 
HETATM   14  O   UNK N   1      35.406  17.482  10.355  0.00  0.00    -0.648 OA
BRANCH  13  15
HETATM   15  O   UNK N   1      36.956  16.004  10.939  0.00  0.00    -0.775 OA
HETATM   16  H   UNK N   1      37.196  15.109  11.072  0.00  0.00     0.167 HD
ENDBRANCH  13  15
ENDBRANCH  12  13
BRANCH  12  17
HETATM   17  N   UNK N   1      33.651  15.140  10.982  0.00  0.00    -0.418 N 
HETATM   18  H   UNK N   1      33.654  15.684  11.845  0.00  0.00     0.150 HD
HETATM   19  H   UNK N   1      32.851  14.550  10.753  0.00  0.00     0.150 HD
ENDBRANCH  12  17
ENDBRANCH  11  12
ENDBRANCH   1  11
TORSDOF 10
ENDMDL
MODEL 2
REMARK VINA RESULT:      -4.7      2.847      3.385
REMARK  10 active torsions:
REMARK  status: ('A' for Active; 'I' for Inactive)
REMARK    1  A    between atoms: C_2  and  C_3 
REMARK    2  A    between atoms: C_3  and  C_4 
REMARK    3  A    between atoms: C_4  and  S_5 
REMARK    4  A    between atoms: S_5  and  N_6 
REMARK    5  A    between atoms: S_5  and  C_9 
REMARK    6  A    between atoms: C_9  and  C_10 
REMARK    7  A    between atoms: C_10  and  C_11 
REMARK    8  A    between atoms: C_11  and  C_12 
REMARK    9  A    between atoms: C_11  and  N_15 
REMARK   10  A    between atoms: C_12  and  O_14 
ROOT
HETATM    1  C   UNK N   1      35.869  15.009   9.687  0.00  0.00     0.119 C 
ENDROOT
BRANCH   1   2
HETATM    2  S   UNK N   1      34.899  13.877  10.755  0.00  0.00     0.019 S 
HETATM    3  O   UNK N   1      34.179  14.705  11.828  0.00  0.00    -0.250 OA
BRANCH   2   4
HETATM    4  C   UNK N   1      35.356  12.266  11.471  0.00  0.00     0.117 C 
BRANCH   4   5
HETATM    5  C   UNK N   1      34.917  12.184  12.919  0.00  0.00     0.013 C 
BRANCH   5   6
HETATM    6  C   UNK N   1      34.393  10.791  13.214  0.00  0.00    -0.004 C 
HETATM    7  C   UNK N   1      33.602  10.808  14.505  0.00  0.00     0.005 C 
ENDBRANCH   5   6
ENDBRANCH   4   5
ENDBRANCH   2   4
BRANCH   2   8
HETATM    8  N   UNK N   1      33.616  13.504   9.895  0.00  0.00    -0.360 N 
HETATM    9  H   UNK N   1      33.595  13.697   8.930  0.00  0.00     0.165 HD
ATOM     10  HN  UNK N   1      32.812  13.062  10.343  1.00  0.00     0.165 HD
ENDBRANCH   2   8
ENDBRANCH   1   2
BRANCH   1  11
HETATM   11  C   UNK N   1      35.006  15.740   8.661  0.00  0.00     0.049 C 
BRANCH  11  12
HETATM   12  C   UNK N   1      34.479  17.060   9.209  0.00  0.00     0.174 C 
BRANCH  12  13
HETATM   13  C   UNK N   1      34.734  18.160   8.216  0.00  0.00     0.163 C 
HETATM   14  O   UNK N   1      34.401  18.042   7.047  0.00  0.00    -0.648 OA
BRANCH  13  15
HETATM   15  O   UNK N   1      35.350  19.288   8.620  0.00  0.00    -0.775 OA
HETATM   16  H   UNK N   1      35.210  19.614   9.486  0.00  0.00     0.167 HD
ENDBRANCH  13  15
ENDBRANCH  12  13
BRANCH  12  17
HETATM   17  N   UNK N   1      35.110  17.352  10.489  0.00  0.00    -0.418 N 
HETATM   18  H   UNK N   1      35.497  16.594  11.051  0.00  0.00     0.150 HD
HETATM   19  H   UNK N   1      35.162  18.314  10.823  0.00  0.00     0.150 HD
ENDBRANCH  12  17
ENDBRANCH  11  12
ENDBRANCH   1  11
TORSDOF 10
ENDMDL
MODEL 3
REMARK VINA RESULT:      -4.6      6.604      8.570
REMARK  10 active torsions:
REMARK  status: ('A' for Active; 'I' for Inactive)
REMARK    1  A    between atoms: C_2  and  C_3 
REMARK    2  A    between atoms: C_3  and  C_4 
REMARK    3  A    between atoms: C_4  and  S_5 
REMARK    4  A    between atoms: S_5  and  N_6 
REMARK    5  A    between atoms: S_5  and  C_9 
REMARK    6  A    between atoms: C_9  and  C_10 
REMARK    7  A    between atoms: C_10  and  C_11 
REMARK    8  A    between atoms: C_11  and  C_12 
REMARK    9  A    between atoms: C_11  and  N_15 
REMARK   10  A    between atoms: C_12  and  O_14 
ROOT
HETATM    1  C   UNK N   1      31.934  18.329   8.448  0.00  0.00     0.119 C 
ENDROOT
BRANCH   1   2
HETATM    2  S   UNK N   1      33.645  17.701   8.240  0.00  0.00     0.019 S 
HETATM    3  O   UNK N   1      34.613  18.892   8.248  0.00  0.00    -0.250 OA
BRANCH   2   4
HETATM    4  C   UNK N   1      34.294  16.428   7.111  0.00  0.00     0.117 C 
BRANCH   4   5
HETATM    5  C   UNK N   1      33.382  16.267   5.912  0.00  0.00     0.013 C 
BRANCH   5   6
HETATM    6  C   UNK N   1      33.382  17.546   5.097  0.00  0.00    -0.004 C 
HETATM    7  C   UNK N   1      32.151  17.590   4.216  0.00  0.00     0.005 C 
ENDBRANCH   5   6
ENDBRANCH   4   5
ENDBRANCH   2   4
BRANCH   2   8
HETATM    8  N   UNK N   1      34.039  17.113   9.662  0.00  0.00    -0.360 N 
HETATM    9  H   UNK N   1      34.804  17.488  10.157  0.00  0.00     0.165 HD
ATOM     10  HN  UNK N   1      33.500  16.345  10.064  1.00  0.00     0.165 HD
ENDBRANCH   2   8
ENDBRANCH   1   2
BRANCH   1  11
HETATM   11  C   UNK N   1      30.887  17.219   8.409  0.00  0.00     0.049 C 
BRANCH  11  12
HETATM   12  C   UNK N   1      29.761  17.474   9.403  0.00  0.00     0.174 C 
BRANCH  12  13
HETATM   13  C   UNK N   1      28.440  17.482   8.683  0.00  0.00     0.163 C 
HETATM   14  O   UNK N   1      28.338  17.031   7.553  0.00  0.00    -0.648 OA
BRANCH  13  15
HETATM   15  O   UNK N   1      27.357  18.006   9.290  0.00  0.00    -0.775 OA
HETATM   16  H   UNK N   1      27.029  17.620  10.077  0.00  0.00     0.167 HD
ENDBRANCH  13  15
ENDBRANCH  12  13
BRANCH  12  17
HETATM   17  N   UNK N   1      29.989  18.735  10.095  0.00  0.00    -0.418 N 
HETATM   18  H   UNK N   1      29.729  19.615   9.650  0.00  0.00     0.150 HD
HETATM   19  H   UNK N   1      30.409  18.737  11.025  0.00  0.00     0.150 HD
ENDBRANCH  12  17
ENDBRANCH  11  12
ENDBRANCH   1  11
TORSDOF 10
ENDMDL
MODEL 4
REMARK VINA RESULT:      -4.5      7.036      9.869
REMARK  10 active torsions:
REMARK  status: ('A' for Active; 'I' for Inactive)
REMARK    1  A    between atoms: C_2  and  C_3 
REMARK    2  A    between atoms: C_3  and  C_4 
REMARK    3  A    between atoms: C_4  and  S_5 
REMARK    4  A    between atoms: S_5  and  N_6 
REMARK    5  A    between atoms: S_5  and  C_9 
REMARK    6  A    between atoms: C_9  and  C_10 
REMARK    7  A    between atoms: C_10  and  C_11 
REMARK    8  A    between atoms: C_11  and  C_12 
REMARK    9  A    between atoms: C_11  and  N_15 
REMARK   10  A    between atoms: C_12  and  O_14 
ROOT
HETATM    1  C   UNK N   1      30.477  17.846   8.366  0.00  0.00     0.119 C 
ENDROOT
BRANCH   1   2
HETATM    2  S   UNK N   1      29.039  17.664   7.243  0.00  0.00     0.019 S 
HETATM    3  O   UNK N   1      29.129  16.303   6.540  0.00  0.00    -0.250 OA
BRANCH   2   4
HETATM    4  C   UNK N   1      28.291  18.865   6.097  0.00  0.00     0.117 C 
BRANCH   4   5
HETATM    5  C   UNK N   1      27.619  19.985   6.866  0.00  0.00     0.013 C 
BRANCH   5   6
HETATM    6  C   UNK N   1      27.262  21.112   5.915  0.00  0.00    -0.004 C 
HETATM    7  C   UNK N   1      26.817  20.536   4.587  0.00  0.00     0.005 C 
ENDBRANCH   5   6
ENDBRANCH   4   5
ENDBRANCH   2   4
BRANCH   2   8
HETATM    8  N   UNK N   1      27.817  17.315   8.198  0.00  0.00    -0.360 N 
HETATM    9  H   UNK N   1      27.187  18.021   8.471  0.00  0.00     0.165 HD
ATOM     10  HN  UNK N   1      27.684  16.359   8.528  1.00  0.00     0.165 HD
ENDBRANCH   2   8
ENDBRANCH   1   2
BRANCH   1  11
HETATM   11  C   UNK N   1      31.804  17.517   7.688  0.00  0.00     0.049 C 
BRANCH  11  12
HETATM   12  C   UNK N   1      32.985  17.748   8.622  0.00  0.00     0.174 C 
BRANCH  12  13
HETATM   13  C   UNK N   1      34.157  18.272   7.838  0.00  0.00     0.163 C 
HETATM   14  O   UNK N   1      34.962  19.037   8.347  0.00  0.00    -0.648 OA
BRANCH  13  15
HETATM   15  O   UNK N   1      34.315  17.901   6.552  0.00  0.00    -0.775 OA
HETATM   16  H   UNK N   1      33.602  17.512   6.087  0.00  0.00     0.167 HD
ENDBRANCH  13  15
ENDBRANCH  12  13
BRANCH  12  17
HETATM   17  N   UNK N   1      33.324  16.507   9.306  0.00  0.00    -0.418 N 
HETATM   18  H   UNK N   1      34.109  15.943   8.981  0.00  0.00     0.150 HD
HETATM   19  H   UNK N   1      32.775  16.203  10.110  0.00  0.00     0.150 HD
ENDBRANCH  12  17
ENDBRANCH  11  12
ENDBRANCH   1  11
TORSDOF 10
ENDMDL
MODEL 5
REMARK VINA RESULT:      -4.4      3.970      7.324
REMARK  10 active torsions:
REMARK  status: ('A' for Active; 'I' for Inactive)
REMARK    1  A    between atoms: C_2  and  C_3 
REMARK    2  A    between atoms: C_3  and  C_4 
REMARK    3  A    between atoms: C_4  and  S_5 
REMARK    4  A    between atoms: S_5  and  N_6 
REMARK    5  A    between atoms: S_5  and  C_9 
REMARK    6  A    between atoms: C_9  and  C_10 
REMARK    7  A    between atoms: C_10  and  C_11 
REMARK    8  A    between atoms: C_11  and  C_12 
REMARK    9  A    between atoms: C_11  and  N_15 
REMARK   10  A    between atoms: C_12  and  O_14 
ROOT
HETATM    1  C   UNK N   1      32.884  14.864   9.232  0.00  0.00     0.119 C 
ENDROOT
BRANCH   1   2
HETATM    2  S   UNK N   1      32.783  16.255   8.042  0.00  0.00     0.019 S 
HETATM    3  O   UNK N   1      31.421  16.205   7.336  0.00  0.00    -0.250 OA
BRANCH   2   4
HETATM    4  C   UNK N   1      34.025  16.883   6.868  0.00  0.00     0.117 C 
BRANCH   4   5
HETATM    5  C   UNK N   1      33.692  16.443   5.456  0.00  0.00     0.013 C 
BRANCH   5   6
HETATM    6  C   UNK N   1      33.137  17.619   4.675  0.00  0.00    -0.004 C 
HETATM    7  C   UNK N   1      32.444  17.118   3.424  0.00  0.00     0.005 C 
ENDBRANCH   5   6
ENDBRANCH   4   5
ENDBRANCH   2   4
BRANCH   2   8
HETATM    8  N   UNK N   1      32.497  17.537   8.936  0.00  0.00    -0.360 N 
HETATM    9  H   UNK N   1      32.651  17.505   9.909  0.00  0.00     0.165 HD
ATOM     10  HN  UNK N   1      32.155  18.396   8.503  1.00  0.00     0.165 HD
ENDBRANCH   2   8
ENDBRANCH   1   2
BRANCH   1  11
HETATM   11  C   UNK N   1      34.311  14.583   9.695  0.00  0.00     0.049 C 
BRANCH  11  12
HETATM   12  C   UNK N   1      34.644  15.336  10.977  0.00  0.00     0.174 C 
BRANCH  12  13
HETATM   13  C   UNK N   1      35.700  16.370  10.699  0.00  0.00     0.163 C 
HETATM   14  O   UNK N   1      35.401  17.477  10.278  0.00  0.00    -0.648 OA
BRANCH  13  15
HETATM   15  O   UNK N   1      36.996  16.067  10.907  0.00  0.00    -0.775 OA
HETATM   16  H   UNK N   1      37.291  15.830  11.763  0.00  0.00     0.167 HD
ENDBRANCH  13  15
ENDBRANCH  12  13
BRANCH  12  17
HETATM   17  N   UNK N   1      35.085  14.398  12.000  0.00  0.00    -0.418 N 
HETATM   18  H   UNK N   1      35.937  14.584  12.530  0.00  0.00     0.150 HD
HETATM   19  H   UNK N   1      34.543  13.554  12.186  0.00  0.00     0.150 HD
ENDBRANCH  12  17
ENDBRANCH  11  12
ENDBRANCH   1  11
TORSDOF 10
ENDMDL
MODEL 6
REMARK VINA RESULT:      -4.4      3.043      5.695
REMARK  10 active torsions:
REMARK  status: ('A' for Active; 'I' for Inactive)
REMARK    1  A    between atoms: C_2  and  C_3 
REMARK    2  A    between atoms: C_3  and  C_4 
REMARK    3  A    between atoms: C_4  and  S_5 
REMARK    4  A    between atoms: S_5  and  N_6 
REMARK    5  A    between atoms: S_5  and  C_9 
REMARK    6  A    between atoms: C_9  and  C_10 
REMARK    7  A    between atoms: C_10  and  C_11 
REMARK    8  A    between atoms: C_11  and  C_12 
REMARK    9  A    between atoms: C_11  and  N_15 
REMARK   10  A    between atoms: C_12  and  O_14 
ROOT
HETATM    1  C   UNK N   1      34.754  13.662  10.057  0.00  0.00     0.119 C 
ENDROOT
BRANCH   1   2
HETATM    2  S   UNK N   1      33.334  14.364   9.134  0.00  0.00     0.019 S 
HETATM    3  O   UNK N   1      32.362  13.230   8.783  0.00  0.00    -0.250 OA
BRANCH   2   4
HETATM    4  C   UNK N   1      33.304  15.595   7.792  0.00  0.00     0.117 C 
BRANCH   4   5
HETATM    5  C   UNK N   1      34.612  16.359   7.743  0.00  0.00     0.013 C 
BRANCH   5   6
HETATM    6  C   UNK N   1      34.337  17.846   7.860  0.00  0.00    -0.004 C 
HETATM    7  C   UNK N   1      32.873  18.070   8.178  0.00  0.00     0.005 C 
ENDBRANCH   5   6
ENDBRANCH   4   5
ENDBRANCH   2   4
BRANCH   2   8
HETATM    8  N   UNK N   1      32.434  15.064  10.242  0.00  0.00    -0.360 N 
HETATM    9  H   UNK N   1      32.779  15.840  10.741  0.00  0.00     0.165 HD
ATOM     10  HN  UNK N   1      31.497  14.709  10.436  1.00  0.00     0.165 HD
ENDBRANCH   2   8
ENDBRANCH   1   2
BRANCH   1  11
HETATM   11  C   UNK N   1      34.648  13.879  11.564  0.00  0.00     0.049 C 
BRANCH  11  12
HETATM   12  C   UNK N   1      35.782  14.751  12.087  0.00  0.00     0.174 C 
BRANCH  12  13
HETATM   13  C   UNK N   1      35.868  16.015  11.275  0.00  0.00     0.163 C 
HETATM   14  O   UNK N   1      36.863  16.273  10.617  0.00  0.00    -0.648 OA
BRANCH  13  15
HETATM   15  O   UNK N   1      34.835  16.880  11.284  0.00  0.00    -0.775 OA
HETATM   16  H   UNK N   1      34.413  17.097  12.091  0.00  0.00     0.167 HD
ENDBRANCH  13  15
ENDBRANCH  12  13
BRANCH  12  17
HETATM   17  N   UNK N   1      37.037  14.012  12.040  0.00  0.00    -0.418 N 
HETATM   18  H   UNK N   1      37.027  12.997  11.936  0.00  0.00     0.150 HD
HETATM   19  H   UNK N   1      37.924  14.509  12.112  0.00  0.00     0.150 HD
ENDBRANCH  12  17
ENDBRANCH  11  12
ENDBRANCH   1  11
TORSDOF 10
ENDMDL
MODEL 7
REMARK VINA RESULT:      -4.4      4.455      7.670
REMARK  10 active torsions:
REMARK  status: ('A' for Active; 'I' for Inactive)
REMARK    1  A    between atoms: C_2  and  C_3 
REMARK    2  A    between atoms: C_3  and  C_4 
REMARK    3  A    between atoms: C_4  and  S_5 
REMARK    4  A    between atoms: S_5  and  N_6 
REMARK    5  A    between atoms: S_5  and  C_9 
REMARK    6  A    between atoms: C_9  and  C_10 
REMARK    7  A    between atoms: C_10  and  C_11 
REMARK    8  A    between atoms: C_11  and  C_12 
REMARK    9  A    between atoms: C_11  and  N_15 
REMARK   10  A    between atoms: C_12  and  O_14 
ROOT
HETATM    1  C   UNK N   1      34.275  16.053   7.875  0.00  0.00     0.119 C 
ENDROOT
BRANCH   1   2
HETATM    2  S   UNK N   1      32.545  15.544   7.539  0.00  0.00     0.019 S 
HETATM    3  O   UNK N   1      32.318  14.146   8.129  0.00  0.00    -0.250 OA
BRANCH   2   4
HETATM    4  C   UNK N   1      31.552  15.705   6.021  0.00  0.00     0.117 C 
BRANCH   4   5
HETATM    5  C   UNK N   1      31.552  17.142   5.537  0.00  0.00     0.013 C 
BRANCH   5   6
HETATM    6  C   UNK N   1      32.755  17.378   4.643  0.00  0.00    -0.004 C 
HETATM    7  C   UNK N   1      32.377  17.116   3.200  0.00  0.00     0.005 C 
ENDBRANCH   5   6
ENDBRANCH   4   5
ENDBRANCH   2   4
BRANCH   2   8
HETATM    8  N   UNK N   1      31.671  16.350   8.592  0.00  0.00    -0.360 N 
HETATM    9  H   UNK N   1      31.001  15.881   9.141  0.00  0.00     0.165 HD
ATOM     10  HN  UNK N   1      31.802  17.357   8.700  1.00  0.00     0.165 HD
ENDBRANCH   2   8
ENDBRANCH   1   2
BRANCH   1  11
HETATM   11  C   UNK N   1      35.003  15.095   8.813  0.00  0.00     0.049 C 
BRANCH  11  12
HETATM   12  C   UNK N   1      35.133  15.673  10.216  0.00  0.00     0.174 C 
BRANCH  12  13
HETATM   13  C   UNK N   1      34.238  14.918  11.161  0.00  0.00     0.163 C 
HETATM   14  O   UNK N   1      34.705  14.236  12.060  0.00  0.00    -0.648 OA
BRANCH  13  15
HETATM   15  O   UNK N   1      32.901  14.986  11.005  0.00  0.00    -0.775 OA
HETATM   16  H   UNK N   1      32.487  14.521  10.307  0.00  0.00     0.167 HD
ENDBRANCH  13  15
ENDBRANCH  12  13
BRANCH  12  17
HETATM   17  N   UNK N   1      34.801  17.091  10.200  0.00  0.00    -0.418 N 
HETATM   18  H   UNK N   1      35.530  17.787  10.356  0.00  0.00     0.150 HD
HETATM   19  H   UNK N   1      33.839  17.387  10.033  0.00  0.00     0.150 HD
ENDBRANCH  12  17
ENDBRANCH  11  12
ENDBRANCH   1  11
TORSDOF 10
ENDMDL
MODEL 8
REMARK VINA RESULT:      -4.3      4.401      6.833
REMARK  10 active torsions:
REMARK  status: ('A' for Active; 'I' for Inactive)
REMARK    1  A    between atoms: C_2  and  C_3 
REMARK    2  A    between atoms: C_3  and  C_4 
REMARK    3  A    between atoms: C_4  and  S_5 
REMARK    4  A    between atoms: S_5  and  N_6 
REMARK    5  A    between atoms: S_5  and  C_9 
REMARK    6  A    between atoms: C_9  and  C_10 
REMARK    7  A    between atoms: C_10  and  C_11 
REMARK    8  A    between atoms: C_11  and  C_12 
REMARK    9  A    between atoms: C_11  and  N_15 
REMARK   10  A    between atoms: C_12  and  O_14 
ROOT
HETATM    1  C   UNK N   1      33.808  15.347   7.461  0.00  0.00     0.119 C 
ENDROOT
BRANCH   1   2
HETATM    2  S   UNK N   1      33.337  17.112   7.307  0.00  0.00     0.019 S 
HETATM    3  O   UNK N   1      34.559  17.911   6.832  0.00  0.00    -0.250 OA
BRANCH   2   4
HETATM    4  C   UNK N   1      32.352  18.161   8.423  0.00  0.00     0.117 C 
BRANCH   4   5
HETATM    5  C   UNK N   1      30.994  17.538   8.676  0.00  0.00     0.013 C 
BRANCH   5   6
HETATM    6  C   UNK N   1      30.050  18.583   9.238  0.00  0.00    -0.004 C 
HETATM    7  C   UNK N   1      28.815  18.676   8.366  0.00  0.00     0.005 C 
ENDBRANCH   5   6
ENDBRANCH   4   5
ENDBRANCH   2   4
BRANCH   2   8
HETATM    8  N   UNK N   1      32.505  17.197   5.956  0.00  0.00    -0.360 N 
HETATM    9  H   UNK N   1      32.592  16.488   5.278  0.00  0.00     0.165 HD
ATOM     10  HN  UNK N   1      31.880  17.986   5.790  1.00  0.00     0.165 HD
ENDBRANCH   2   8
ENDBRANCH   1   2
BRANCH   1  11
HETATM   11  C   UNK N   1      34.950  15.122   8.448  0.00  0.00     0.049 C 
BRANCH  11  12
HETATM   12  C   UNK N   1      34.589  15.611   9.845  0.00  0.00     0.174 C 
BRANCH  12  13
HETATM   13  C   UNK N   1      35.651  16.552  10.344  0.00  0.00     0.163 C 
HETATM   14  O   UNK N   1      35.542  17.759  10.194  0.00  0.00    -0.648 OA
BRANCH  13  15
HETATM   15  O   UNK N   1      36.745  16.055  10.954  0.00  0.00    -0.775 OA
HETATM   16  H   UNK N   1      37.288  16.614  11.471  0.00  0.00     0.167 HD
ENDBRANCH  13  15
ENDBRANCH  12  13
BRANCH  12  17
HETATM   17  N   UNK N   1      34.433  14.474  10.742  0.00  0.00    -0.418 N 
HETATM   18  H   UNK N   1      35.257  13.998  11.111  0.00  0.00     0.150 HD
HETATM   19  H   UNK N   1      33.500  14.153  11.000  0.00  0.00     0.150 HD
ENDBRANCH  12  17
ENDBRANCH  11  12
ENDBRANCH   1  11
TORSDOF 10
ENDMDL
MODEL 9
REMARK VINA RESULT:      -4.3      6.437      8.793
REMARK  10 active torsions:
REMARK  status: ('A' for Active; 'I' for Inactive)
REMARK    1  A    between atoms: C_2  and  C_3 
REMARK    2  A    between atoms: C_3  and  C_4 
REMARK    3  A    between atoms: C_4  and  S_5 
REMARK    4  A    between atoms: S_5  and  N_6 
REMARK    5  A    between atoms: S_5  and  C_9 
REMARK    6  A    between atoms: C_9  and  C_10 
REMARK    7  A    between atoms: C_10  and  C_11 
REMARK    8  A    between atoms: C_11  and  C_12 
REMARK    9  A    between atoms: C_11  and  N_15 
REMARK   10  A    between atoms: C_12  and  O_14 
ROOT
HETATM    1  C   UNK N   1      31.340  17.044   7.589  0.00  0.00     0.119 C 
ENDROOT
BRANCH   1   2
HETATM    2  S   UNK N   1      30.642  16.180   6.130  0.00  0.00     0.019 S 
HETATM    3  O   UNK N   1      30.848  14.670   6.304  0.00  0.00    -0.250 OA
BRANCH   2   4
HETATM    4  C   UNK N   1      30.769  16.586   4.359  0.00  0.00     0.117 C 
BRANCH   4   5
HETATM    5  C   UNK N   1      31.970  17.474   4.103  0.00  0.00     0.013 C 
BRANCH   5   6
HETATM    6  C   UNK N   1      32.927  16.776   3.155  0.00  0.00    -0.004 C 
HETATM    7  C   UNK N   1      33.578  15.604   3.861  0.00  0.00     0.005 C 
ENDBRANCH   5   6
ENDBRANCH   4   5
ENDBRANCH   2   4
BRANCH   2   8
HETATM    8  N   UNK N   1      29.070  16.196   6.360  0.00  0.00    -0.360 N 
HETATM    9  H   UNK N   1      28.662  15.595   7.026  0.00  0.00     0.165 HD
ATOM     10  HN  UNK N   1      28.481  16.829   5.818  1.00  0.00     0.165 HD
ENDBRANCH   2   8
ENDBRANCH   1   2
BRANCH   1  11
HETATM   11  C   UNK N   1      32.732  16.543   7.965  0.00  0.00     0.049 C 
BRANCH  11  12
HETATM   12  C   UNK N   1      33.486  17.560   8.813  0.00  0.00     0.174 C 
BRANCH  12  13
HETATM   13  C   UNK N   1      34.470  18.308   7.955  0.00  0.00     0.163 C 
HETATM   14  O   UNK N   1      35.222  19.139   8.439  0.00  0.00    -0.648 OA
BRANCH  13  15
HETATM   15  O   UNK N   1      34.514  18.063   6.631  0.00  0.00    -0.775 OA
HETATM   16  H   UNK N   1      34.292  18.739   6.022  0.00  0.00     0.167 HD
ENDBRANCH  13  15
ENDBRANCH  12  13
BRANCH  12  17
HETATM   17  N   UNK N   1      34.158  16.884   9.914  0.00  0.00    -0.418 N 
HETATM   18  H   UNK N   1      33.982  15.895  10.089  0.00  0.00     0.150 HD
HETATM   19  H   UNK N   1      34.803  17.401  10.511  0.00  0.00     0.150 HD
ENDBRANCH  12  17
ENDBRANCH  11  12
ENDBRANCH   1  11
TORSDOF 10
ENDMDL
