MODEL 1
REMARK VINA RESULT:      -8.3      0.000      0.000
REMARK  5 active torsions:
REMARK  status: ('A' for Active; 'I' for Inactive)
REMARK       I    between atoms: N_9  and  C_12 
REMARK       I    between atoms: C_12  and  N_14 
REMARK    1  A    between atoms: N_14  and  C_15 
REMARK    2  A    between atoms: C_15  and  C_16 
REMARK    3  A    between atoms: N_19  and  C_22 
REMARK    4  A    between atoms: C_22  and  C_23 
REMARK    5  A    between atoms: C_23  and  O_29 
ROOT
HETATM    1  C   UNK N   1      28.185  17.294   9.361  0.00  0.00     0.030 C 
HETATM    2  C   UNK N   1      29.207  18.031   8.512  0.00  0.00     0.064 A 
HETATM    3  C   UNK N   1      28.584  18.665   7.306  0.00  0.00    -0.013 A 
HETATM    4  C   UNK N   1      27.617  19.673   7.270  0.00  0.00     0.014 A 
HETATM    5  C   UNK N   1      27.179  20.136   6.020  0.00  0.00     0.043 A 
HETATM    6  C   UNK N   1      27.707  19.589   4.835  0.00  0.00     0.118 A 
HETATM    7  C   UNK N   1      28.675  18.576   4.896  0.00  0.00     0.073 A 
HETATM    8  C   UNK N   1      29.102  18.128   6.152  0.00  0.00     0.057 A 
HETATM    9  N   UNK N   1      30.064  17.132   6.443  0.00  0.00    -0.232 N 
HETATM   10  C   UNK N   1      30.147  17.072   7.809  0.00  0.00     0.245 A 
HETATM   11  O   UNK N   1      30.915  16.369   8.435  0.00  0.00    -0.271 OA
HETATM   12  C   UNK N   1      30.747  16.435   5.446  0.00  0.00     0.329 C 
HETATM   13  O   UNK N   1      30.546  16.738   4.281  0.00  0.00    -0.246 OA
HETATM   14  N   UNK N   1      31.637  15.416   5.656  0.00  0.00    -0.342 N 
HETATM   15  F   UNK N   1      27.283  20.046   3.634  0.00  0.00    -0.206 F 
HETATM   16  C   UNK N   1      29.969  19.047   9.344  0.00  0.00     0.030 C 
HETATM   17  H   UNK N   1      32.110  15.105   4.852  0.00  0.00     0.164 HD
ENDROOT
BRANCH  14  18
HETATM   18  C   UNK N   1      31.987  14.732   6.868  0.00  0.00     0.129 C 
BRANCH  18  19
HETATM   19  C   UNK N   1      33.449  14.305   6.812  0.00  0.00     0.007 C 
HETATM   20  C   UNK N   1      34.367  15.477   7.168  0.00  0.00     0.036 C 
HETATM   21  C   UNK N   1      34.274  15.768   8.661  0.00  0.00     0.273 C 
HETATM   22  N   UNK N   1      34.684  14.582   9.411  0.00  0.00     0.091 N 
HETATM   23  C   UNK N   1      33.684  13.538   9.206  0.00  0.00     0.273 C 
HETATM   24  C   UNK N   1      33.708  13.109   7.736  0.00  0.00     0.036 C 
BRANCH  22  25
HETATM   25  C   UNK N   1      34.716  14.949  10.820  0.00  0.00     0.310 C 
BRANCH  25  26
HETATM   26  C   UNK N   1      36.157  14.959  11.370  0.00  0.00     0.088 C 
HETATM   27  C   UNK N   1      36.117  15.035  12.900  0.00  0.00     0.066 C 
HETATM   28  C   UNK N   1      35.707  13.684  13.486  0.00  0.00     0.170 C 
HETATM   29  O   UNK N   1      36.643  12.712  13.096  0.00  0.00    -0.391 OA
HETATM   30  C   UNK N   1      36.423  12.484  11.726  0.00  0.00     0.170 C 
HETATM   31  C   UNK N   1      36.906  13.697  10.924  0.00  0.00     0.066 C 
BRANCH  26  32
HETATM   32  O   UNK N   1      36.859  16.073  10.903  0.00  0.00    -0.388 OA
HETATM   33  H   UNK N   1      37.535  16.332  10.257  0.00  0.00     0.210 HD
ENDBRANCH  26  32
ENDBRANCH  25  26
ENDBRANCH  22  25
ENDBRANCH  18  19
ENDBRANCH  14  18
TORSDOF 5
ENDMDL
MODEL 2
REMARK VINA RESULT:      -7.9      4.407     10.164
REMARK  5 active torsions:
REMARK  status: ('A' for Active; 'I' for Inactive)
REMARK       I    between atoms: N_9  and  C_12 
REMARK       I    between atoms: C_12  and  N_14 
REMARK    1  A    between atoms: N_14  and  C_15 
REMARK    2  A    between atoms: C_15  and  C_16 
REMARK    3  A    between atoms: N_19  and  C_22 
REMARK    4  A    between atoms: C_22  and  C_23 
REMARK    5  A    between atoms: C_23  and  O_29 
ROOT
HETATM    1  C   UNK N   1      33.803  10.062  13.512  0.00  0.00     0.030 C 
HETATM    2  C   UNK N   1      35.200  10.426  13.984  0.00  0.00     0.064 A 
HETATM    3  C   UNK N   1      35.202  10.942  15.391  0.00  0.00    -0.013 A 
HETATM    4  C   UNK N   1      34.833  10.262  16.554  0.00  0.00     0.014 A 
HETATM    5  C   UNK N   1      34.926  10.935  17.781  0.00  0.00     0.043 A 
HETATM    6  C   UNK N   1      35.380  12.267  17.828  0.00  0.00     0.118 A 
HETATM    7  C   UNK N   1      35.743  12.931  16.647  0.00  0.00     0.073 A 
HETATM    8  C   UNK N   1      35.646  12.242  15.432  0.00  0.00     0.057 A 
HETATM    9  N   UNK N   1      35.963  12.711  14.135  0.00  0.00    -0.232 N 
HETATM   10  C   UNK N   1      35.723  11.665  13.284  0.00  0.00     0.245 A 
HETATM   11  O   UNK N   1      35.936  11.670  12.087  0.00  0.00    -0.271 OA
HETATM   12  C   UNK N   1      36.444  14.000  13.900  0.00  0.00     0.329 C 
HETATM   13  O   UNK N   1      36.650  14.728  14.857  0.00  0.00    -0.246 OA
HETATM   14  N   UNK N   1      36.705  14.538  12.669  0.00  0.00    -0.342 N 
HETATM   15  F   UNK N   1      35.472  12.907  19.017  0.00  0.00    -0.206 F 
HETATM   16  C   UNK N   1      36.150   9.253  13.820  0.00  0.00     0.030 C 
HETATM   17  H   UNK N   1      37.140  15.420  12.684  0.00  0.00     0.164 HD
ENDROOT
BRANCH  14  18
HETATM   18  C   UNK N   1      36.443  14.014  11.358  0.00  0.00     0.129 C 
BRANCH  18  19
HETATM   19  C   UNK N   1      36.714  15.090  10.313  0.00  0.00     0.007 C 
HETATM   20  C   UNK N   1      36.372  14.579   8.912  0.00  0.00     0.036 C 
HETATM   21  C   UNK N   1      34.858  14.488   8.753  0.00  0.00     0.273 C 
HETATM   22  N   UNK N   1      34.272  15.813   8.947  0.00  0.00     0.091 N 
HETATM   23  C   UNK N   1      34.444  16.194  10.346  0.00  0.00     0.273 C 
HETATM   24  C   UNK N   1      35.938  16.373  10.631  0.00  0.00     0.036 C 
BRANCH  22  25
HETATM   25  C   UNK N   1      32.850  15.706   8.649  0.00  0.00     0.310 C 
BRANCH  25  26
HETATM   26  C   UNK N   1      32.290  17.026   8.080  0.00  0.00     0.088 C 
HETATM   27  C   UNK N   1      33.420  17.806   7.400  0.00  0.00     0.066 C 
HETATM   28  C   UNK N   1      33.773  17.164   6.058  0.00  0.00     0.170 C 
HETATM   29  O   UNK N   1      32.638  17.179   5.230  0.00  0.00    -0.391 OA
HETATM   30  C   UNK N   1      31.755  16.220   5.759  0.00  0.00     0.170 C 
HETATM   31  C   UNK N   1      31.166  16.739   7.074  0.00  0.00     0.066 C 
BRANCH  26  32
HETATM   32  O   UNK N   1      31.769  17.825   9.101  0.00  0.00    -0.388 OA
HETATM   33  H   UNK N   1      31.563  18.748   9.315  0.00  0.00     0.210 HD
ENDBRANCH  26  32
ENDBRANCH  25  26
ENDBRANCH  22  25
ENDBRANCH  18  19
ENDBRANCH  14  18
TORSDOF 5
ENDMDL
MODEL 3
REMARK VINA RESULT:      -7.9      4.534     10.230
REMARK  5 active torsions:
REMARK  status: ('A' for Active; 'I' for Inactive)
REMARK       I    between atoms: N_9  and  C_12 
REMARK       I    between atoms: C_12  and  N_14 
REMARK    1  A    between atoms: N_14  and  C_15 
REMARK    2  A    between atoms: C_15  and  C_16 
REMARK    3  A    between atoms: N_19  and  C_22 
REMARK    4  A    between atoms: C_22  and  C_23 
REMARK    5  A    between atoms: C_23  and  O_29 
ROOT
HETATM    1  C   UNK N   1      34.802   9.675  15.139  0.00  0.00     0.030 C 
HETATM    2  C   UNK N   1      36.037  10.515  15.422  0.00  0.00     0.064 A 
HETATM    3  C   UNK N   1      35.754  11.621  16.392  0.00  0.00    -0.013 A 
HETATM    4  C   UNK N   1      35.350  11.511  17.724  0.00  0.00     0.014 A 
HETATM    5  C   UNK N   1      35.155  12.686  18.464  0.00  0.00     0.043 A 
HETATM    6  C   UNK N   1      35.362  13.944  17.867  0.00  0.00     0.118 A 
HETATM    7  C   UNK N   1      35.765  14.030  16.526  0.00  0.00     0.073 A 
HETATM    8  C   UNK N   1      35.957  12.846  15.804  0.00  0.00     0.057 A 
HETATM    9  N   UNK N   1      36.366  12.702  14.457  0.00  0.00    -0.232 N 
HETATM   10  C   UNK N   1      36.429  11.354  14.223  0.00  0.00     0.245 A 
HETATM   11  O   UNK N   1      36.802  10.839  13.187  0.00  0.00    -0.271 OA
HETATM   12  C   UNK N   1      36.645  13.796  13.636  0.00  0.00     0.329 C 
HETATM   13  O   UNK N   1      36.588  14.915  14.118  0.00  0.00    -0.246 OA
HETATM   14  N   UNK N   1      36.977  13.729  12.310  0.00  0.00    -0.342 N 
HETATM   15  F   UNK N   1      35.176  15.073  18.590  0.00  0.00    -0.206 F 
HETATM   16  C   UNK N   1      37.188   9.643  15.891  0.00  0.00     0.030 C 
HETATM   17  H   UNK N   1      37.247  14.584  11.906  0.00  0.00     0.164 HD
ENDROOT
BRANCH  14  18
HETATM   18  C   UNK N   1      36.994  12.605  11.418  0.00  0.00     0.129 C 
BRANCH  18  19
HETATM   19  C   UNK N   1      37.579  13.025  10.074  0.00  0.00     0.007 C 
HETATM   20  C   UNK N   1      36.811  12.372   8.924  0.00  0.00     0.036 C 
HETATM   21  C   UNK N   1      35.440  13.023   8.785  0.00  0.00     0.273 C 
HETATM   22  N   UNK N   1      35.608  14.450   8.513  0.00  0.00     0.091 N 
HETATM   23  C   UNK N   1      36.167  15.084   9.703  0.00  0.00     0.273 C 
HETATM   24  C   UNK N   1      37.584  14.551   9.931  0.00  0.00     0.036 C 
BRANCH  22  25
HETATM   25  C   UNK N   1      34.285  14.999   8.250  0.00  0.00     0.310 C 
BRANCH  25  26
HETATM   26  C   UNK N   1      34.281  15.884   6.986  0.00  0.00     0.088 C 
HETATM   27  C   UNK N   1      33.082  15.511   6.107  0.00  0.00     0.066 C 
HETATM   28  C   UNK N   1      31.791  16.057   6.716  0.00  0.00     0.170 C 
HETATM   29  O   UNK N   1      31.882  17.456   6.804  0.00  0.00    -0.391 OA
HETATM   30  C   UNK N   1      32.796  17.725   7.838  0.00  0.00     0.170 C 
HETATM   31  C   UNK N   1      34.211  17.367   7.372  0.00  0.00     0.066 C 
BRANCH  26  32
HETATM   32  O   UNK N   1      35.443  15.681   6.235  0.00  0.00    -0.388 OA
HETATM   33  H   UNK N   1      35.949  14.985   5.789  0.00  0.00     0.210 HD
ENDBRANCH  26  32
ENDBRANCH  25  26
ENDBRANCH  22  25
ENDBRANCH  18  19
ENDBRANCH  14  18
TORSDOF 5
ENDMDL
MODEL 4
REMARK VINA RESULT:      -7.7      1.808      2.211
REMARK  5 active torsions:
REMARK  status: ('A' for Active; 'I' for Inactive)
REMARK       I    between atoms: N_9  and  C_12 
REMARK       I    between atoms: C_12  and  N_14 
REMARK    1  A    between atoms: N_14  and  C_15 
REMARK    2  A    between atoms: C_15  and  C_16 
REMARK    3  A    between atoms: N_19  and  C_22 
REMARK    4  A    between atoms: C_22  and  C_23 
REMARK    5  A    between atoms: C_23  and  O_29 
ROOT
HETATM    1  C   UNK N   1      27.533  16.947   8.083  0.00  0.00     0.030 C 
HETATM    2  C   UNK N   1      27.984  17.809   6.916  0.00  0.00     0.064 A 
HETATM    3  C   UNK N   1      27.426  17.326   5.612  0.00  0.00    -0.013 A 
HETATM    4  C   UNK N   1      26.086  17.255   5.226  0.00  0.00     0.014 A 
HETATM    5  C   UNK N   1      25.783  16.781   3.941  0.00  0.00     0.043 A 
HETATM    6  C   UNK N   1      26.815  16.386   3.069  0.00  0.00     0.118 A 
HETATM    7  C   UNK N   1      28.154  16.462   3.479  0.00  0.00     0.073 A 
HETATM    8  C   UNK N   1      28.437  16.941   4.764  0.00  0.00     0.057 A 
HETATM    9  N   UNK N   1      29.703  17.107   5.375  0.00  0.00    -0.232 N 
HETATM   10  C   UNK N   1      29.459  17.623   6.619  0.00  0.00     0.245 A 
HETATM   11  O   UNK N   1      30.310  17.955   7.421  0.00  0.00    -0.271 OA
HETATM   12  C   UNK N   1      30.896  16.796   4.722  0.00  0.00     0.329 C 
HETATM   13  O   UNK N   1      30.846  16.419   3.563  0.00  0.00    -0.246 OA
HETATM   14  N   UNK N   1      32.147  16.868   5.276  0.00  0.00    -0.342 N 
HETATM   15  F   UNK N   1      26.514  15.934   1.828  0.00  0.00    -0.206 F 
HETATM   16  C   UNK N   1      27.646  19.269   7.159  0.00  0.00     0.030 C 
HETATM   17  H   UNK N   1      32.889  16.717   4.648  0.00  0.00     0.164 HD
ENDROOT
BRANCH  14  18
HETATM   18  C   UNK N   1      32.542  17.132   6.630  0.00  0.00     0.129 C 
BRANCH  18  19
HETATM   19  C   UNK N   1      34.062  17.214   6.714  0.00  0.00     0.007 C 
HETATM   20  C   UNK N   1      34.492  18.006   7.950  0.00  0.00     0.036 C 
HETATM   21  C   UNK N   1      34.242  17.177   9.205  0.00  0.00     0.273 C 
HETATM   22  N   UNK N   1      35.014  15.937   9.126  0.00  0.00     0.091 N 
HETATM   23  C   UNK N   1      34.455  15.113   8.058  0.00  0.00     0.273 C 
HETATM   24  C   UNK N   1      34.688  15.814   6.716  0.00  0.00     0.036 C 
BRANCH  22  25
HETATM   25  C   UNK N   1      34.856  15.247  10.399  0.00  0.00     0.310 C 
BRANCH  25  26
HETATM   26  C   UNK N   1      36.218  14.999  11.080  0.00  0.00     0.088 C 
HETATM   27  C   UNK N   1      36.011  14.840  12.590  0.00  0.00     0.066 C 
HETATM   28  C   UNK N   1      35.400  13.473  12.899  0.00  0.00     0.170 C 
HETATM   29  O   UNK N   1      36.272  12.469  12.443  0.00  0.00    -0.391 OA
HETATM   30  C   UNK N   1      36.188  12.485  11.040  0.00  0.00     0.170 C 
HETATM   31  C   UNK N   1      36.882  13.741  10.503  0.00  0.00     0.066 C 
BRANCH  26  32
HETATM   32  O   UNK N   1      37.079  16.081  10.876  0.00  0.00    -0.388 OA
HETATM   33  H   UNK N   1      37.437  16.864  11.323  0.00  0.00     0.210 HD
ENDBRANCH  26  32
ENDBRANCH  25  26
ENDBRANCH  22  25
ENDBRANCH  18  19
ENDBRANCH  14  18
TORSDOF 5
ENDMDL
MODEL 5
REMARK VINA RESULT:      -7.6      3.545      9.462
REMARK  5 active torsions:
REMARK  status: ('A' for Active; 'I' for Inactive)
REMARK       I    between atoms: N_9  and  C_12 
REMARK       I    between atoms: C_12  and  N_14 
REMARK    1  A    between atoms: N_14  and  C_15 
REMARK    2  A    between atoms: C_15  and  C_16 
REMARK    3  A    between atoms: N_19  and  C_22 
REMARK    4  A    between atoms: C_22  and  C_23 
REMARK    5  A    between atoms: C_23  and  O_29 
ROOT
HETATM    1  C   UNK N   1      34.495  11.663  10.027  0.00  0.00     0.030 C 
HETATM    2  C   UNK N   1      35.663  12.627  10.152  0.00  0.00     0.064 A 
HETATM    3  C   UNK N   1      36.018  12.897  11.582  0.00  0.00    -0.013 A 
HETATM    4  C   UNK N   1      36.482  11.990  12.537  0.00  0.00     0.014 A 
HETATM    5  C   UNK N   1      36.771  12.463  13.825  0.00  0.00     0.043 A 
HETATM    6  C   UNK N   1      36.593  13.824  14.139  0.00  0.00     0.118 A 
HETATM    7  C   UNK N   1      36.123  14.717  13.164  0.00  0.00     0.073 A 
HETATM    8  C   UNK N   1      35.842  14.227  11.883  0.00  0.00     0.057 A 
HETATM    9  N   UNK N   1      35.372  14.944  10.758  0.00  0.00    -0.232 N 
HETATM   10  C   UNK N   1      35.275  14.033   9.741  0.00  0.00     0.245 A 
HETATM   11  O   UNK N   1      34.957  14.290   8.596  0.00  0.00    -0.271 OA
HETATM   12  C   UNK N   1      35.118  16.316  10.796  0.00  0.00     0.329 C 
HETATM   13  O   UNK N   1      35.366  16.926  11.823  0.00  0.00    -0.246 OA
HETATM   14  N   UNK N   1      34.599  17.056   9.768  0.00  0.00    -0.342 N 
HETATM   15  F   UNK N   1      36.880  14.273  15.383  0.00  0.00    -0.206 F 
HETATM   16  C   UNK N   1      36.862  12.129   9.365  0.00  0.00     0.030 C 
HETATM   17  H   UNK N   1      34.583  18.028   9.922  0.00  0.00     0.164 HD
ENDROOT
BRANCH  14  18
HETATM   18  C   UNK N   1      34.076  16.635   8.499  0.00  0.00     0.129 C 
BRANCH  18  19
HETATM   19  C   UNK N   1      33.540  17.843   7.739  0.00  0.00     0.007 C 
HETATM   20  C   UNK N   1      33.573  17.589   6.231  0.00  0.00     0.036 C 
HETATM   21  C   UNK N   1      32.489  16.586   5.854  0.00  0.00     0.273 C 
HETATM   22  N   UNK N   1      31.182  17.124   6.230  0.00  0.00     0.091 N 
HETATM   23  C   UNK N   1      31.106  17.174   7.687  0.00  0.00     0.273 C 
HETATM   24  C   UNK N   1      32.122  18.198   8.202  0.00  0.00     0.036 C 
BRANCH  22  25
HETATM   25  C   UNK N   1      30.172  16.202   5.727  0.00  0.00     0.310 C 
BRANCH  25  26
HETATM   26  C   UNK N   1      29.293  16.862   4.645  0.00  0.00     0.088 C 
HETATM   27  C   UNK N   1      28.115  15.939   4.314  0.00  0.00     0.066 C 
HETATM   28  C   UNK N   1      27.081  15.977   5.439  0.00  0.00     0.170 C 
HETATM   29  O   UNK N   1      26.610  17.293   5.584  0.00  0.00    -0.391 OA
HETATM   30  C   UNK N   1      27.662  18.023   6.166  0.00  0.00     0.170 C 
HETATM   31  C   UNK N   1      28.777  18.221   5.134  0.00  0.00     0.066 C 
BRANCH  26  32
HETATM   32  O   UNK N   1      30.021  17.067   3.470  0.00  0.00    -0.388 OA
HETATM   33  H   UNK N   1      29.906  17.214   2.518  0.00  0.00     0.210 HD
ENDBRANCH  26  32
ENDBRANCH  25  26
ENDBRANCH  22  25
ENDBRANCH  18  19
ENDBRANCH  14  18
TORSDOF 5
ENDMDL
MODEL 6
REMARK VINA RESULT:      -7.5      9.358     13.504
REMARK  5 active torsions:
REMARK  status: ('A' for Active; 'I' for Inactive)
REMARK       I    between atoms: N_9  and  C_12 
REMARK       I    between atoms: C_12  and  N_14 
REMARK    1  A    between atoms: N_14  and  C_15 
REMARK    2  A    between atoms: C_15  and  C_16 
REMARK    3  A    between atoms: N_19  and  C_22 
REMARK    4  A    between atoms: C_22  and  C_23 
REMARK    5  A    between atoms: C_23  and  O_29 
ROOT
HETATM    1  C   UNK N   1      23.855  12.596   6.341  0.00  0.00     0.030 C 
HETATM    2  C   UNK N   1      23.848  13.572   7.506  0.00  0.00     0.064 A 
HETATM    3  C   UNK N   1      23.062  13.053   8.670  0.00  0.00    -0.013 A 
HETATM    4  C   UNK N   1      23.319  11.916   9.441  0.00  0.00     0.014 A 
HETATM    5  C   UNK N   1      22.455  11.619  10.505  0.00  0.00     0.043 A 
HETATM    6  C   UNK N   1      21.355  12.453  10.781  0.00  0.00     0.118 A 
HETATM    7  C   UNK N   1      21.115  13.587   9.992  0.00  0.00     0.073 A 
HETATM    8  C   UNK N   1      21.989  13.870   8.935  0.00  0.00     0.057 A 
HETATM    9  N   UNK N   1      21.940  14.954   8.028  0.00  0.00    -0.232 N 
HETATM   10  C   UNK N   1      23.020  14.804   7.199  0.00  0.00     0.245 A 
HETATM   11  O   UNK N   1      23.345  15.580   6.322  0.00  0.00    -0.271 OA
HETATM   12  C   UNK N   1      20.950  15.936   8.085  0.00  0.00     0.329 C 
HETATM   13  O   UNK N   1      20.130  15.884   8.987  0.00  0.00    -0.246 OA
HETATM   14  N   UNK N   1      20.805  16.970   7.199  0.00  0.00    -0.342 N 
HETATM   15  F   UNK N   1      20.529  12.161  11.813  0.00  0.00    -0.206 F 
HETATM   16  C   UNK N   1      25.265  13.941   7.910  0.00  0.00     0.030 C 
HETATM   17  H   UNK N   1      20.121  17.634   7.444  0.00  0.00     0.164 HD
ENDROOT
BRANCH  14  18
HETATM   18  C   UNK N   1      21.497  17.236   5.970  0.00  0.00     0.129 C 
BRANCH  18  19
HETATM   19  C   UNK N   1      20.502  17.253   4.815  0.00  0.00     0.007 C 
HETATM   20  C   UNK N   1      21.232  17.374   3.477  0.00  0.00     0.036 C 
HETATM   21  C   UNK N   1      21.932  16.060   3.152  0.00  0.00     0.273 C 
HETATM   22  N   UNK N   1      20.938  14.990   3.071  0.00  0.00     0.091 N 
HETATM   23  C   UNK N   1      20.395  14.764   4.407  0.00  0.00     0.273 C 
HETATM   24  C   UNK N   1      19.610  16.005   4.841  0.00  0.00     0.036 C 
BRANCH  22  25
HETATM   25  C   UNK N   1      21.630  13.788   2.623  0.00  0.00     0.310 C 
BRANCH  25  26
HETATM   26  C   UNK N   1      21.529  13.616   1.093  0.00  0.00     0.088 C 
HETATM   27  C   UNK N   1      21.801  12.152   0.728  0.00  0.00     0.066 C 
HETATM   28  C   UNK N   1      20.596  11.285   1.090  0.00  0.00     0.170 C 
HETATM   29  O   UNK N   1      19.473  11.739   0.377  0.00  0.00    -0.391 OA
HETATM   30  C   UNK N   1      19.105  12.962   0.964  0.00  0.00     0.170 C 
HETATM   31  C   UNK N   1      20.137  14.034   0.600  0.00  0.00     0.066 C 
BRANCH  26  32
HETATM   32  O   UNK N   1      22.480  14.405   0.441  0.00  0.00    -0.388 OA
HETATM   33  H   UNK N   1      22.871  14.560  -0.434  0.00  0.00     0.210 HD
ENDBRANCH  26  32
ENDBRANCH  25  26
ENDBRANCH  22  25
ENDBRANCH  18  19
ENDBRANCH  14  18
TORSDOF 5
ENDMDL
MODEL 7
REMARK VINA RESULT:      -7.5     13.873     16.466
REMARK  5 active torsions:
REMARK  status: ('A' for Active; 'I' for Inactive)
REMARK       I    between atoms: N_9  and  C_12 
REMARK       I    between atoms: C_12  and  N_14 
REMARK    1  A    between atoms: N_14  and  C_15 
REMARK    2  A    between atoms: C_15  and  C_16 
REMARK    3  A    between atoms: N_19  and  C_22 
REMARK    4  A    between atoms: C_22  and  C_23 
REMARK    5  A    between atoms: C_23  and  O_29 
ROOT
HETATM    1  C   UNK N   1      31.279  27.388  -4.136  0.00  0.00     0.030 C 
HETATM    2  C   UNK N   1      30.165  28.377  -4.435  0.00  0.00     0.064 A 
HETATM    3  C   UNK N   1      29.760  29.151  -3.218  0.00  0.00    -0.013 A 
HETATM    4  C   UNK N   1      30.536  30.036  -2.466  0.00  0.00     0.014 A 
HETATM    5  C   UNK N   1      29.949  30.672  -1.363  0.00  0.00     0.043 A 
HETATM    6  C   UNK N   1      28.606  30.415  -1.028  0.00  0.00     0.118 A 
HETATM    7  C   UNK N   1      27.846  29.520  -1.796  0.00  0.00     0.073 A 
HETATM    8  C   UNK N   1      28.449  28.897  -2.895  0.00  0.00     0.057 A 
HETATM    9  N   UNK N   1      27.872  27.976  -3.801  0.00  0.00    -0.232 N 
HETATM   10  C   UNK N   1      28.851  27.673  -4.709  0.00  0.00     0.245 A 
HETATM   11  O   UNK N   1      28.711  26.955  -5.679  0.00  0.00    -0.271 OA
HETATM   12  C   UNK N   1      26.545  27.555  -3.699  0.00  0.00     0.329 C 
HETATM   13  O   UNK N   1      25.844  28.044  -2.829  0.00  0.00    -0.246 OA
HETATM   14  N   UNK N   1      25.946  26.618  -4.498  0.00  0.00    -0.342 N 
HETATM   15  F   UNK N   1      28.045  31.038   0.035  0.00  0.00    -0.206 F 
HETATM   16  C   UNK N   1      30.552  29.298  -5.578  0.00  0.00     0.030 C 
HETATM   17  H   UNK N   1      24.977  26.514  -4.362  0.00  0.00     0.164 HD
ENDROOT
BRANCH  14  18
HETATM   18  C   UNK N   1      26.512  25.763  -5.503  0.00  0.00     0.129 C 
BRANCH  18  19
HETATM   19  C   UNK N   1      26.460  24.314  -5.032  0.00  0.00     0.007 C 
HETATM   20  C   UNK N   1      27.294  23.419  -5.950  0.00  0.00     0.036 C 
HETATM   21  C   UNK N   1      28.777  23.679  -5.715  0.00  0.00     0.273 C 
HETATM   22  N   UNK N   1      29.103  23.386  -4.320  0.00  0.00     0.091 N 
HETATM   23  C   UNK N   1      28.446  24.379  -3.474  0.00  0.00     0.273 C 
HETATM   24  C   UNK N   1      26.929  24.193  -3.577  0.00  0.00     0.036 C 
BRANCH  22  25
HETATM   25  C   UNK N   1      30.548  23.512  -4.177  0.00  0.00     0.310 C 
BRANCH  25  26
HETATM   26  C   UNK N   1      31.127  22.396  -3.283  0.00  0.00     0.088 C 
HETATM   27  C   UNK N   1      30.370  21.090  -3.546  0.00  0.00     0.066 C 
HETATM   28  C   UNK N   1      30.797  20.492  -4.886  0.00  0.00     0.170 C 
HETATM   29  O   UNK N   1      32.177  20.227  -4.850  0.00  0.00    -0.391 OA
HETATM   30  C   UNK N   1      32.817  21.478  -4.903  0.00  0.00     0.170 C 
HETATM   31  C   UNK N   1      32.622  22.206  -3.569  0.00  0.00     0.066 C 
BRANCH  26  32
HETATM   32  O   UNK N   1      30.976  22.715  -1.931  0.00  0.00    -0.388 OA
HETATM   33  H   UNK N   1      31.125  23.434  -1.297  0.00  0.00     0.210 HD
ENDBRANCH  26  32
ENDBRANCH  25  26
ENDBRANCH  22  25
ENDBRANCH  18  19
ENDBRANCH  14  18
TORSDOF 5
ENDMDL
MODEL 8
REMARK VINA RESULT:      -7.4      4.633     10.536
REMARK  5 active torsions:
REMARK  status: ('A' for Active; 'I' for Inactive)
REMARK       I    between atoms: N_9  and  C_12 
REMARK       I    between atoms: C_12  and  N_14 
REMARK    1  A    between atoms: N_14  and  C_15 
REMARK    2  A    between atoms: C_15  and  C_16 
REMARK    3  A    between atoms: N_19  and  C_22 
REMARK    4  A    between atoms: C_22  and  C_23 
REMARK    5  A    between atoms: C_23  and  O_29 
ROOT
HETATM    1  C   UNK N   1      34.975   8.767  12.697  0.00  0.00     0.030 C 
HETATM    2  C   UNK N   1      36.031   9.562  13.447  0.00  0.00     0.064 A 
HETATM    3  C   UNK N   1      35.693   9.717  14.898  0.00  0.00    -0.013 A 
HETATM    4  C   UNK N   1      35.562   8.713  15.860  0.00  0.00     0.014 A 
HETATM    5  C   UNK N   1      35.252   9.083  17.177  0.00  0.00     0.043 A 
HETATM    6  C   UNK N   1      35.077  10.440  17.510  0.00  0.00     0.118 A 
HETATM    7  C   UNK N   1      35.210  11.431  16.526  0.00  0.00     0.073 A 
HETATM    8  C   UNK N   1      35.522  11.042  15.218  0.00  0.00     0.057 A 
HETATM    9  N   UNK N   1      35.710  11.867  14.084  0.00  0.00    -0.232 N 
HETATM   10  C   UNK N   1      36.018  11.024  13.050  0.00  0.00     0.245 A 
HETATM   11  O   UNK N   1      36.306  11.374  11.921  0.00  0.00    -0.271 OA
HETATM   12  C   UNK N   1      35.600  13.257  14.141  0.00  0.00     0.329 C 
HETATM   13  O   UNK N   1      35.390  13.781  15.222  0.00  0.00    -0.246 OA
HETATM   14  N   UNK N   1      35.701  14.106  13.072  0.00  0.00    -0.342 N 
HETATM   15  F   UNK N   1      34.783  10.789  18.785  0.00  0.00    -0.206 F 
HETATM   16  C   UNK N   1      37.407   8.946  13.258  0.00  0.00     0.030 C 
HETATM   17  H   UNK N   1      35.706  15.063  13.300  0.00  0.00     0.164 HD
ENDROOT
BRANCH  14  18
HETATM   18  C   UNK N   1      35.801  13.817  11.669  0.00  0.00     0.129 C 
BRANCH  18  19
HETATM   19  C   UNK N   1      36.521  14.958  10.960  0.00  0.00     0.007 C 
HETATM   20  C   UNK N   1      36.867  14.567   9.523  0.00  0.00     0.036 C 
HETATM   21  C   UNK N   1      35.599  14.541   8.677  0.00  0.00     0.273 C 
HETATM   22  N   UNK N   1      34.984  15.868   8.688  0.00  0.00     0.091 N 
HETATM   23  C   UNK N   1      34.488  16.135  10.035  0.00  0.00     0.273 C 
HETATM   24  C   UNK N   1      35.680  16.240  10.991  0.00  0.00     0.036 C 
BRANCH  22  25
HETATM   25  C   UNK N   1      33.862  15.832   7.759  0.00  0.00     0.310 C 
BRANCH  25  26
HETATM   26  C   UNK N   1      33.564  17.230   7.179  0.00  0.00     0.088 C 
HETATM   27  C   UNK N   1      33.239  17.102   5.687  0.00  0.00     0.066 C 
HETATM   28  C   UNK N   1      31.836  16.524   5.499  0.00  0.00     0.170 C 
HETATM   29  O   UNK N   1      30.902  17.382   6.104  0.00  0.00    -0.391 OA
HETATM   30  C   UNK N   1      31.069  17.227   7.492  0.00  0.00     0.170 C 
HETATM   31  C   UNK N   1      32.388  17.877   7.922  0.00  0.00     0.066 C 
BRANCH  26  32
HETATM   32  O   UNK N   1      34.676  18.067   7.305  0.00  0.00    -0.388 OA
HETATM   33  H   UNK N   1      34.924  18.972   7.549  0.00  0.00     0.210 HD
ENDBRANCH  26  32
ENDBRANCH  25  26
ENDBRANCH  22  25
ENDBRANCH  18  19
ENDBRANCH  14  18
TORSDOF 5
ENDMDL
MODEL 9
REMARK VINA RESULT:      -7.2      7.159     10.551
REMARK  5 active torsions:
REMARK  status: ('A' for Active; 'I' for Inactive)
REMARK       I    between atoms: N_9  and  C_12 
REMARK       I    between atoms: C_12  and  N_14 
REMARK    1  A    between atoms: N_14  and  C_15 
REMARK    2  A    between atoms: C_15  and  C_16 
REMARK    3  A    between atoms: N_19  and  C_22 
REMARK    4  A    between atoms: C_22  and  C_23 
REMARK    5  A    between atoms: C_23  and  O_29 
ROOT
HETATM    1  C   UNK N   1      35.427   9.192  14.606  0.00  0.00     0.030 C 
HETATM    2  C   UNK N   1      36.523  10.161  15.014  0.00  0.00     0.064 A 
HETATM    3  C   UNK N   1      36.056  11.134  16.054  0.00  0.00    -0.013 A 
HETATM    4  C   UNK N   1      35.622  10.859  17.352  0.00  0.00     0.014 A 
HETATM    5  C   UNK N   1      35.240  11.931  18.172  0.00  0.00     0.043 A 
HETATM    6  C   UNK N   1      35.296  13.251  17.686  0.00  0.00     0.118 A 
HETATM    7  C   UNK N   1      35.733  13.503  16.378  0.00  0.00     0.073 A 
HETATM    8  C   UNK N   1      36.112  12.421  15.575  0.00  0.00     0.057 A 
HETATM    9  N   UNK N   1      36.586  12.447  14.242  0.00  0.00    -0.232 N 
HETATM   10  C   UNK N   1      36.842  11.144  13.905  0.00  0.00     0.245 A 
HETATM   11  O   UNK N   1      37.320  10.773  12.851  0.00  0.00    -0.271 OA
HETATM   12  C   UNK N   1      36.744  13.634  13.525  0.00  0.00     0.329 C 
HETATM   13  O   UNK N   1      36.517  14.690  14.090  0.00  0.00    -0.246 OA
HETATM   14  N   UNK N   1      37.131  13.724  12.215  0.00  0.00    -0.342 N 
HETATM   15  F   UNK N   1      34.930  14.280  18.486  0.00  0.00    -0.206 F 
HETATM   16  C   UNK N   1      37.765   9.414  15.468  0.00  0.00     0.030 C 
HETATM   17  H   UNK N   1      37.297  14.639  11.893  0.00  0.00     0.164 HD
ENDROOT
BRANCH  14  18
HETATM   18  C   UNK N   1      37.335  12.692  11.239  0.00  0.00     0.129 C 
BRANCH  18  19
HETATM   19  C   UNK N   1      36.404  12.918  10.052  0.00  0.00     0.007 C 
HETATM   20  C   UNK N   1      36.556  11.794   9.027  0.00  0.00     0.036 C 
HETATM   21  C   UNK N   1      35.926  10.515   9.567  0.00  0.00     0.273 C 
HETATM   22  N   UNK N   1      34.506  10.749   9.828  0.00  0.00     0.091 N 
HETATM   23  C   UNK N   1      34.391  11.683  10.944  0.00  0.00     0.273 C 
HETATM   24  C   UNK N   1      34.947  13.043  10.514  0.00  0.00     0.036 C 
BRANCH  22  25
HETATM   25  C   UNK N   1      33.918   9.471  10.206  0.00  0.00     0.310 C 
BRANCH  25  26
HETATM   26  C   UNK N   1      32.655   9.163   9.377  0.00  0.00     0.088 C 
HETATM   27  C   UNK N   1      33.066   8.709   7.972  0.00  0.00     0.066 C 
HETATM   28  C   UNK N   1      33.609   7.281   8.016  0.00  0.00     0.170 C 
HETATM   29  O   UNK N   1      32.607   6.425   8.503  0.00  0.00    -0.391 OA
HETATM   30  C   UNK N   1      32.487   6.704   9.876  0.00  0.00     0.170 C 
HETATM   31  C   UNK N   1      31.821   8.072  10.061  0.00  0.00     0.066 C 
BRANCH  26  32
HETATM   32  O   UNK N   1      31.858  10.303   9.244  0.00  0.00    -0.388 OA
HETATM   33  H   UNK N   1      31.849  11.253   9.440  0.00  0.00     0.210 HD
ENDBRANCH  26  32
ENDBRANCH  25  26
ENDBRANCH  22  25
ENDBRANCH  18  19
ENDBRANCH  14  18
TORSDOF 5
ENDMDL
