MODEL 1
REMARK VINA RESULT:     -10.0      0.000      0.000
REMARK  0 active torsions:
REMARK  status: ('A' for Active; 'I' for Inactive)
ROOT
HETATM    1  C   UNK N   1      31.374   8.536   4.808  0.00  0.00     0.001 A 
HETATM    2  C   UNK N   1      30.306   8.087   3.999  0.00  0.00     0.001 A 
HETATM    3  C   UNK N   1      33.595  15.784   8.302  0.00  0.00     0.001 A 
HETATM    4  C   UNK N   1      33.033  17.078   8.378  0.00  0.00     0.001 A 
HETATM    5  C   UNK N   1      23.974  11.872   0.138  0.00  0.00     0.001 A 
HETATM    6  C   UNK N   1      23.404  13.166   0.168  0.00  0.00     0.001 A 
HETATM    7  C   UNK N   1      26.605  20.702   4.607  0.00  0.00     0.001 A 
HETATM    8  C   UNK N   1      25.558  20.266   3.763  0.00  0.00     0.001 A 
HETATM    9  C   UNK N   1      31.538   9.907   5.076  0.00  0.00     0.016 A 
HETATM   10  C   UNK N   1      29.392   9.006   3.450  0.00  0.00     0.016 A 
HETATM   11  C   UNK N   1      33.047  14.819   7.437  0.00  0.00     0.016 A 
HETATM   12  C   UNK N   1      31.920  17.419   7.588  0.00  0.00     0.016 A 
HETATM   13  C   UNK N   1      25.156  11.597   0.850  0.00  0.00     0.016 A 
HETATM   14  C   UNK N   1      24.017  14.195   0.906  0.00  0.00     0.016 A 
HETATM   15  C   UNK N   1      27.602  19.802   5.028  0.00  0.00     0.016 A 
HETATM   16  C   UNK N   1      25.502  18.927   3.332  0.00  0.00     0.016 A 
HETATM   17  C   UNK N   1      30.619  10.791   4.515  0.00  0.00     0.022 A 
HETATM   18  C   UNK N   1      29.587  10.356   3.732  0.00  0.00     0.022 A 
HETATM   19  C   UNK N   1      31.946  15.188   6.667  0.00  0.00     0.022 A 
HETATM   20  C   UNK N   1      31.405  16.441   6.741  0.00  0.00     0.022 A 
HETATM   21  C   UNK N   1      25.737  12.638   1.572  0.00  0.00     0.022 A 
HETATM   22  C   UNK N   1      25.186  13.889   1.596  0.00  0.00     0.022 A 
HETATM   23  C   UNK N   1      27.516  18.487   4.581  0.00  0.00     0.022 A 
HETATM   24  C   UNK N   1      26.507  18.066   3.766  0.00  0.00     0.022 A 
HETATM   25  C   UNK N   1      30.482  12.245   4.634  0.00  0.00     0.119 A 
HETATM   26  C   UNK N   1      28.832  11.543   3.384  0.00  0.00     0.119 A 
HETATM   27  C   UNK N   1      31.132  14.426   5.717  0.00  0.00     0.119 A 
HETATM   28  C   UNK N   1      26.940  12.682   2.407  0.00  0.00     0.119 A 
HETATM   29  C   UNK N   1      30.270  16.431   5.838  0.00  0.00     0.119 A 
HETATM   30  C   UNK N   1      26.058  14.684   2.436  0.00  0.00     0.119 A 
HETATM   31  C   UNK N   1      28.321  17.395   4.814  0.00  0.00     0.119 A 
HETATM   32  C   UNK N   1      26.721  16.730   3.521  0.00  0.00     0.119 A 
HETATM   33  N   UNK N   1      29.447  12.671   3.990  0.00  0.00    -0.327 N 
ATOM     34  HN  UNK N   1      29.128  13.638   3.929  1.00  0.00     0.169 HD
HETATM   35  N   UNK N   1      30.165  15.142   5.251  0.00  0.00    -0.327 N 
ATOM     36  HN  UNK N   1      29.456  14.838   4.583  1.00  0.00     0.169 HD
HETATM   37  N   UNK N   1      27.119  13.863   2.905  0.00  0.00    -0.327 N 
ATOM     38  HN  UNK N   1      27.880  14.151   3.520  1.00  0.00     0.169 HD
HETATM   39  N   UNK N   1      27.840  16.303   4.164  0.00  0.00    -0.327 N 
HETATM   40  N   UNK N   1      31.342  13.055   5.421  0.00  0.00    -0.327 N 
HETATM   41  N   UNK N   1      27.750  11.546   2.686  0.00  0.00    -0.327 N 
ATOM     42  HN  UNK N   1      27.445  10.653   2.297  1.00  0.00     0.169 HD
HETATM   43  N   UNK N   1      29.472  17.422   5.645  0.00  0.00    -0.327 N 
ATOM     44  HN  UNK N   1      29.682  18.296   6.127  1.00  0.00     0.169 HD
HETATM   45  N   UNK N   1      25.880  15.931   2.706  0.00  0.00    -0.327 N 
ATOM     46  HN  UNK N   1      25.063  16.384   2.296  1.00  0.00     0.169 HD
HETATM   47  H   UNK N   1      28.222  15.395   4.159  0.00  0.00     0.169 HD
HETATM   48  H   UNK N   1      32.148  12.630   5.792  0.00  0.00     0.169 HD
ENDROOT
TORSDOF 0
ENDMDL
MODEL 2
REMARK VINA RESULT:      -9.9      0.450      6.666
REMARK  0 active torsions:
REMARK  status: ('A' for Active; 'I' for Inactive)
ROOT
HETATM    1  C   UNK N   1      30.968   8.426   3.109  0.00  0.00     0.001 A 
HETATM    2  C   UNK N   1      32.091   8.855   3.852  0.00  0.00     0.001 A 
HETATM    3  C   UNK N   1      24.030  12.007   0.156  0.00  0.00     0.001 A 
HETATM    4  C   UNK N   1      23.500  13.317   0.144  0.00  0.00     0.001 A 
HETATM    5  C   UNK N   1      34.109  15.937   7.737  0.00  0.00     0.001 A 
HETATM    6  C   UNK N   1      33.589  17.252   7.772  0.00  0.00     0.001 A 
HETATM    7  C   UNK N   1      25.695  20.357   3.926  0.00  0.00     0.001 A 
HETATM    8  C   UNK N   1      26.796  20.778   4.706  0.00  0.00     0.001 A 
HETATM    9  C   UNK N   1      29.862   9.279   2.934  0.00  0.00     0.016 A 
HETATM   10  C   UNK N   1      32.117  10.138   4.428  0.00  0.00     0.016 A 
HETATM   11  C   UNK N   1      25.158  11.702   0.940  0.00  0.00     0.016 A 
HETATM   12  C   UNK N   1      24.093  14.332   0.918  0.00  0.00     0.016 A 
HETATM   13  C   UNK N   1      33.427  14.918   7.048  0.00  0.00     0.016 A 
HETATM   14  C   UNK N   1      32.379  17.554   7.120  0.00  0.00     0.016 A 
HETATM   15  C   UNK N   1      25.605  19.024   3.482  0.00  0.00     0.016 A 
HETATM   16  C   UNK N   1      27.814  19.869   5.049  0.00  0.00     0.016 A 
HETATM   17  C   UNK N   1      29.918  10.541   3.520  0.00  0.00     0.022 A 
HETATM   18  C   UNK N   1      31.003  10.954   4.240  0.00  0.00     0.022 A 
HETATM   19  C   UNK N   1      25.721  12.728   1.695  0.00  0.00     0.022 A 
HETATM   20  C   UNK N   1      25.206  13.995   1.684  0.00  0.00     0.022 A 
HETATM   21  C   UNK N   1      32.232  15.250   6.414  0.00  0.00     0.022 A 
HETATM   22  C   UNK N   1      31.729  16.521   6.451  0.00  0.00     0.022 A 
HETATM   23  C   UNK N   1      26.629  18.153   3.841  0.00  0.00     0.022 A 
HETATM   24  C   UNK N   1      27.691  18.558   4.594  0.00  0.00     0.022 A 
HETATM   25  C   UNK N   1      28.974  11.661   3.489  0.00  0.00     0.119 A 
HETATM   26  C   UNK N   1      30.715  12.317   4.638  0.00  0.00     0.119 A 
HETATM   27  C   UNK N   1      26.897  12.752   2.568  0.00  0.00     0.119 A 
HETATM   28  C   UNK N   1      31.299  14.443   5.622  0.00  0.00     0.119 A 
HETATM   29  C   UNK N   1      26.071  14.776   2.546  0.00  0.00     0.119 A 
HETATM   30  C   UNK N   1      30.496  16.476   5.692  0.00  0.00     0.119 A 
HETATM   31  C   UNK N   1      26.824  16.818   3.566  0.00  0.00     0.119 A 
HETATM   32  C   UNK N   1      28.505  17.463   4.761  0.00  0.00     0.119 A 
HETATM   33  N   UNK N   1      29.442  12.684   4.125  0.00  0.00    -0.327 N 
ATOM     34  HN  UNK N   1      28.983  13.588   4.236  1.00  0.00     0.169 HD
HETATM   35  N   UNK N   1      27.099  13.934   3.047  0.00  0.00    -0.327 N 
ATOM     36  HN  UNK N   1      27.857  14.211   3.671  1.00  0.00     0.169 HD
HETATM   37  N   UNK N   1      30.302  15.154   5.206  0.00  0.00    -0.327 N 
ATOM     38  HN  UNK N   1      29.522  14.828   4.636  1.00  0.00     0.169 HD
HETATM   39  N   UNK N   1      27.980  16.380   4.129  0.00  0.00    -0.327 N 
HETATM   40  N   UNK N   1      27.743  11.635   2.783  0.00  0.00    -0.327 N 
HETATM   41  N   UNK N   1      31.519  13.074   5.299  0.00  0.00    -0.327 N 
ATOM     42  HN  UNK N   1      32.392  12.656   5.620  1.00  0.00     0.169 HD
HETATM   43  N   UNK N   1      25.941  16.036   2.776  0.00  0.00    -0.327 N 
ATOM     44  HN  UNK N   1      25.141  16.510   2.357  1.00  0.00     0.169 HD
HETATM   45  N   UNK N   1      29.717  17.484   5.496  0.00  0.00    -0.327 N 
ATOM     46  HN  UNK N   1      29.997  18.375   5.907  1.00  0.00     0.169 HD
HETATM   47  H   UNK N   1      28.357  15.471   4.088  0.00  0.00     0.169 HD
HETATM   48  H   UNK N   1      27.453  10.770   2.412  0.00  0.00     0.169 HD
ENDROOT
TORSDOF 0
ENDMDL
MODEL 3
REMARK VINA RESULT:      -9.9      0.479      9.356
REMARK  0 active torsions:
REMARK  status: ('A' for Active; 'I' for Inactive)
ROOT
HETATM    1  C   UNK N   1      25.617  20.502   4.472  0.00  0.00     0.001 A 
HETATM    2  C   UNK N   1      26.636  20.881   5.374  0.00  0.00     0.001 A 
HETATM    3  C   UNK N   1      23.506  13.510   0.430  0.00  0.00     0.001 A 
HETATM    4  C   UNK N   1      23.989  12.183   0.396  0.00  0.00     0.001 A 
HETATM    5  C   UNK N   1      33.497  17.153   8.267  0.00  0.00     0.001 A 
HETATM    6  C   UNK N   1      34.024  15.842   8.227  0.00  0.00     0.001 A 
HETATM    7  C   UNK N   1      30.767   8.532   3.463  0.00  0.00     0.001 A 
HETATM    8  C   UNK N   1      31.812   8.920   4.332  0.00  0.00     0.001 A 
HETATM    9  C   UNK N   1      25.666  19.252   3.826  0.00  0.00     0.016 A 
HETATM   10  C   UNK N   1      27.714  20.015   5.638  0.00  0.00     0.016 A 
HETATM   11  C   UNK N   1      24.239  14.518   1.081  0.00  0.00     0.016 A 
HETATM   12  C   UNK N   1      25.211  11.853   1.011  0.00  0.00     0.016 A 
HETATM   13  C   UNK N   1      32.334  17.477   7.544  0.00  0.00     0.016 A 
HETATM   14  C   UNK N   1      33.393  14.846   7.460  0.00  0.00     0.016 A 
HETATM   15  C   UNK N   1      29.774   9.456   3.086  0.00  0.00     0.016 A 
HETATM   16  C   UNK N   1      31.873  10.237   4.828  0.00  0.00     0.016 A 
HETATM   17  C   UNK N   1      26.747  18.421   4.106  0.00  0.00     0.022 A 
HETATM   18  C   UNK N   1      27.733  18.789   4.977  0.00  0.00     0.022 A 
HETATM   19  C   UNK N   1      25.445  14.160   1.680  0.00  0.00     0.022 A 
HETATM   20  C   UNK N   1      25.912  12.876   1.644  0.00  0.00     0.022 A 
HETATM   21  C   UNK N   1      31.734  16.467   6.794  0.00  0.00     0.022 A 
HETATM   22  C   UNK N   1      32.247  15.201   6.754  0.00  0.00     0.022 A 
HETATM   23  C   UNK N   1      29.867  10.749   3.594  0.00  0.00     0.022 A 
HETATM   24  C   UNK N   1      30.876  11.124   4.431  0.00  0.00     0.022 A 
HETATM   25  C   UNK N   1      27.067  17.066   3.647  0.00  0.00     0.119 A 
HETATM   26  C   UNK N   1      28.640  17.660   5.044  0.00  0.00     0.119 A 
HETATM   27  C   UNK N   1      26.410  14.944   2.455  0.00  0.00     0.119 A 
HETATM   28  C   UNK N   1      30.535  16.471   5.951  0.00  0.00     0.119 A 
HETATM   29  C   UNK N   1      27.152  12.890   2.395  0.00  0.00     0.119 A 
HETATM   30  C   UNK N   1      31.365  14.448   5.886  0.00  0.00     0.119 A 
HETATM   31  C   UNK N   1      29.067  11.854   3.414  0.00  0.00     0.119 A 
HETATM   32  C   UNK N   1      30.668  12.448   4.740  0.00  0.00     0.119 A 
HETATM   33  N   UNK N   1      28.150  16.629   4.197  0.00  0.00    -0.327 N 
ATOM     34  HN  UNK N   1      28.575  15.713   4.053  1.00  0.00     0.169 HD
HETATM   35  N   UNK N   1      27.384  14.207   2.871  0.00  0.00    -0.327 N 
ATOM     36  HN  UNK N   1      28.175  14.515   3.438  1.00  0.00     0.169 HD
HETATM   37  N   UNK N   1      30.325  15.304   5.433  0.00  0.00    -0.327 N 
ATOM     38  HN  UNK N   1      29.557  15.046   4.813  1.00  0.00     0.169 HD
HETATM   39  N   UNK N   1      29.552  12.911   4.117  0.00  0.00    -0.327 N 
HETATM   40  N   UNK N   1      26.240  16.317   2.769  0.00  0.00    -0.327 N 
HETATM   41  N   UNK N   1      29.681  17.599   5.798  0.00  0.00    -0.327 N 
ATOM     42  HN  UNK N   1      29.917  18.435   6.333  1.00  0.00     0.169 HD
HETATM   43  N   UNK N   1      27.889  11.859   2.622  0.00  0.00    -0.327 N 
ATOM     44  HN  UNK N   1      27.603  10.975   2.201  1.00  0.00     0.169 HD
HETATM   45  N   UNK N   1      31.515  13.203   5.589  0.00  0.00    -0.327 N 
ATOM     46  HN  UNK N   1      32.313  12.719   6.001  1.00  0.00     0.169 HD
HETATM   47  H   UNK N   1      29.175  13.819   4.165  0.00  0.00     0.169 HD
HETATM   48  H   UNK N   1      25.487  16.788   2.345  0.00  0.00     0.169 HD
ENDROOT
TORSDOF 0
ENDMDL
MODEL 4
REMARK VINA RESULT:      -9.9      1.517      6.629
REMARK  0 active torsions:
REMARK  status: ('A' for Active; 'I' for Inactive)
ROOT
HETATM    1  C   UNK N   1      22.621  13.207   0.294  0.00  0.00     0.001 A 
HETATM    2  C   UNK N   1      23.187  11.949  -0.012  0.00  0.00     0.001 A 
HETATM    3  C   UNK N   1      25.324  20.298   3.770  0.00  0.00     0.001 A 
HETATM    4  C   UNK N   1      26.563  20.770   4.260  0.00  0.00     0.001 A 
HETATM    5  C   UNK N   1      30.504   8.333   1.640  0.00  0.00     0.001 A 
HETATM    6  C   UNK N   1      31.748   8.765   2.155  0.00  0.00     0.001 A 
HETATM    7  C   UNK N   1      33.856  17.112   5.709  0.00  0.00     0.001 A 
HETATM    8  C   UNK N   1      34.413  15.840   5.444  0.00  0.00     0.001 A 
HETATM    9  C   UNK N   1      23.335  14.141   1.067  0.00  0.00     0.016 A 
HETATM   10  C   UNK N   1      24.472  11.613   0.455  0.00  0.00     0.016 A 
HETATM   11  C   UNK N   1      25.163  18.943   3.429  0.00  0.00     0.016 A 
HETATM   12  C   UNK N   1      27.649  19.890   4.415  0.00  0.00     0.016 A 
HETATM   13  C   UNK N   1      29.403   9.209   1.607  0.00  0.00     0.016 A 
HETATM   14  C   UNK N   1      31.898  10.076   2.644  0.00  0.00     0.016 A 
HETATM   15  C   UNK N   1      32.517  17.387   5.373  0.00  0.00     0.016 A 
HETATM   16  C   UNK N   1      33.634  14.833   4.843  0.00  0.00     0.016 A 
HETATM   17  C   UNK N   1      24.602  13.776   1.516  0.00  0.00     0.022 A 
HETATM   18  C   UNK N   1      25.148  12.559   1.222  0.00  0.00     0.022 A 
HETATM   19  C   UNK N   1      26.258  18.097   3.595  0.00  0.00     0.022 A 
HETATM   20  C   UNK N   1      27.454  18.555   4.071  0.00  0.00     0.022 A 
HETATM   21  C   UNK N   1      29.584  10.500   2.099  0.00  0.00     0.022 A 
HETATM   22  C   UNK N   1      30.787  10.914   2.600  0.00  0.00     0.022 A 
HETATM   23  C   UNK N   1      31.776  16.367   4.782  0.00  0.00     0.022 A 
HETATM   24  C   UNK N   1      32.313  15.141   4.526  0.00  0.00     0.022 A 
HETATM   25  C   UNK N   1      25.603  14.519   2.287  0.00  0.00     0.119 A 
HETATM   26  C   UNK N   1      26.472  12.571   1.810  0.00  0.00     0.119 A 
HETATM   27  C   UNK N   1      26.430  16.672   3.304  0.00  0.00     0.119 A 
HETATM   28  C   UNK N   1      28.664  11.635   2.201  0.00  0.00     0.119 A 
HETATM   29  C   UNK N   1      28.342  17.408   4.065  0.00  0.00     0.119 A 
HETATM   30  C   UNK N   1      30.589  12.290   3.006  0.00  0.00     0.119 A 
HETATM   31  C   UNK N   1      30.471  16.329   4.347  0.00  0.00     0.119 A 
HETATM   32  C   UNK N   1      31.323  14.384   3.945  0.00  0.00     0.119 A 
HETATM   33  N   UNK N   1      26.681  13.825   2.444  0.00  0.00    -0.327 N 
ATOM     34  HN  UNK N   1      27.526  14.123   2.931  1.00  0.00     0.169 HD
HETATM   35  N   UNK N   1      27.633  16.284   3.567  0.00  0.00    -0.327 N 
ATOM     36  HN  UNK N   1      28.005  15.342   3.441  1.00  0.00     0.169 HD
HETATM   37  N   UNK N   1      29.248  12.665   2.721  0.00  0.00    -0.327 N 
ATOM     38  HN  UNK N   1      28.825  13.577   2.896  1.00  0.00     0.169 HD
HETATM   39  N   UNK N   1      30.179  15.108   3.828  0.00  0.00    -0.327 N 
HETATM   40  N   UNK N   1      25.423  15.856   2.729  0.00  0.00    -0.327 N 
HETATM   41  N   UNK N   1      27.327  11.613   1.713  0.00  0.00    -0.327 N 
ATOM     42  HN  UNK N   1      27.019  10.761   1.245  1.00  0.00     0.169 HD
HETATM   43  N   UNK N   1      29.580  17.432   4.416  0.00  0.00    -0.327 N 
ATOM     44  HN  UNK N   1      29.952  18.314   4.769  1.00  0.00     0.169 HD
HETATM   45  N   UNK N   1      31.496  13.037   3.535  0.00  0.00    -0.327 N 
ATOM     46  HN  UNK N   1      32.418  12.624   3.672  1.00  0.00     0.169 HD
HETATM   47  H   UNK N   1      29.320  14.810   3.449  0.00  0.00     0.169 HD
HETATM   48  H   UNK N   1      24.526  16.248   2.628  0.00  0.00     0.169 HD
ENDROOT
TORSDOF 0
ENDMDL
MODEL 5
REMARK VINA RESULT:      -9.7      2.639      5.286
REMARK  0 active torsions:
REMARK  status: ('A' for Active; 'I' for Inactive)
ROOT
HETATM    1  C   UNK N   1      33.500  15.748   3.992  0.00  0.00     0.001 A 
HETATM    2  C   UNK N   1      33.509  14.437   3.465  0.00  0.00     0.001 A 
HETATM    3  C   UNK N   1      27.641  21.321   6.063  0.00  0.00     0.001 A 
HETATM    4  C   UNK N   1      26.228  21.336   6.082  0.00  0.00     0.001 A 
HETATM    5  C   UNK N   1      27.638   9.368   0.438  0.00  0.00     0.001 A 
HETATM    6  C   UNK N   1      26.224   9.365   0.413  0.00  0.00     0.001 A 
HETATM    7  C   UNK N   1      20.461  16.138   3.181  0.00  0.00     0.001 A 
HETATM    8  C   UNK N   1      20.469  14.844   2.614  0.00  0.00     0.001 A 
HETATM    9  C   UNK N   1      32.302  16.485   4.050  0.00  0.00     0.016 A 
HETATM   10  C   UNK N   1      32.321  13.852   2.989  0.00  0.00     0.016 A 
HETATM   11  C   UNK N   1      28.334  20.264   5.446  0.00  0.00     0.016 A 
HETATM   12  C   UNK N   1      25.496  20.294   5.482  0.00  0.00     0.016 A 
HETATM   13  C   UNK N   1      28.340  10.479   0.941  0.00  0.00     0.016 A 
HETATM   14  C   UNK N   1      25.503  10.477   0.887  0.00  0.00     0.016 A 
HETATM   15  C   UNK N   1      21.671  16.777   3.514  0.00  0.00     0.016 A 
HETATM   16  C   UNK N   1      21.687  14.179   2.373  0.00  0.00     0.016 A 
HETATM   17  C   UNK N   1      31.145  15.878   3.568  0.00  0.00     0.022 A 
HETATM   18  C   UNK N   1      31.155  14.611   3.057  0.00  0.00     0.022 A 
HETATM   19  C   UNK N   1      27.581  19.248   4.860  0.00  0.00     0.022 A 
HETATM   20  C   UNK N   1      26.214  19.265   4.878  0.00  0.00     0.022 A 
HETATM   21  C   UNK N   1      27.596  11.563   1.402  0.00  0.00     0.022 A 
HETATM   22  C   UNK N   1      26.229  11.560   1.373  0.00  0.00     0.022 A 
HETATM   23  C   UNK N   1      22.855  16.091   3.260  0.00  0.00     0.022 A 
HETATM   24  C   UNK N   1      22.863  14.843   2.712  0.00  0.00     0.022 A 
HETATM   25  C   UNK N   1      29.756  16.344   3.528  0.00  0.00     0.119 A 
HETATM   26  C   UNK N   1      29.778  14.316   2.713  0.00  0.00     0.119 A 
HETATM   27  C   UNK N   1      27.985  18.012   4.186  0.00  0.00     0.119 A 
HETATM   28  C   UNK N   1      28.010  12.844   1.980  0.00  0.00     0.119 A 
HETATM   29  C   UNK N   1      25.800  18.043   4.217  0.00  0.00     0.119 A 
HETATM   30  C   UNK N   1      25.823  12.835   1.926  0.00  0.00     0.119 A 
HETATM   31  C   UNK N   1      24.170  16.442   3.470  0.00  0.00     0.119 A 
HETATM   32  C   UNK N   1      24.180  14.463   2.600  0.00  0.00     0.119 A 
HETATM   33  N   UNK N   1      28.973  15.438   3.045  0.00  0.00    -0.327 N 
ATOM     34  HN  UNK N   1      27.963  15.513   2.926  1.00  0.00     0.169 HD
HETATM   35  N   UNK N   1      26.957  17.319   3.826  0.00  0.00    -0.327 N 
ATOM     36  HN  UNK N   1      26.974  16.417   3.349  1.00  0.00     0.169 HD
HETATM   37  N   UNK N   1      26.984  13.573   2.284  0.00  0.00    -0.327 N 
ATOM     38  HN  UNK N   1      27.005  14.503   2.701  1.00  0.00     0.169 HD
HETATM   39  N   UNK N   1      24.998  15.443   3.066  0.00  0.00    -0.327 N 
HETATM   40  N   UNK N   1      29.334  17.603   4.029  0.00  0.00    -0.327 N 
HETATM   41  N   UNK N   1      29.365  13.192   2.240  0.00  0.00    -0.327 N 
ATOM     42  HN  UNK N   1      30.072  12.488   2.031  1.00  0.00     0.169 HD
HETATM   43  N   UNK N   1      24.579  17.669   4.056  0.00  0.00    -0.327 N 
ATOM     44  HN  UNK N   1      23.846  18.302   4.376  1.00  0.00     0.169 HD
HETATM   45  N   UNK N   1      24.601  13.219   2.066  0.00  0.00    -0.327 N 
ATOM     46  HN  UNK N   1      23.872  12.571   1.767  1.00  0.00     0.169 HD
HETATM   47  H   UNK N   1      25.982  15.433   3.102  0.00  0.00     0.169 HD
HETATM   48  H   UNK N   1      30.034  18.244   4.290  0.00  0.00     0.169 HD
ENDROOT
TORSDOF 0
ENDMDL
MODEL 6
REMARK VINA RESULT:      -9.6      1.341      6.758
REMARK  0 active torsions:
REMARK  status: ('A' for Active; 'I' for Inactive)
ROOT
HETATM    1  C   UNK N   1      34.559  15.559   5.662  0.00  0.00     0.001 A 
HETATM    2  C   UNK N   1      34.085  16.877   5.845  0.00  0.00     0.001 A 
HETATM    3  C   UNK N   1      31.567   8.544   2.270  0.00  0.00     0.001 A 
HETATM    4  C   UNK N   1      30.385   8.181   1.586  0.00  0.00     0.001 A 
HETATM    5  C   UNK N   1      26.756  20.626   4.591  0.00  0.00     0.001 A 
HETATM    6  C   UNK N   1      25.548  20.284   3.941  0.00  0.00     0.001 A 
HETATM    7  C   UNK N   1      23.188  12.066   0.248  0.00  0.00     0.001 A 
HETATM    8  C   UNK N   1      22.695  13.373   0.468  0.00  0.00     0.001 A 
HETATM    9  C   UNK N   1      33.696  14.549   5.198  0.00  0.00     0.016 A 
HETATM   10  C   UNK N   1      32.744  17.198   5.566  0.00  0.00     0.016 A 
HETATM   11  C   UNK N   1      31.667   9.794   2.907  0.00  0.00     0.016 A 
HETATM   12  C   UNK N   1      29.292   9.065   1.535  0.00  0.00     0.016 A 
HETATM   13  C   UNK N   1      27.786  19.677   4.726  0.00  0.00     0.016 A 
HETATM   14  C   UNK N   1      25.360  18.989   3.425  0.00  0.00     0.016 A 
HETATM   15  C   UNK N   1      24.484  11.714   0.671  0.00  0.00     0.016 A 
HETATM   16  C   UNK N   1      23.494  14.336   1.113  0.00  0.00     0.016 A 
HETATM   17  C   UNK N   1      32.374  14.898   4.934  0.00  0.00     0.022 A 
HETATM   18  C   UNK N   1      31.916  16.173   5.113  0.00  0.00     0.022 A 
HETATM   19  C   UNK N   1      30.567  10.647   2.839  0.00  0.00     0.022 A 
HETATM   20  C   UNK N   1      29.424  10.294   2.179  0.00  0.00     0.022 A 
HETATM   21  C   UNK N   1      27.569  18.403   4.204  0.00  0.00     0.022 A 
HETATM   22  C   UNK N   1      26.398  18.075   3.579  0.00  0.00     0.022 A 
HETATM   23  C   UNK N   1      25.244  12.691   1.307  0.00  0.00     0.022 A 
HETATM   24  C   UNK N   1      24.769  13.951   1.520  0.00  0.00     0.022 A 
HETATM   25  C   UNK N   1      31.255  14.112   4.407  0.00  0.00     0.119 A 
HETATM   26  C   UNK N   1      30.529  16.154   4.691  0.00  0.00     0.119 A 
HETATM   27  C   UNK N   1      30.364  12.004   3.350  0.00  0.00     0.119 A 
HETATM   28  C   UNK N   1      28.422  17.212   4.172  0.00  0.00     0.119 A 
HETATM   29  C   UNK N   1      28.538  11.436   2.293  0.00  0.00     0.119 A 
HETATM   30  C   UNK N   1      26.544  16.690   3.179  0.00  0.00     0.119 A 
HETATM   31  C   UNK N   1      26.519  12.654   1.824  0.00  0.00     0.119 A 
HETATM   32  C   UNK N   1      25.763  14.651   2.162  0.00  0.00     0.119 A 
HETATM   33  N   UNK N   1      30.200  14.842   4.259  0.00  0.00    -0.327 N 
ATOM     34  HN  UNK N   1      29.297  14.534   3.897  1.00  0.00     0.169 HD
HETATM   35  N   UNK N   1      29.200  12.456   3.025  0.00  0.00    -0.327 N 
ATOM     36  HN  UNK N   1      28.824  13.377   3.254  1.00  0.00     0.169 HD
HETATM   37  N   UNK N   1      27.828  16.228   3.578  0.00  0.00    -0.327 N 
ATOM     38  HN  UNK N   1      28.209  15.295   3.425  1.00  0.00     0.169 HD
HETATM   39  N   UNK N   1      26.851  13.860   2.355  0.00  0.00    -0.327 N 
HETATM   40  N   UNK N   1      31.358  12.745   4.039  0.00  0.00    -0.327 N 
HETATM   41  N   UNK N   1      29.756  17.183   4.666  0.00  0.00    -0.327 N 
ATOM     42  HN  UNK N   1      30.133  18.057   5.034  1.00  0.00     0.169 HD
HETATM   43  N   UNK N   1      27.363  11.513   1.772  0.00  0.00    -0.327 N 
ATOM     44  HN  UNK N   1      27.010  10.691   1.283  1.00  0.00     0.169 HD
HETATM   45  N   UNK N   1      25.645  16.007   2.559  0.00  0.00    -0.327 N 
ATOM     46  HN  UNK N   1      24.771  16.482   2.335  1.00  0.00     0.169 HD
HETATM   47  H   UNK N   1      27.700  14.108   2.789  0.00  0.00     0.169 HD
HETATM   48  H   UNK N   1      32.187  12.273   4.282  0.00  0.00     0.169 HD
ENDROOT
TORSDOF 0
ENDMDL
MODEL 7
REMARK VINA RESULT:      -9.6      2.735      6.826
REMARK  0 active torsions:
REMARK  status: ('A' for Active; 'I' for Inactive)
ROOT
HETATM    1  C   UNK N   1      26.207   9.207   0.153  0.00  0.00     0.001 A 
HETATM    2  C   UNK N   1      27.620   9.208   0.133  0.00  0.00     0.001 A 
HETATM    3  C   UNK N   1      20.256  14.611   2.402  0.00  0.00     0.001 A 
HETATM    4  C   UNK N   1      20.232  15.940   2.879  0.00  0.00     0.001 A 
HETATM    5  C   UNK N   1      33.453  14.440   2.949  0.00  0.00     0.001 A 
HETATM    6  C   UNK N   1      33.463  15.759   3.458  0.00  0.00     0.001 A 
HETATM    7  C   UNK N   1      26.135  21.131   5.504  0.00  0.00     0.001 A 
HETATM    8  C   UNK N   1      27.548  21.119   5.524  0.00  0.00     0.001 A 
HETATM    9  C   UNK N   1      25.504  10.250   0.784  0.00  0.00     0.016 A 
HETATM   10  C   UNK N   1      28.342  10.251   0.743  0.00  0.00     0.016 A 
HETATM   11  C   UNK N   1      21.471  13.907   2.314  0.00  0.00     0.016 A 
HETATM   12  C   UNK N   1      21.423  16.577   3.275  0.00  0.00     0.016 A 
HETATM   13  C   UNK N   1      32.236  13.791   2.673  0.00  0.00     0.016 A 
HETATM   14  C   UNK N   1      32.253  16.437   3.699  0.00  0.00     0.016 A 
HETATM   15  C   UNK N   1      25.419  20.016   5.029  0.00  0.00     0.016 A 
HETATM   16  C   UNK N   1      28.256  19.989   5.072  0.00  0.00     0.016 A 
HETATM   17  C   UNK N   1      26.247  11.265   1.381  0.00  0.00     0.022 A 
HETATM   18  C   UNK N   1      27.613  11.264   1.362  0.00  0.00     0.022 A 
HETATM   19  C   UNK N   1      22.632  14.564   2.714  0.00  0.00     0.022 A 
HETATM   20  C   UNK N   1      22.607  15.850   3.177  0.00  0.00     0.022 A 
HETATM   21  C   UNK N   1      31.056  14.489   2.923  0.00  0.00     0.022 A 
HETATM   22  C   UNK N   1      31.068  15.763   3.419  0.00  0.00     0.022 A 
HETATM   23  C   UNK N   1      26.152  18.916   4.591  0.00  0.00     0.022 A 
HETATM   24  C   UNK N   1      27.516  18.904   4.611  0.00  0.00     0.022 A 
HETATM   25  C   UNK N   1      25.829  12.492   2.065  0.00  0.00     0.119 A 
HETATM   26  C   UNK N   1      28.015  12.486   2.029  0.00  0.00     0.119 A 
HETATM   27  C   UNK N   1      24.033  14.138   2.711  0.00  0.00     0.119 A 
HETATM   28  C   UNK N   1      29.652  14.112   2.743  0.00  0.00     0.119 A 
HETATM   29  C   UNK N   1      23.989  16.194   3.451  0.00  0.00     0.119 A 
HETATM   30  C   UNK N   1      29.677  16.148   3.542  0.00  0.00     0.119 A 
HETATM   31  C   UNK N   1      25.751  17.703   4.081  0.00  0.00     0.119 A 
HETATM   32  C   UNK N   1      27.912  17.684   4.116  0.00  0.00     0.119 A 
HETATM   33  N   UNK N   1      26.850  13.196   2.426  0.00  0.00    -0.327 N 
ATOM     34  HN  UNK N   1      26.825  14.096   2.906  1.00  0.00     0.169 HD
HETATM   35  N   UNK N   1      24.809  15.082   3.127  0.00  0.00    -0.327 N 
ATOM     36  HN  UNK N   1      25.826  15.036   3.208  1.00  0.00     0.169 HD
HETATM   37  N   UNK N   1      28.861  15.072   3.098  0.00  0.00    -0.327 N 
ATOM     38  HN  UNK N   1      27.842  15.060   3.067  1.00  0.00     0.169 HD
HETATM   39  N   UNK N   1      26.829  16.932   3.784  0.00  0.00    -0.327 N 
HETATM   40  N   UNK N   1      24.474  12.878   2.232  0.00  0.00    -0.327 N 
HETATM   41  N   UNK N   1      29.234  12.875   2.175  0.00  0.00    -0.327 N 
ATOM     42  HN  UNK N   1      29.966  12.241   1.857  1.00  0.00     0.169 HD
HETATM   43  N   UNK N   1      24.393  17.340   3.876  0.00  0.00    -0.327 N 
ATOM     44  HN  UNK N   1      23.684  18.043   4.082  1.00  0.00     0.169 HD
HETATM   45  N   UNK N   1      29.266  17.287   3.982  0.00  0.00    -0.327 N 
ATOM     46  HN  UNK N   1      29.978  17.963   4.259  1.00  0.00     0.169 HD
HETATM   47  H   UNK N   1      26.827  16.021   3.408  0.00  0.00     0.169 HD
HETATM   48  H   UNK N   1      23.784  12.217   1.996  0.00  0.00     0.169 HD
ENDROOT
TORSDOF 0
ENDMDL
MODEL 8
REMARK VINA RESULT:      -9.5      2.752      3.884
REMARK  0 active torsions:
REMARK  status: ('A' for Active; 'I' for Inactive)
ROOT
HETATM    1  C   UNK N   1      31.533  10.383  -0.722  0.00  0.00     0.001 A 
HETATM    2  C   UNK N   1      30.141  10.412  -0.962  0.00  0.00     0.001 A 
HETATM    3  C   UNK N   1      36.706  13.739   4.904  0.00  0.00     0.001 A 
HETATM    4  C   UNK N   1      36.555  14.542   6.057  0.00  0.00     0.001 A 
HETATM    5  C   UNK N   1      23.788  14.686   2.310  0.00  0.00     0.001 A 
HETATM    6  C   UNK N   1      23.608  15.518   3.439  0.00  0.00     0.001 A 
HETATM    7  C   UNK N   1      30.125  18.622   9.325  0.00  0.00     0.001 A 
HETATM    8  C   UNK N   1      28.737  18.688   9.062  0.00  0.00     0.001 A 
HETATM    9  C   UNK N   1      32.109  11.236   0.238  0.00  0.00     0.016 A 
HETATM   10  C   UNK N   1      29.313  11.296  -0.245  0.00  0.00     0.016 A 
HETATM   11  C   UNK N   1      35.615  13.515   4.044  0.00  0.00     0.016 A 
HETATM   12  C   UNK N   1      35.313  15.129   6.358  0.00  0.00     0.016 A 
HETATM   13  C   UNK N   1      25.067  14.209   1.972  0.00  0.00     0.016 A 
HETATM   14  C   UNK N   1      24.709  15.883   4.235  0.00  0.00     0.016 A 
HETATM   15  C   UNK N   1      30.969  17.850   8.505  0.00  0.00     0.016 A 
HETATM   16  C   UNK N   1      28.184  17.984   7.975  0.00  0.00     0.016 A 
HETATM   17  C   UNK N   1      31.263  12.100   0.927  0.00  0.00     0.022 A 
HETATM   18  C   UNK N   1      29.917  12.130   0.694  0.00  0.00     0.022 A 
HETATM   19  C   UNK N   1      34.399  14.111   4.370  0.00  0.00     0.022 A 
HETATM   20  C   UNK N   1      34.255  14.890   5.484  0.00  0.00     0.022 A 
HETATM   21  C   UNK N   1      26.137  14.589   2.780  0.00  0.00     0.022 A 
HETATM   22  C   UNK N   1      25.961  15.397   3.869  0.00  0.00     0.022 A 
HETATM   23  C   UNK N   1      30.388  17.169   7.438  0.00  0.00     0.022 A 
HETATM   24  C   UNK N   1      29.050  17.233   7.184  0.00  0.00     0.022 A 
HETATM   25  C   UNK N   1      31.532  13.063   2.000  0.00  0.00     0.119 A 
HETATM   26  C   UNK N   1      29.378  13.102   1.623  0.00  0.00     0.119 A 
HETATM   27  C   UNK N   1      33.088  14.048   3.720  0.00  0.00     0.119 A 
HETATM   28  C   UNK N   1      27.565  14.268   2.710  0.00  0.00     0.119 A 
HETATM   29  C   UNK N   1      32.862  15.291   5.504  0.00  0.00     0.119 A 
HETATM   30  C   UNK N   1      27.279  15.566   4.447  0.00  0.00     0.119 A 
HETATM   31  C   UNK N   1      30.937  16.350   6.478  0.00  0.00     0.119 A 
HETATM   32  C   UNK N   1      28.816  16.454   6.075  0.00  0.00     0.119 A 
HETATM   33  N   UNK N   1      30.443  13.628   2.403  0.00  0.00    -0.327 N 
ATOM     34  HN  UNK N   1      30.362  14.323   3.146  1.00  0.00     0.169 HD
HETATM   35  N   UNK N   1      32.206  14.720   4.381  0.00  0.00    -0.327 N 
ATOM     36  HN  UNK N   1      31.220  14.822   4.141  1.00  0.00     0.169 HD
HETATM   37  N   UNK N   1      28.218  14.831   3.674  0.00  0.00    -0.327 N 
ATOM     38  HN  UNK N   1      29.221  14.762   3.848  1.00  0.00     0.169 HD
HETATM   39  N   UNK N   1      29.975  15.902   5.630  0.00  0.00    -0.327 N 
HETATM   40  N   UNK N   1      32.817  13.276   2.561  0.00  0.00    -0.327 N 
HETATM   41  N   UNK N   1      28.129  13.387   1.745  0.00  0.00    -0.327 N 
ATOM     42  HN  UNK N   1      27.485  12.941   1.092  1.00  0.00     0.169 HD
HETATM   43  N   UNK N   1      32.315  16.011   6.419  0.00  0.00    -0.327 N 
ATOM     44  HN  UNK N   1      32.917  16.366   7.162  1.00  0.00     0.169 HD
HETATM   45  N   UNK N   1      27.536  16.271   5.495  0.00  0.00    -0.327 N 
ATOM     46  HN  UNK N   1      26.749  16.738   5.947  1.00  0.00     0.169 HD
HETATM   47  H   UNK N   1      30.093  15.305   4.856  0.00  0.00     0.169 HD
HETATM   48  H   UNK N   1      33.584  12.853   2.111  0.00  0.00     0.169 HD
ENDROOT
TORSDOF 0
ENDMDL
MODEL 9
REMARK VINA RESULT:      -9.5      2.739      7.248
REMARK  0 active torsions:
REMARK  status: ('A' for Active; 'I' for Inactive)
ROOT
HETATM    1  C   UNK N   1      33.236  14.643   2.792  0.00  0.00     0.001 A 
HETATM    2  C   UNK N   1      33.327  15.950   3.320  0.00  0.00     0.001 A 
HETATM    3  C   UNK N   1      27.046   9.562   0.437  0.00  0.00     0.001 A 
HETATM    4  C   UNK N   1      25.640   9.663   0.350  0.00  0.00     0.001 A 
HETATM    5  C   UNK N   1      27.752  21.493   6.063  0.00  0.00     0.001 A 
HETATM    6  C   UNK N   1      26.344  21.612   6.019  0.00  0.00     0.001 A 
HETATM    7  C   UNK N   1      20.186  15.325   2.971  0.00  0.00     0.001 A 
HETATM    8  C   UNK N   1      20.272  16.616   3.539  0.00  0.00     0.001 A 
HETATM    9  C   UNK N   1      31.986  14.007   2.676  0.00  0.00     0.016 A 
HETATM   10  C   UNK N   1      32.170  16.633   3.738  0.00  0.00     0.016 A 
HETATM   11  C   UNK N   1      27.793  10.561   1.087  0.00  0.00     0.016 A 
HETATM   12  C   UNK N   1      24.968  10.763   0.914  0.00  0.00     0.016 A 
HETATM   13  C   UNK N   1      28.384  20.327   5.594  0.00  0.00     0.016 A 
HETATM   14  C   UNK N   1      25.558  20.562   5.510  0.00  0.00     0.016 A 
HETATM   15  C   UNK N   1      21.353  14.588   2.697  0.00  0.00     0.016 A 
HETATM   16  C   UNK N   1      21.527  17.180   3.839  0.00  0.00     0.016 A 
HETATM   17  C   UNK N   1      30.861  14.708   3.102  0.00  0.00     0.022 A 
HETATM   18  C   UNK N   1      30.950  15.972   3.614  0.00  0.00     0.022 A 
HETATM   19  C   UNK N   1      27.099  11.637   1.637  0.00  0.00     0.022 A 
HETATM   20  C   UNK N   1      25.738  11.732   1.553  0.00  0.00     0.022 A 
HETATM   21  C   UNK N   1      27.577  19.306   5.097  0.00  0.00     0.022 A 
HETATM   22  C   UNK N   1      26.215  19.422   5.059  0.00  0.00     0.022 A 
HETATM   23  C   UNK N   1      22.577  15.175   3.008  0.00  0.00     0.022 A 
HETATM   24  C   UNK N   1      22.660  16.421   3.557  0.00  0.00     0.022 A 
HETATM   25  C   UNK N   1      29.438  14.357   3.074  0.00  0.00     0.119 A 
HETATM   26  C   UNK N   1      29.587  16.380   3.890  0.00  0.00     0.119 A 
HETATM   27  C   UNK N   1      27.570  12.837   2.330  0.00  0.00     0.119 A 
HETATM   28  C   UNK N   1      27.912  17.993   4.538  0.00  0.00     0.119 A 
HETATM   29  C   UNK N   1      25.394  12.986   2.194  0.00  0.00     0.119 A 
HETATM   30  C   UNK N   1      25.733  18.182   4.486  0.00  0.00     0.119 A 
HETATM   31  C   UNK N   1      23.866  14.718   2.862  0.00  0.00     0.119 A 
HETATM   32  C   UNK N   1      23.997  16.691   3.733  0.00  0.00     0.119 A 
HETATM   33  N   UNK N   1      28.710  15.326   3.520  0.00  0.00    -0.327 N 
ATOM     34  HN  UNK N   1      27.692  15.334   3.590  1.00  0.00     0.169 HD
HETATM   35  N   UNK N   1      26.586  13.614   2.640  0.00  0.00    -0.327 N 
ATOM     36  HN  UNK N   1      26.654  14.513   3.118  1.00  0.00     0.169 HD
HETATM   37  N   UNK N   1      26.846  17.350   4.185  0.00  0.00    -0.327 N 
ATOM     38  HN  UNK N   1      26.810  16.420   3.769  1.00  0.00     0.169 HD
HETATM   39  N   UNK N   1      24.753  15.646   3.306  0.00  0.00    -0.327 N 
HETATM   40  N   UNK N   1      28.939  13.135   2.552  0.00  0.00    -0.327 N 
HETATM   41  N   UNK N   1      29.245  17.535   4.344  0.00  0.00    -0.327 N 
ATOM     42  HN  UNK N   1      29.997  18.180   4.587  1.00  0.00     0.169 HD
HETATM   43  N   UNK N   1      24.201  13.460   2.295  0.00  0.00    -0.327 N 
ATOM     44  HN  UNK N   1      23.436  12.887   1.940  1.00  0.00     0.169 HD
HETATM   45  N   UNK N   1      24.492  17.899   4.287  0.00  0.00    -0.327 N 
ATOM     46  HN  UNK N   1      23.805  18.605   4.552  1.00  0.00     0.169 HD
HETATM   47  H   UNK N   1      25.735  15.576   3.318  0.00  0.00     0.169 HD
HETATM   48  H   UNK N   1      29.596  12.439   2.325  0.00  0.00     0.169 HD
ENDROOT
TORSDOF 0
ENDMDL
