MODEL 1
REMARK VINA RESULT:      -5.7      0.000      0.000
REMARK  7 active torsions:
REMARK  status: ('A' for Active; 'I' for Inactive)
REMARK    1  A    between atoms: C_3  and  C_9 
REMARK    2  A    between atoms: C_4  and  N_8 
REMARK    3  A    between atoms: C_9  and  C_11 
REMARK    4  A    between atoms: C_11  and  C_12 
REMARK    5  A    between atoms: C_12  and  C_13 
REMARK    6  A    between atoms: C_12  and  N_16 
REMARK    7  A    between atoms: C_13  and  O_15 
ROOT
HETATM    1  C   UNK N   1      30.558  17.300   7.921  0.00  0.00     0.164 C 
HETATM    2  O   UNK N   1      30.216  16.977   9.051  0.00  0.00    -0.292 OA
ENDROOT
BRANCH   1   3
HETATM    3  C   UNK N   1      29.531  17.764   6.941  0.00  0.00     0.036 A 
HETATM    4  C   UNK N   1      29.750  17.510   5.576  0.00  0.00     0.019 A 
HETATM    5  C   UNK N   1      28.846  17.959   4.609  0.00  0.00     0.025 A 
HETATM    6  C   UNK N   1      27.705  18.661   4.993  0.00  0.00     0.036 A 
HETATM    7  C   UNK N   1      27.459  18.905   6.343  0.00  0.00     0.053 A 
HETATM    8 Cl   UNK N   1      26.582  19.245   3.785  0.00  0.00    -0.084 Cl
HETATM    9  C   UNK N   1      28.356  18.468   7.320  0.00  0.00     0.041 A 
BRANCH   9  10
HETATM   10  N   UNK N   1      28.053  18.733   8.671  0.00  0.00    -0.398 N 
HETATM   11  H   UNK N   1      28.777  18.891   9.320  0.00  0.00     0.156 HD
HETATM   12  H   UNK N   1      27.115  18.760   8.967  0.00  0.00     0.156 HD
ENDBRANCH   9  10
ENDBRANCH   1   3
BRANCH   1  13
HETATM   13  C   UNK N   1      31.994  17.132   7.525  0.00  0.00     0.119 C 
BRANCH  13  14
HETATM   14  C   UNK N   1      32.962  17.746   8.520  0.00  0.00     0.180 C 
BRANCH  14  15
HETATM   15  C   UNK N   1      34.163  18.253   7.772  0.00  0.00     0.163 C 
HETATM   16  O   UNK N   1      34.372  17.917   6.618  0.00  0.00    -0.648 OA
BRANCH  15  17
HETATM   17  O   UNK N   1      35.022  19.091   8.387  0.00  0.00    -0.775 OA
HETATM   18  H   UNK N   1      34.700  19.757   8.962  0.00  0.00     0.167 HD
ENDBRANCH  15  17
ENDBRANCH  14  15
BRANCH  14  19
HETATM   19  N   UNK N   1      33.341  16.748   9.510  0.00  0.00    -0.417 N 
HETATM   20  H   UNK N   1      33.497  17.022  10.481  0.00  0.00     0.150 HD
HETATM   21  H   UNK N   1      33.451  15.772   9.233  0.00  0.00     0.150 HD
ENDBRANCH  14  19
ENDBRANCH  13  14
ENDBRANCH   1  13
TORSDOF 7
ENDMDL
MODEL 2
REMARK VINA RESULT:      -5.7      1.745      2.367
REMARK  7 active torsions:
REMARK  status: ('A' for Active; 'I' for Inactive)
REMARK    1  A    between atoms: C_3  and  C_9 
REMARK    2  A    between atoms: C_4  and  N_8 
REMARK    3  A    between atoms: C_9  and  C_11 
REMARK    4  A    between atoms: C_11  and  C_12 
REMARK    5  A    between atoms: C_12  and  C_13 
REMARK    6  A    between atoms: C_12  and  N_16 
REMARK    7  A    between atoms: C_13  and  O_15 
ROOT
HETATM    1  C   UNK N   1      32.493  15.388   8.195  0.00  0.00     0.164 C 
HETATM    2  O   UNK N   1      32.221  14.279   8.633  0.00  0.00    -0.292 OA
ENDROOT
BRANCH   1   3
HETATM    3  C   UNK N   1      31.455  16.169   7.458  0.00  0.00     0.036 A 
HETATM    4  C   UNK N   1      31.489  16.164   6.053  0.00  0.00     0.019 A 
HETATM    5  C   UNK N   1      30.571  16.910   5.310  0.00  0.00     0.025 A 
HETATM    6  C   UNK N   1      29.597  17.666   5.961  0.00  0.00     0.036 A 
HETATM    7  C   UNK N   1      29.533  17.669   7.353  0.00  0.00     0.053 A 
HETATM    8 Cl   UNK N   1      28.460  18.621   5.036  0.00  0.00    -0.084 Cl
HETATM    9  C   UNK N   1      30.448  16.933   8.109  0.00  0.00     0.041 A 
BRANCH   9  10
HETATM   10  N   UNK N   1      30.332  16.962   9.513  0.00  0.00    -0.398 N 
HETATM   11  H   UNK N   1      30.825  17.633  10.038  0.00  0.00     0.156 HD
HETATM   12  H   UNK N   1      29.754  16.310   9.971  0.00  0.00     0.156 HD
ENDBRANCH   9  10
ENDBRANCH   1   3
BRANCH   1  13
HETATM   13  C   UNK N   1      33.897  15.895   8.333  0.00  0.00     0.119 C 
BRANCH  13  14
HETATM   14  C   UNK N   1      33.980  17.239   9.033  0.00  0.00     0.180 C 
BRANCH  14  15
HETATM   15  C   UNK N   1      34.595  18.236   8.091  0.00  0.00     0.163 C 
HETATM   16  O   UNK N   1      35.265  19.165   8.511  0.00  0.00    -0.648 OA
BRANCH  15  17
HETATM   17  O   UNK N   1      34.404  18.100   6.764  0.00  0.00    -0.775 OA
HETATM   18  H   UNK N   1      35.041  17.659   6.238  0.00  0.00     0.167 HD
ENDBRANCH  15  17
ENDBRANCH  14  15
BRANCH  14  19
HETATM   19  N   UNK N   1      34.770  17.107  10.249  0.00  0.00    -0.417 N 
HETATM   20  H   UNK N   1      35.692  17.539  10.312  0.00  0.00     0.150 HD
HETATM   21  H   UNK N   1      34.400  16.580  11.041  0.00  0.00     0.150 HD
ENDBRANCH  14  19
ENDBRANCH  13  14
ENDBRANCH   1  13
TORSDOF 7
ENDMDL
MODEL 3
REMARK VINA RESULT:      -5.6      8.259     10.868
REMARK  7 active torsions:
REMARK  status: ('A' for Active; 'I' for Inactive)
REMARK    1  A    between atoms: C_3  and  C_9 
REMARK    2  A    between atoms: C_4  and  N_8 
REMARK    3  A    between atoms: C_9  and  C_11 
REMARK    4  A    between atoms: C_11  and  C_12 
REMARK    5  A    between atoms: C_12  and  C_13 
REMARK    6  A    between atoms: C_12  and  N_16 
REMARK    7  A    between atoms: C_13  and  O_15 
ROOT
HETATM    1  C   UNK N   1      21.438  19.684   3.277  0.00  0.00     0.164 C 
HETATM    2  O   UNK N   1      20.704  20.138   4.144  0.00  0.00    -0.292 OA
ENDROOT
BRANCH   1   3
HETATM    3  C   UNK N   1      22.914  19.644   3.503  0.00  0.00     0.036 A 
HETATM    4  C   UNK N   1      23.726  20.521   2.763  0.00  0.00     0.019 A 
HETATM    5  C   UNK N   1      25.116  20.500   2.900  0.00  0.00     0.025 A 
HETATM    6  C   UNK N   1      25.716  19.605   3.785  0.00  0.00     0.036 A 
HETATM    7  C   UNK N   1      24.928  18.741   4.543  0.00  0.00     0.053 A 
HETATM    8 Cl   UNK N   1      27.459  19.557   3.942  0.00  0.00    -0.084 Cl
HETATM    9  C   UNK N   1      23.538  18.748   4.413  0.00  0.00     0.041 A 
BRANCH   9  10
HETATM   10  N   UNK N   1      22.788  17.860   5.211  0.00  0.00    -0.398 N 
HETATM   11  H   UNK N   1      23.198  17.432   5.997  0.00  0.00     0.156 HD
HETATM   12  H   UNK N   1      21.850  17.666   4.981  0.00  0.00     0.156 HD
ENDBRANCH   9  10
ENDBRANCH   1   3
BRANCH   1  13
HETATM   13  C   UNK N   1      20.838  19.263   1.970  0.00  0.00     0.119 C 
BRANCH  13  14
HETATM   14  C   UNK N   1      19.952  18.038   2.088  0.00  0.00     0.180 C 
BRANCH  14  15
HETATM   15  C   UNK N   1      20.070  17.233   0.824  0.00  0.00     0.163 C 
HETATM   16  O   UNK N   1      19.944  16.019   0.838  0.00  0.00    -0.648 OA
BRANCH  15  17
HETATM   17  O   UNK N   1      20.318  17.862  -0.342  0.00  0.00    -0.775 OA
HETATM   18  H   UNK N   1      21.056  17.615  -0.863  0.00  0.00     0.167 HD
ENDBRANCH  15  17
ENDBRANCH  14  15
BRANCH  14  19
HETATM   19  N   UNK N   1      18.575  18.452   2.321  0.00  0.00    -0.417 N 
HETATM   20  H   UNK N   1      17.803  17.914   1.927  0.00  0.00     0.150 HD
HETATM   21  H   UNK N   1      18.383  19.284   2.880  0.00  0.00     0.150 HD
ENDBRANCH  14  19
ENDBRANCH  13  14
ENDBRANCH   1  13
TORSDOF 7
ENDMDL
MODEL 4
REMARK VINA RESULT:      -5.6      7.345     10.119
REMARK  7 active torsions:
REMARK  status: ('A' for Active; 'I' for Inactive)
REMARK    1  A    between atoms: C_3  and  C_9 
REMARK    2  A    between atoms: C_4  and  N_8 
REMARK    3  A    between atoms: C_9  and  C_11 
REMARK    4  A    between atoms: C_11  and  C_12 
REMARK    5  A    between atoms: C_12  and  C_13 
REMARK    6  A    between atoms: C_12  and  N_16 
REMARK    7  A    between atoms: C_13  and  O_15 
ROOT
HETATM    1  C   UNK N   1      22.297  18.462   3.677  0.00  0.00     0.164 C 
HETATM    2  O   UNK N   1      21.977  17.282   3.723  0.00  0.00    -0.292 OA
ENDROOT
BRANCH   1   3
HETATM    3  C   UNK N   1      23.715  18.855   3.938  0.00  0.00     0.036 A 
HETATM    4  C   UNK N   1      24.236  19.965   3.252  0.00  0.00     0.019 A 
HETATM    5  C   UNK N   1      25.567  20.354   3.422  0.00  0.00     0.025 A 
HETATM    6  C   UNK N   1      26.396  19.642   4.288  0.00  0.00     0.036 A 
HETATM    7  C   UNK N   1      25.894  18.550   4.994  0.00  0.00     0.053 A 
HETATM    8 Cl   UNK N   1      28.071  20.110   4.486  0.00  0.00    -0.084 Cl
HETATM    9  C   UNK N   1      24.567  18.147   4.829  0.00  0.00     0.041 A 
BRANCH   9  10
HETATM   10  N   UNK N   1      24.107  17.043   5.575  0.00  0.00    -0.398 N 
HETATM   11  H   UNK N   1      23.192  17.035   5.938  0.00  0.00     0.156 HD
HETATM   12  H   UNK N   1      24.704  16.276   5.734  0.00  0.00     0.156 HD
ENDBRANCH   9  10
ENDBRANCH   1   3
BRANCH   1  13
HETATM   13  C   UNK N   1      21.232  19.492   3.450  0.00  0.00     0.119 C 
BRANCH  13  14
HETATM   14  C   UNK N   1      20.589  19.390   2.080  0.00  0.00     0.180 C 
BRANCH  14  15
HETATM   15  C   UNK N   1      20.905  20.639   1.305  0.00  0.00     0.163 C 
HETATM   16  O   UNK N   1      21.064  20.605   0.096  0.00  0.00    -0.648 OA
BRANCH  15  17
HETATM   17  O   UNK N   1      21.013  21.814   1.956  0.00  0.00    -0.775 OA
HETATM   18  H   UNK N   1      20.791  22.615   1.524  0.00  0.00     0.167 HD
ENDBRANCH  15  17
ENDBRANCH  14  15
BRANCH  14  19
HETATM   19  N   UNK N   1      19.151  19.213   2.228  0.00  0.00    -0.417 N 
HETATM   20  H   UNK N   1      18.528  20.021   2.200  0.00  0.00     0.150 HD
HETATM   21  H   UNK N   1      18.765  18.278   2.362  0.00  0.00     0.150 HD
ENDBRANCH  14  19
ENDBRANCH  13  14
ENDBRANCH   1  13
TORSDOF 7
ENDMDL
MODEL 5
REMARK VINA RESULT:      -5.5      2.934      4.241
REMARK  7 active torsions:
REMARK  status: ('A' for Active; 'I' for Inactive)
REMARK    1  A    between atoms: C_3  and  C_9 
REMARK    2  A    between atoms: C_4  and  N_8 
REMARK    3  A    between atoms: C_9  and  C_11 
REMARK    4  A    between atoms: C_11  and  C_12 
REMARK    5  A    between atoms: C_12  and  C_13 
REMARK    6  A    between atoms: C_12  and  N_16 
REMARK    7  A    between atoms: C_13  and  O_15 
ROOT
HETATM    1  C   UNK N   1      34.527  17.279   8.496  0.00  0.00     0.164 C 
HETATM    2  O   UNK N   1      34.989  18.354   8.853  0.00  0.00    -0.292 OA
ENDROOT
BRANCH   1   3
HETATM    3  C   UNK N   1      33.445  17.244   7.466  0.00  0.00     0.036 A 
HETATM    4  C   UNK N   1      33.814  17.258   6.110  0.00  0.00     0.019 A 
HETATM    5  C   UNK N   1      32.846  17.270   5.103  0.00  0.00     0.025 A 
HETATM    6  C   UNK N   1      31.492  17.260   5.437  0.00  0.00     0.036 A 
HETATM    7  C   UNK N   1      31.105  17.226   6.775  0.00  0.00     0.053 A 
HETATM    8 Cl   UNK N   1      30.275  17.301   4.179  0.00  0.00    -0.084 Cl
HETATM    9  C   UNK N   1      32.062  17.219   7.792  0.00  0.00     0.041 A 
BRANCH   9  10
HETATM   10  N   UNK N   1      31.615  17.174   9.129  0.00  0.00    -0.398 N 
HETATM   11  H   UNK N   1      32.132  16.683   9.808  0.00  0.00     0.156 HD
HETATM   12  H   UNK N   1      30.783  17.634   9.383  0.00  0.00     0.156 HD
ENDBRANCH   9  10
ENDBRANCH   1   3
BRANCH   1  13
HETATM   13  C   UNK N   1      34.999  16.028   9.173  0.00  0.00     0.119 C 
BRANCH  13  14
HETATM   14  C   UNK N   1      34.703  16.007  10.661  0.00  0.00     0.180 C 
BRANCH  14  15
HETATM   15  C   UNK N   1      35.979  15.720  11.402  0.00  0.00     0.163 C 
HETATM   16  O   UNK N   1      35.960  15.220  12.515  0.00  0.00    -0.648 OA
BRANCH  15  17
HETATM   17  O   UNK N   1      37.161  16.019  10.828  0.00  0.00    -0.775 OA
HETATM   18  H   UNK N   1      37.796  15.347  10.678  0.00  0.00     0.167 HD
ENDBRANCH  15  17
ENDBRANCH  14  15
BRANCH  14  19
HETATM   19  N   UNK N   1      33.693  14.997  10.942  0.00  0.00    -0.417 N 
HETATM   20  H   UNK N   1      32.900  14.873  10.311  0.00  0.00     0.150 HD
HETATM   21  H   UNK N   1      33.778  14.411  11.774  0.00  0.00     0.150 HD
ENDBRANCH  14  19
ENDBRANCH  13  14
ENDBRANCH   1  13
TORSDOF 7
ENDMDL
MODEL 6
REMARK VINA RESULT:      -5.4      6.202      8.279
REMARK  7 active torsions:
REMARK  status: ('A' for Active; 'I' for Inactive)
REMARK    1  A    between atoms: C_3  and  C_9 
REMARK    2  A    between atoms: C_4  and  N_8 
REMARK    3  A    between atoms: C_9  and  C_11 
REMARK    4  A    between atoms: C_11  and  C_12 
REMARK    5  A    between atoms: C_12  and  C_13 
REMARK    6  A    between atoms: C_12  and  N_16 
REMARK    7  A    between atoms: C_13  and  O_15 
ROOT
HETATM    1  C   UNK N   1      36.051  15.000   9.933  0.00  0.00     0.164 C 
HETATM    2  O   UNK N   1      37.197  15.421  10.013  0.00  0.00    -0.292 OA
ENDROOT
BRANCH   1   3
HETATM    3  C   UNK N   1      35.622  13.853  10.789  0.00  0.00     0.036 A 
HETATM    4  C   UNK N   1      35.071  12.723  10.161  0.00  0.00     0.019 A 
HETATM    5  C   UNK N   1      34.612  11.638  10.912  0.00  0.00     0.025 A 
HETATM    6  C   UNK N   1      34.705  11.662  12.303  0.00  0.00     0.036 A 
HETATM    7  C   UNK N   1      35.267  12.765  12.944  0.00  0.00     0.053 A 
HETATM    8 Cl   UNK N   1      34.110  10.316  13.249  0.00  0.00    -0.084 Cl
HETATM    9  C   UNK N   1      35.724  13.860  12.206  0.00  0.00     0.041 A 
BRANCH   9  10
HETATM   10  N   UNK N   1      36.293  14.944  12.904  0.00  0.00    -0.398 N 
HETATM   11  H   UNK N   1      37.239  15.180  12.770  0.00  0.00     0.156 HD
HETATM   12  H   UNK N   1      35.741  15.469  13.529  0.00  0.00     0.156 HD
ENDBRANCH   9  10
ENDBRANCH   1   3
BRANCH   1  13
HETATM   13  C   UNK N   1      35.132  15.594   8.908  0.00  0.00     0.119 C 
BRANCH  13  14
HETATM   14  C   UNK N   1      34.531  16.918   9.342  0.00  0.00     0.180 C 
BRANCH  14  15
HETATM   15  C   UNK N   1      34.794  17.941   8.273  0.00  0.00     0.163 C 
HETATM   16  O   UNK N   1      35.200  19.056   8.556  0.00  0.00    -0.648 OA
BRANCH  15  17
HETATM   17  O   UNK N   1      34.579  17.620   6.981  0.00  0.00    -0.775 OA
HETATM   18  H   UNK N   1      33.762  17.245   6.718  0.00  0.00     0.167 HD
ENDBRANCH  15  17
ENDBRANCH  14  15
BRANCH  14  19
HETATM   19  N   UNK N   1      35.115  17.324  10.613  0.00  0.00    -0.417 N 
HETATM   20  H   UNK N   1      34.771  18.156  11.094  0.00  0.00     0.150 HD
HETATM   21  H   UNK N   1      35.870  16.775  11.024  0.00  0.00     0.150 HD
ENDBRANCH  14  19
ENDBRANCH  13  14
ENDBRANCH   1  13
TORSDOF 7
ENDMDL
MODEL 7
REMARK VINA RESULT:      -5.4     10.959     12.987
REMARK  7 active torsions:
REMARK  status: ('A' for Active; 'I' for Inactive)
REMARK    1  A    between atoms: C_3  and  C_9 
REMARK    2  A    between atoms: C_4  and  N_8 
REMARK    3  A    between atoms: C_9  and  C_11 
REMARK    4  A    between atoms: C_11  and  C_12 
REMARK    5  A    between atoms: C_12  and  C_13 
REMARK    6  A    between atoms: C_12  and  N_16 
REMARK    7  A    between atoms: C_13  and  O_15 
ROOT
HETATM    1  C   UNK N   1      35.151  12.932  16.058  0.00  0.00     0.164 C 
HETATM    2  O   UNK N   1      34.045  13.133  15.575  0.00  0.00    -0.292 OA
ENDROOT
BRANCH   1   3
HETATM    3  C   UNK N   1      35.268  12.243  17.378  0.00  0.00     0.036 A 
HETATM    4  C   UNK N   1      35.340  10.839  17.393  0.00  0.00     0.019 A 
HETATM    5  C   UNK N   1      35.406  10.137  18.599  0.00  0.00     0.025 A 
HETATM    6  C   UNK N   1      35.411  10.829  19.810  0.00  0.00     0.036 A 
HETATM    7  C   UNK N   1      35.361  12.221  19.817  0.00  0.00     0.053 A 
HETATM    8 Cl   UNK N   1      35.470   9.953  21.324  0.00  0.00    -0.084 Cl
HETATM    9  C   UNK N   1      35.288  12.936  18.619  0.00  0.00     0.041 A 
BRANCH   9  10
HETATM   10  N   UNK N   1      35.251  14.344  18.683  0.00  0.00    -0.398 N 
HETATM   11  H   UNK N   1      36.086  14.864  18.661  0.00  0.00     0.156 HD
HETATM   12  H   UNK N   1      34.385  14.809  18.749  0.00  0.00     0.156 HD
ENDBRANCH   9  10
ENDBRANCH   1   3
BRANCH   1  13
HETATM   13  C   UNK N   1      36.358  13.468  15.349  0.00  0.00     0.119 C 
BRANCH  13  14
HETATM   14  C   UNK N   1      36.448  13.019  13.903  0.00  0.00     0.180 C 
BRANCH  14  15
HETATM   15  C   UNK N   1      35.671  13.982  13.050  0.00  0.00     0.163 C 
HETATM   16  O   UNK N   1      36.127  15.078  12.765  0.00  0.00    -0.648 OA
BRANCH  15  17
HETATM   17  O   UNK N   1      34.454  13.630  12.592  0.00  0.00    -0.775 OA
HETATM   18  H   UNK N   1      33.947  12.987  13.047  0.00  0.00     0.167 HD
ENDBRANCH  15  17
ENDBRANCH  14  15
BRANCH  14  19
HETATM   19  N   UNK N   1      35.924  11.666  13.780  0.00  0.00    -0.417 N 
HETATM   20  H   UNK N   1      36.554  10.887  13.586  0.00  0.00     0.150 HD
HETATM   21  H   UNK N   1      34.924  11.497  13.887  0.00  0.00     0.150 HD
ENDBRANCH  14  19
ENDBRANCH  13  14
ENDBRANCH   1  13
TORSDOF 7
ENDMDL
MODEL 8
REMARK VINA RESULT:      -5.4      2.554      3.894
REMARK  7 active torsions:
REMARK  status: ('A' for Active; 'I' for Inactive)
REMARK    1  A    between atoms: C_3  and  C_9 
REMARK    2  A    between atoms: C_4  and  N_8 
REMARK    3  A    between atoms: C_9  and  C_11 
REMARK    4  A    between atoms: C_11  and  C_12 
REMARK    5  A    between atoms: C_12  and  C_13 
REMARK    6  A    between atoms: C_12  and  N_16 
REMARK    7  A    between atoms: C_13  and  O_15 
ROOT
HETATM    1  C   UNK N   1      33.984  17.242   7.288  0.00  0.00     0.164 C 
HETATM    2  O   UNK N   1      34.656  18.264   7.269  0.00  0.00    -0.292 OA
ENDROOT
BRANCH   1   3
HETATM    3  C   UNK N   1      32.548  17.293   6.881  0.00  0.00     0.036 A 
HETATM    4  C   UNK N   1      31.570  17.343   7.890  0.00  0.00     0.019 A 
HETATM    5  C   UNK N   1      30.210  17.348   7.571  0.00  0.00     0.025 A 
HETATM    6  C   UNK N   1      29.806  17.312   6.237  0.00  0.00     0.036 A 
HETATM    7  C   UNK N   1      30.759  17.283   5.221  0.00  0.00     0.053 A 
HETATM    8 Cl   UNK N   1      28.103  17.295   5.833  0.00  0.00    -0.084 Cl
HETATM    9  C   UNK N   1      32.122  17.272   5.525  0.00  0.00     0.041 A 
BRANCH   9  10
HETATM   10  N   UNK N   1      33.044  17.252   4.458  0.00  0.00    -0.398 N 
HETATM   11  H   UNK N   1      33.249  16.408   3.995  0.00  0.00     0.156 HD
HETATM   12  H   UNK N   1      33.484  18.086   4.175  0.00  0.00     0.156 HD
ENDBRANCH   9  10
ENDBRANCH   1   3
BRANCH   1  13
HETATM   13  C   UNK N   1      34.603  15.980   7.808  0.00  0.00     0.119 C 
BRANCH  13  14
HETATM   14  C   UNK N   1      34.659  15.924   9.323  0.00  0.00     0.180 C 
BRANCH  14  15
HETATM   15  C   UNK N   1      33.571  15.011   9.813  0.00  0.00     0.163 C 
HETATM   16  O   UNK N   1      32.957  14.294   9.039  0.00  0.00    -0.648 OA
BRANCH  15  17
HETATM   17  O   UNK N   1      33.269  14.983  11.126  0.00  0.00    -0.775 OA
HETATM   18  H   UNK N   1      32.803  15.694  11.518  0.00  0.00     0.167 HD
ENDBRANCH  15  17
ENDBRANCH  14  15
BRANCH  14  19
HETATM   19  N   UNK N   1      34.504  17.266   9.866  0.00  0.00    -0.417 N 
HETATM   20  H   UNK N   1      35.275  17.933   9.817  0.00  0.00     0.150 HD
HETATM   21  H   UNK N   1      33.620  17.541  10.297  0.00  0.00     0.150 HD
ENDBRANCH  14  19
ENDBRANCH  13  14
ENDBRANCH   1  13
TORSDOF 7
ENDMDL
MODEL 9
REMARK VINA RESULT:      -5.3     10.960     11.817
REMARK  7 active torsions:
REMARK  status: ('A' for Active; 'I' for Inactive)
REMARK    1  A    between atoms: C_3  and  C_9 
REMARK    2  A    between atoms: C_4  and  N_8 
REMARK    3  A    between atoms: C_9  and  C_11 
REMARK    4  A    between atoms: C_11  and  C_12 
REMARK    5  A    between atoms: C_12  and  C_13 
REMARK    6  A    between atoms: C_12  and  N_16 
REMARK    7  A    between atoms: C_13  and  O_15 
ROOT
HETATM    1  C   UNK N   1      20.465  16.677   3.366  0.00  0.00     0.164 C 
HETATM    2  O   UNK N   1      19.540  16.334   4.090  0.00  0.00    -0.292 OA
ENDROOT
BRANCH   1   3
HETATM    3  C   UNK N   1      21.136  15.667   2.494  0.00  0.00     0.036 A 
HETATM    4  C   UNK N   1      22.516  15.456   2.657  0.00  0.00     0.019 A 
HETATM    5  C   UNK N   1      23.206  14.556   1.842  0.00  0.00     0.025 A 
HETATM    6  C   UNK N   1      22.524  13.845   0.855  0.00  0.00     0.036 A 
HETATM    7  C   UNK N   1      21.152  14.024   0.690  0.00  0.00     0.053 A 
HETATM    8 Cl   UNK N   1      23.388  12.734  -0.185  0.00  0.00    -0.084 Cl
HETATM    9  C   UNK N   1      20.450  14.925   1.495  0.00  0.00     0.041 A 
BRANCH   9  10
HETATM   10  N   UNK N   1      19.062  15.059   1.292  0.00  0.00    -0.398 N 
HETATM   11  H   UNK N   1      18.599  14.492   0.633  0.00  0.00     0.156 HD
HETATM   12  H   UNK N   1      18.552  15.721   1.812  0.00  0.00     0.156 HD
ENDBRANCH   9  10
ENDBRANCH   1   3
BRANCH   1  13
HETATM   13  C   UNK N   1      20.959  18.090   3.445  0.00  0.00     0.119 C 
BRANCH  13  14
HETATM   14  C   UNK N   1      20.318  19.003   2.417  0.00  0.00     0.180 C 
BRANCH  14  15
HETATM   15  C   UNK N   1      20.541  20.430   2.834  0.00  0.00     0.163 C 
HETATM   16  O   UNK N   1      20.283  20.800   3.968  0.00  0.00    -0.648 OA
BRANCH  15  17
HETATM   17  O   UNK N   1      21.035  21.313   1.943  0.00  0.00    -0.775 OA
HETATM   18  H   UNK N   1      21.704  21.052   1.342  0.00  0.00     0.167 HD
ENDBRANCH  15  17
ENDBRANCH  14  15
BRANCH  14  19
HETATM   19  N   UNK N   1      18.897  18.701   2.316  0.00  0.00    -0.417 N 
HETATM   20  H   UNK N   1      18.463  18.048   2.968  0.00  0.00     0.150 HD
HETATM   21  H   UNK N   1      18.334  19.144   1.589  0.00  0.00     0.150 HD
ENDBRANCH  14  19
ENDBRANCH  13  14
ENDBRANCH   1  13
TORSDOF 7
ENDMDL
