MODEL 1
REMARK VINA RESULT:      -7.5      0.000      0.000
REMARK  7 active torsions:
REMARK  status: ('A' for Active; 'I' for Inactive)
REMARK    1  A    between atoms: C_2  and  C_3 
REMARK    2  A    between atoms: C_2  and  O_17 
REMARK    3  A    between atoms: C_5  and  C_13 
REMARK    4  A    between atoms: C_7  and  C_9 
REMARK    5  A    between atoms: C_18  and  O_17 
REMARK    6  A    between atoms: N_23  and  C_34 
REMARK    7  A    between atoms: C_26  and  C_27 
ROOT
HETATM    1  C   UNK N   1      21.939  16.944   6.015  0.00  0.00     0.131 C 
HETATM    2  C   UNK N   1      21.589  18.425   5.870  0.00  0.00     0.033 C 
HETATM    3  C   UNK N   1      21.502  18.815   4.396  0.00  0.00     0.009 C 
HETATM    4  C   UNK N   1      22.774  18.477   3.626  0.00  0.00     0.010 C 
HETATM    5  C   UNK N   1      23.869  19.482   3.909  0.00  0.00     0.128 C 
HETATM    6  N   UNK N   1      25.035  18.667   4.044  0.00  0.00    -0.383 N 
HETATM    7  C   UNK N   1      24.839  17.323   3.574  0.00  0.00     0.128 C 
HETATM    8  C   UNK N   1      23.366  17.061   3.871  0.00  0.00     0.020 C 
HETATM    9  C   UNK N   1      23.288  16.601   5.349  0.00  0.00     0.053 C 
ENDROOT
BRANCH   1  10
HETATM   10  O   UNK N   1      20.852  16.040   5.846  0.00  0.00    -0.376 OA
BRANCH  10  11
HETATM   11  C   UNK N   1      20.310  15.606   7.074  0.00  0.00     0.150 C 
HETATM   12  C   UNK N   1      20.754  16.564   8.184  0.00  0.00     0.045 C 
BRANCH  11  13
HETATM   13  C   UNK N   1      20.798  14.203   7.362  0.00  0.00    -0.028 A 
HETATM   14  C   UNK N   1      20.685  13.197   6.391  0.00  0.00     0.025 A 
HETATM   15  C   UNK N   1      21.190  11.908   6.639  0.00  0.00     0.049 A 
HETATM   16  C   UNK N   1      21.800  11.630   7.868  0.00  0.00     0.032 A 
HETATM   17  C   UNK N   1      21.900  12.619   8.852  0.00  0.00     0.049 A 
HETATM   18  C   UNK N   1      21.404  13.895   8.591  0.00  0.00     0.025 A 
BRANCH  15  19
HETATM   19  C   UNK N   1      21.107  10.826   5.602  0.00  0.00     0.417 C 
HETATM   20  F   UNK N   1      22.112   9.902   5.825  0.00  0.00    -0.166 F 
HETATM   21  F   UNK N   1      19.881  10.190   5.688  0.00  0.00    -0.166 F 
HETATM   22  F   UNK N   1      21.245  11.338   4.326  0.00  0.00    -0.166 F 
ENDBRANCH  15  19
BRANCH  17  23
HETATM   23  C   UNK N   1      22.533  12.335  10.182  0.00  0.00     0.417 C 
HETATM   24  F   UNK N   1      22.904  11.004  10.239  0.00  0.00    -0.166 F 
HETATM   25  F   UNK N   1      21.658  12.603  11.220  0.00  0.00    -0.166 F 
HETATM   26  F   UNK N   1      23.659  13.124  10.332  0.00  0.00    -0.166 F 
ENDBRANCH  17  23
ENDBRANCH  11  13
ENDBRANCH  10  11
ENDBRANCH   1  10
BRANCH   9  27
HETATM   27  C   UNK N   1      23.800  15.187   5.602  0.00  0.00    -0.051 A 
HETATM   28  C   UNK N   1      23.662  14.203   4.608  0.00  0.00     0.011 A 
HETATM   29  C   UNK N   1      24.130  12.903   4.817  0.00  0.00     0.043 A 
HETATM   30  C   UNK N   1      24.759  12.574   6.018  0.00  0.00     0.116 A 
HETATM   31  C   UNK N   1      24.925  13.546   7.007  0.00  0.00     0.043 A 
HETATM   32  F   UNK N   1      25.202  11.310   6.226  0.00  0.00    -0.206 F 
HETATM   33  C   UNK N   1      24.448  14.845   6.800  0.00  0.00     0.011 A 
ENDBRANCH   9  27
BRANCH   6  34
HETATM   34  C   UNK N   1      25.981  18.963   5.066  0.00  0.00     0.011 A 
HETATM   35  C   UNK N   1      26.838  18.068   5.530  0.00  0.00     0.075 A 
HETATM   36  C   UNK N   1      27.680  18.714   6.495  0.00  0.00     0.151 A 
HETATM   37  O   UNK N   1      28.578  18.150   7.095  0.00  0.00    -0.293 OA
HETATM   38  C   UNK N   1      27.341  20.154   6.657  0.00  0.00     0.089 A 
HETATM   39  C   UNK N   1      26.159  20.328   5.678  0.00  0.00     0.065 A 
ENDBRANCH   6  34
TORSDOF 7
ENDMDL
MODEL 2
REMARK VINA RESULT:      -7.5      5.683      8.819
REMARK  7 active torsions:
REMARK  status: ('A' for Active; 'I' for Inactive)
REMARK    1  A    between atoms: C_2  and  C_3 
REMARK    2  A    between atoms: C_2  and  O_17 
REMARK    3  A    between atoms: C_5  and  C_13 
REMARK    4  A    between atoms: C_7  and  C_9 
REMARK    5  A    between atoms: C_18  and  O_17 
REMARK    6  A    between atoms: N_23  and  C_34 
REMARK    7  A    between atoms: C_26  and  C_27 
ROOT
HETATM    1  C   UNK N   1      30.991  17.230   7.521  0.00  0.00     0.131 C 
HETATM    2  C   UNK N   1      32.045  17.403   8.614  0.00  0.00     0.033 C 
HETATM    3  C   UNK N   1      33.258  18.160   8.077  0.00  0.00     0.009 C 
HETATM    4  C   UNK N   1      33.858  17.499   6.841  0.00  0.00     0.010 C 
HETATM    5  C   UNK N   1      34.682  16.286   7.214  0.00  0.00     0.128 C 
HETATM    6  N   UNK N   1      34.325  15.328   6.215  0.00  0.00    -0.383 N 
HETATM    7  C   UNK N   1      33.623  15.909   5.104  0.00  0.00     0.128 C 
HETATM    8  C   UNK N   1      32.851  17.059   5.743  0.00  0.00     0.020 C 
HETATM    9  C   UNK N   1      31.541  16.451   6.307  0.00  0.00     0.053 C 
ENDROOT
BRANCH   1  10
HETATM   10  O   UNK N   1      30.168  18.366   7.279  0.00  0.00    -0.376 OA
BRANCH  10  11
HETATM   11  C   UNK N   1      28.911  18.270   7.911  0.00  0.00     0.150 C 
HETATM   12  C   UNK N   1      28.956  17.145   8.949  0.00  0.00     0.045 C 
BRANCH  11  13
HETATM   13  C   UNK N   1      27.853  17.981   6.866  0.00  0.00    -0.028 A 
HETATM   14  C   UNK N   1      27.519  18.949   5.908  0.00  0.00     0.025 A 
HETATM   15  C   UNK N   1      26.577  18.661   4.904  0.00  0.00     0.049 A 
HETATM   16  C   UNK N   1      25.966  17.401   4.871  0.00  0.00     0.032 A 
HETATM   17  C   UNK N   1      26.277  16.436   5.834  0.00  0.00     0.049 A 
HETATM   18  C   UNK N   1      27.218  16.731   6.819  0.00  0.00     0.025 A 
BRANCH  15  19
HETATM   19  C   UNK N   1      26.227  19.671   3.849  0.00  0.00     0.417 C 
HETATM   20  F   UNK N   1      25.531  20.715   4.431  0.00  0.00    -0.166 F 
HETATM   21  F   UNK N   1      27.384  20.164   3.274  0.00  0.00    -0.166 F 
HETATM   22  F   UNK N   1      25.448  19.112   2.855  0.00  0.00    -0.166 F 
ENDBRANCH  15  19
BRANCH  17  23
HETATM   23  C   UNK N   1      25.619  15.087   5.827  0.00  0.00     0.417 C 
HETATM   24  F   UNK N   1      26.441  14.172   6.458  0.00  0.00    -0.166 F 
HETATM   25  F   UNK N   1      25.376  14.657   4.534  0.00  0.00    -0.166 F 
HETATM   26  F   UNK N   1      24.417  15.159   6.507  0.00  0.00    -0.166 F 
ENDBRANCH  17  23
ENDBRANCH  11  13
ENDBRANCH  10  11
ENDBRANCH   1  10
BRANCH   9  27
HETATM   27  C   UNK N   1      30.508  16.076   5.251  0.00  0.00    -0.051 A 
HETATM   28  C   UNK N   1      30.195  16.982   4.223  0.00  0.00     0.011 A 
HETATM   29  C   UNK N   1      29.255  16.654   3.241  0.00  0.00     0.043 A 
HETATM   30  C   UNK N   1      28.629  15.408   3.264  0.00  0.00     0.116 A 
HETATM   31  C   UNK N   1      28.947  14.487   4.265  0.00  0.00     0.043 A 
HETATM   32  F   UNK N   1      27.710  15.095   2.319  0.00  0.00    -0.206 F 
HETATM   33  C   UNK N   1      29.880  14.819   5.252  0.00  0.00     0.011 A 
ENDBRANCH   9  27
BRANCH   6  34
HETATM   34  C   UNK N   1      34.123  13.969   6.588  0.00  0.00     0.011 A 
HETATM   35  C   UNK N   1      33.511  13.617   7.706  0.00  0.00     0.075 A 
HETATM   36  C   UNK N   1      33.421  12.185   7.735  0.00  0.00     0.151 A 
HETATM   37  O   UNK N   1      32.900  11.557   8.640  0.00  0.00    -0.293 OA
HETATM   38  C   UNK N   1      34.019  11.564   6.523  0.00  0.00     0.089 A 
HETATM   39  C   UNK N   1      34.515  12.794   5.731  0.00  0.00     0.065 A 
ENDBRANCH   6  34
TORSDOF 7
ENDMDL
MODEL 3
REMARK VINA RESULT:      -7.5      5.683      8.839
REMARK  7 active torsions:
REMARK  status: ('A' for Active; 'I' for Inactive)
REMARK    1  A    between atoms: C_2  and  C_3 
REMARK    2  A    between atoms: C_2  and  O_17 
REMARK    3  A    between atoms: C_5  and  C_13 
REMARK    4  A    between atoms: C_7  and  C_9 
REMARK    5  A    between atoms: C_18  and  O_17 
REMARK    6  A    between atoms: N_23  and  C_34 
REMARK    7  A    between atoms: C_26  and  C_27 
ROOT
HETATM    1  C   UNK N   1      31.035  17.246   7.492  0.00  0.00     0.131 C 
HETATM    2  C   UNK N   1      32.095  17.413   8.580  0.00  0.00     0.033 C 
HETATM    3  C   UNK N   1      33.311  18.160   8.036  0.00  0.00     0.009 C 
HETATM    4  C   UNK N   1      33.900  17.493   6.798  0.00  0.00     0.010 C 
HETATM    5  C   UNK N   1      34.717  16.275   7.168  0.00  0.00     0.128 C 
HETATM    6  N   UNK N   1      34.349  15.319   6.172  0.00  0.00    -0.383 N 
HETATM    7  C   UNK N   1      33.645  15.904   5.063  0.00  0.00     0.128 C 
HETATM    8  C   UNK N   1      32.884  17.059   5.705  0.00  0.00     0.020 C 
HETATM    9  C   UNK N   1      31.574  16.462   6.277  0.00  0.00     0.053 C 
ENDROOT
BRANCH   1  10
HETATM   10  O   UNK N   1      30.219  18.387   7.254  0.00  0.00    -0.376 OA
BRANCH  10  11
HETATM   11  C   UNK N   1      28.957  18.294   7.878  0.00  0.00     0.150 C 
HETATM   12  C   UNK N   1      29.010  17.203   8.953  0.00  0.00     0.045 C 
BRANCH  11  13
HETATM   13  C   UNK N   1      27.913  17.956   6.836  0.00  0.00    -0.028 A 
HETATM   14  C   UNK N   1      27.254  16.719   6.865  0.00  0.00     0.025 A 
HETATM   15  C   UNK N   1      26.244  16.427   5.931  0.00  0.00     0.049 A 
HETATM   16  C   UNK N   1      25.904  17.380   4.962  0.00  0.00     0.032 A 
HETATM   17  C   UNK N   1      26.569  18.609   4.910  0.00  0.00     0.049 A 
HETATM   18  C   UNK N   1      27.562  18.889   5.847  0.00  0.00     0.025 A 
BRANCH  15  19
HETATM   19  C   UNK N   1      25.505  15.121   5.963  0.00  0.00     0.417 C 
HETATM   20  F   UNK N   1      24.212  15.339   6.405  0.00  0.00    -0.166 F 
HETATM   21  F   UNK N   1      25.462  14.578   4.692  0.00  0.00    -0.166 F 
HETATM   22  F   UNK N   1      26.119  14.215   6.806  0.00  0.00    -0.166 F 
ENDBRANCH  15  19
BRANCH  17  23
HETATM   23  C   UNK N   1      26.232  19.634   3.868  0.00  0.00     0.417 C 
HETATM   24  F   UNK N   1      25.510  20.660   4.449  0.00  0.00    -0.166 F 
HETATM   25  F   UNK N   1      25.482  19.080   2.846  0.00  0.00    -0.166 F 
HETATM   26  F   UNK N   1      27.400  20.149   3.337  0.00  0.00    -0.166 F 
ENDBRANCH  17  23
ENDBRANCH  11  13
ENDBRANCH  10  11
ENDBRANCH   1  10
BRANCH   9  27
HETATM   27  C   UNK N   1      30.532  16.092   5.226  0.00  0.00    -0.051 A 
HETATM   28  C   UNK N   1      29.854  14.865   5.312  0.00  0.00     0.011 A 
HETATM   29  C   UNK N   1      28.891  14.510   4.363  0.00  0.00     0.043 A 
HETATM   30  C   UNK N   1      28.581  15.388   3.323  0.00  0.00     0.116 A 
HETATM   31  C   UNK N   1      29.230  16.621   3.237  0.00  0.00     0.043 A 
HETATM   32  F   UNK N   1      27.656  15.039   2.396  0.00  0.00    -0.206 F 
HETATM   33  C   UNK N   1      30.199  16.972   4.182  0.00  0.00     0.011 A 
ENDBRANCH   9  27
BRANCH   6  34
HETATM   34  C   UNK N   1      34.139  13.962   6.548  0.00  0.00     0.011 A 
HETATM   35  C   UNK N   1      33.525  13.615   7.666  0.00  0.00     0.075 A 
HETATM   36  C   UNK N   1      33.427  12.184   7.698  0.00  0.00     0.151 A 
HETATM   37  O   UNK N   1      32.902  11.561   8.604  0.00  0.00    -0.293 OA
HETATM   38  C   UNK N   1      34.021  11.557   6.487  0.00  0.00     0.089 A 
HETATM   39  C   UNK N   1      34.524  12.783   5.692  0.00  0.00     0.065 A 
ENDBRANCH   6  34
TORSDOF 7
ENDMDL
MODEL 4
REMARK VINA RESULT:      -7.4     15.163     18.308
REMARK  7 active torsions:
REMARK  status: ('A' for Active; 'I' for Inactive)
REMARK    1  A    between atoms: C_2  and  C_3 
REMARK    2  A    between atoms: C_2  and  O_17 
REMARK    3  A    between atoms: C_5  and  C_13 
REMARK    4  A    between atoms: C_7  and  C_9 
REMARK    5  A    between atoms: C_18  and  O_17 
REMARK    6  A    between atoms: N_23  and  C_34 
REMARK    7  A    between atoms: C_26  and  C_27 
ROOT
HETATM    1  C   UNK N   1      27.857  25.537  -8.972  0.00  0.00     0.131 C 
HETATM    2  C   UNK N   1      28.041  25.374 -10.481  0.00  0.00     0.033 C 
HETATM    3  C   UNK N   1      26.697  25.128 -11.163  0.00  0.00     0.009 C 
HETATM    4  C   UNK N   1      25.953  23.935 -10.573  0.00  0.00     0.010 C 
HETATM    5  C   UNK N   1      26.532  22.629 -11.068  0.00  0.00     0.128 C 
HETATM    6  N   UNK N   1      26.548  21.812  -9.894  0.00  0.00    -0.383 N 
HETATM    7  C   UNK N   1      25.765  22.357  -8.819  0.00  0.00     0.128 C 
HETATM    8  C   UNK N   1      25.897  23.863  -9.022  0.00  0.00     0.020 C 
HETATM    9  C   UNK N   1      27.218  24.288  -8.331  0.00  0.00     0.053 C 
ENDROOT
BRANCH   1  10
HETATM   10  O   UNK N   1      27.413  26.820  -8.545  0.00  0.00    -0.376 OA
BRANCH  10  11
HETATM   11  C   UNK N   1      28.466  27.634  -8.080  0.00  0.00     0.150 C 
HETATM   12  C   UNK N   1      29.798  27.057  -8.569  0.00  0.00     0.045 C 
BRANCH  11  13
HETATM   13  C   UNK N   1      28.432  27.671  -6.567  0.00  0.00    -0.028 A 
HETATM   14  C   UNK N   1      27.246  27.993  -5.891  0.00  0.00     0.025 A 
HETATM   15  C   UNK N   1      27.200  27.972  -4.486  0.00  0.00     0.049 A 
HETATM   16  C   UNK N   1      28.350  27.637  -3.761  0.00  0.00     0.032 A 
HETATM   17  C   UNK N   1      29.544  27.334  -4.424  0.00  0.00     0.049 A 
HETATM   18  C   UNK N   1      29.574  27.349  -5.818  0.00  0.00     0.025 A 
BRANCH  15  19
HETATM   19  C   UNK N   1      25.932  28.283  -3.742  0.00  0.00     0.417 C 
HETATM   20  F   UNK N   1      25.816  27.428  -2.661  0.00  0.00    -0.166 F 
HETATM   21  F   UNK N   1      25.969  29.588  -3.284  0.00  0.00    -0.166 F 
HETATM   22  F   UNK N   1      24.824  28.135  -4.553  0.00  0.00    -0.166 F 
ENDBRANCH  15  19
BRANCH  17  23
HETATM   23  C   UNK N   1      30.791  26.990  -3.666  0.00  0.00     0.417 C 
HETATM   24  F   UNK N   1      30.732  25.671  -3.257  0.00  0.00    -0.166 F 
HETATM   25  F   UNK N   1      30.939  27.800  -2.553  0.00  0.00    -0.166 F 
HETATM   26  F   UNK N   1      31.890  27.159  -4.489  0.00  0.00    -0.166 F 
ENDBRANCH  17  23
ENDBRANCH  11  13
ENDBRANCH  10  11
ENDBRANCH   1  10
BRANCH   9  27
HETATM   27  C   UNK N   1      27.165  24.292  -6.807  0.00  0.00    -0.051 A 
HETATM   28  C   UNK N   1      25.973  24.637  -6.148  0.00  0.00     0.011 A 
HETATM   29  C   UNK N   1      25.902  24.640  -4.752  0.00  0.00     0.043 A 
HETATM   30  C   UNK N   1      27.018  24.281  -3.996  0.00  0.00     0.116 A 
HETATM   31  C   UNK N   1      28.203  23.913  -4.637  0.00  0.00     0.043 A 
HETATM   32  F   UNK N   1      26.953  24.295  -2.642  0.00  0.00    -0.206 F 
HETATM   33  C   UNK N   1      28.276  23.918  -6.033  0.00  0.00     0.011 A 
ENDBRANCH   9  27
BRANCH   6  34
HETATM   34  C   UNK N   1      27.669  20.973  -9.640  0.00  0.00     0.011 A 
HETATM   35  C   UNK N   1      28.514  20.601 -10.588  0.00  0.00     0.075 A 
HETATM   36  C   UNK N   1      29.553  19.821  -9.979  0.00  0.00     0.151 A 
HETATM   37  O   UNK N   1      30.488  19.339 -10.595  0.00  0.00    -0.293 OA
HETATM   38  C   UNK N   1      29.365  19.691  -8.509  0.00  0.00     0.089 A 
HETATM   39  C   UNK N   1      28.058  20.478  -8.271  0.00  0.00     0.065 A 
ENDBRANCH   6  34
TORSDOF 7
ENDMDL
MODEL 5
REMARK VINA RESULT:      -7.4      4.149      7.741
REMARK  7 active torsions:
REMARK  status: ('A' for Active; 'I' for Inactive)
REMARK    1  A    between atoms: C_2  and  C_3 
REMARK    2  A    between atoms: C_2  and  O_17 
REMARK    3  A    between atoms: C_5  and  C_13 
REMARK    4  A    between atoms: C_7  and  C_9 
REMARK    5  A    between atoms: C_18  and  O_17 
REMARK    6  A    between atoms: N_23  and  C_34 
REMARK    7  A    between atoms: C_26  and  C_27 
ROOT
HETATM    1  C   UNK N   1      23.963  18.345   4.216  0.00  0.00     0.131 C 
HETATM    2  C   UNK N   1      22.664  19.045   3.820  0.00  0.00     0.033 C 
HETATM    3  C   UNK N   1      21.614  18.892   4.918  0.00  0.00     0.009 C 
HETATM    4  C   UNK N   1      21.358  17.434   5.283  0.00  0.00     0.010 C 
HETATM    5  C   UNK N   1      20.488  16.755   4.248  0.00  0.00     0.128 C 
HETATM    6  N   UNK N   1      21.103  15.474   4.093  0.00  0.00    -0.383 N 
HETATM    7  C   UNK N   1      22.054  15.177   5.129  0.00  0.00     0.128 C 
HETATM    8  C   UNK N   1      22.619  16.548   5.486  0.00  0.00     0.020 C 
HETATM    9  C   UNK N   1      23.752  16.837   4.470  0.00  0.00     0.053 C 
ENDROOT
BRANCH   1  10
HETATM   10  O   UNK N   1      24.801  19.070   5.109  0.00  0.00    -0.376 OA
BRANCH  10  11
HETATM   11  C   UNK N   1      25.948  19.593   4.476  0.00  0.00     0.150 C 
HETATM   12  C   UNK N   1      25.843  19.346   2.968  0.00  0.00     0.045 C 
BRANCH  11  13
HETATM   13  C   UNK N   1      27.177  18.912   5.037  0.00  0.00    -0.028 A 
HETATM   14  C   UNK N   1      27.431  18.928   6.417  0.00  0.00     0.025 A 
HETATM   15  C   UNK N   1      28.543  18.248   6.944  0.00  0.00     0.049 A 
HETATM   16  C   UNK N   1      29.404  17.558   6.081  0.00  0.00     0.032 A 
HETATM   17  C   UNK N   1      29.172  17.552   4.702  0.00  0.00     0.049 A 
HETATM   18  C   UNK N   1      28.062  18.223   4.193  0.00  0.00     0.025 A 
BRANCH  15  19
HETATM   19  C   UNK N   1      28.817  18.227   8.420  0.00  0.00     0.417 C 
HETATM   20  F   UNK N   1      30.086  18.724   8.657  0.00  0.00    -0.166 F 
HETATM   21  F   UNK N   1      27.891  19.018   9.077  0.00  0.00    -0.166 F 
HETATM   22  F   UNK N   1      28.736  16.945   8.929  0.00  0.00    -0.166 F 
ENDBRANCH  15  19
BRANCH  17  23
HETATM   23  C   UNK N   1      30.093  16.835   3.760  0.00  0.00     0.417 C 
HETATM   24  F   UNK N   1      29.486  16.718   2.523  0.00  0.00    -0.166 F 
HETATM   25  F   UNK N   1      30.403  15.570   4.229  0.00  0.00    -0.166 F 
HETATM   26  F   UNK N   1      31.263  17.559   3.621  0.00  0.00    -0.166 F 
ENDBRANCH  17  23
ENDBRANCH  11  13
ENDBRANCH  10  11
ENDBRANCH   1  10
BRANCH   9  27
HETATM   27  C   UNK N   1      25.026  16.029   4.692  0.00  0.00    -0.051 A 
HETATM   28  C   UNK N   1      25.483  15.786   5.999  0.00  0.00     0.011 A 
HETATM   29  C   UNK N   1      26.645  15.042   6.224  0.00  0.00     0.043 A 
HETATM   30  C   UNK N   1      27.356  14.515   5.145  0.00  0.00     0.116 A 
HETATM   31  C   UNK N   1      26.902  14.728   3.842  0.00  0.00     0.043 A 
HETATM   32  F   UNK N   1      28.489  13.804   5.364  0.00  0.00    -0.206 F 
HETATM   33  C   UNK N   1      25.744  15.480   3.617  0.00  0.00     0.011 A 
ENDBRANCH   9  27
BRANCH   6  34
HETATM   34  C   UNK N   1      21.227  14.910   2.792  0.00  0.00     0.011 A 
HETATM   35  C   UNK N   1      22.390  14.776   2.177  0.00  0.00     0.075 A 
HETATM   36  C   UNK N   1      22.160  14.117   0.924  0.00  0.00     0.151 A 
HETATM   37  O   UNK N   1      23.044  13.844   0.130  0.00  0.00    -0.293 OA
HETATM   38  C   UNK N   1      20.724  13.789   0.721  0.00  0.00     0.089 A 
HETATM   39  C   UNK N   1      20.072  14.344   2.007  0.00  0.00     0.065 A 
ENDBRANCH   6  34
TORSDOF 7
ENDMDL
MODEL 6
REMARK VINA RESULT:      -7.4     15.007     18.296
REMARK  7 active torsions:
REMARK  status: ('A' for Active; 'I' for Inactive)
REMARK    1  A    between atoms: C_2  and  C_3 
REMARK    2  A    between atoms: C_2  and  O_17 
REMARK    3  A    between atoms: C_5  and  C_13 
REMARK    4  A    between atoms: C_7  and  C_9 
REMARK    5  A    between atoms: C_18  and  O_17 
REMARK    6  A    between atoms: N_23  and  C_34 
REMARK    7  A    between atoms: C_26  and  C_27 
ROOT
HETATM    1  C   UNK N   1      27.859  25.525  -8.995  0.00  0.00     0.131 C 
HETATM    2  C   UNK N   1      28.079  25.351 -10.498  0.00  0.00     0.033 C 
HETATM    3  C   UNK N   1      26.758  25.055 -11.204  0.00  0.00     0.009 C 
HETATM    4  C   UNK N   1      26.039  23.847 -10.615  0.00  0.00     0.010 C 
HETATM    5  C   UNK N   1      26.668  22.553 -11.081  0.00  0.00     0.128 C 
HETATM    6  N   UNK N   1      26.685  21.751  -9.898  0.00  0.00    -0.383 N 
HETATM    7  C   UNK N   1      25.863  22.284  -8.846  0.00  0.00     0.128 C 
HETATM    8  C   UNK N   1      25.952  23.791  -9.064  0.00  0.00     0.020 C 
HETATM    9  C   UNK N   1      27.245  24.264  -8.352  0.00  0.00     0.053 C 
ENDROOT
BRANCH   1  10
HETATM   10  O   UNK N   1      27.366  26.798  -8.593  0.00  0.00    -0.376 OA
BRANCH  10  11
HETATM   11  C   UNK N   1      28.382  27.645  -8.102  0.00  0.00     0.150 C 
HETATM   12  C   UNK N   1      29.736  27.159  -8.628  0.00  0.00     0.045 C 
BRANCH  11  13
HETATM   13  C   UNK N   1      28.363  27.615  -6.589  0.00  0.00    -0.028 A 
HETATM   14  C   UNK N   1      29.527  27.307  -5.869  0.00  0.00     0.025 A 
HETATM   15  C   UNK N   1      29.523  27.334  -4.463  0.00  0.00     0.049 A 
HETATM   16  C   UNK N   1      28.344  27.661  -3.782  0.00  0.00     0.032 A 
HETATM   17  C   UNK N   1      27.172  27.949  -4.489  0.00  0.00     0.049 A 
HETATM   18  C   UNK N   1      27.191  27.928  -5.882  0.00  0.00     0.025 A 
BRANCH  15  19
HETATM   19  C   UNK N   1      30.766  27.039  -3.674  0.00  0.00     0.417 C 
HETATM   20  F   UNK N   1      30.812  27.869  -2.568  0.00  0.00    -0.166 F 
HETATM   21  F   UNK N   1      30.747  25.722  -3.250  0.00  0.00    -0.166 F 
HETATM   22  F   UNK N   1      31.903  27.238  -4.432  0.00  0.00    -0.166 F 
ENDBRANCH  15  19
BRANCH  17  23
HETATM   23  C   UNK N   1      25.894  28.284  -3.777  0.00  0.00     0.417 C 
HETATM   24  F   UNK N   1      24.835  28.177  -4.659  0.00  0.00    -0.166 F 
HETATM   25  F   UNK N   1      25.928  29.570  -3.268  0.00  0.00    -0.166 F 
HETATM   26  F   UNK N   1      25.704  27.396  -2.733  0.00  0.00    -0.166 F 
ENDBRANCH  17  23
ENDBRANCH  11  13
ENDBRANCH  10  11
ENDBRANCH   1  10
BRANCH   9  27
HETATM   27  C   UNK N   1      27.160  24.284  -6.829  0.00  0.00    -0.051 A 
HETATM   28  C   UNK N   1      25.946  24.606  -6.199  0.00  0.00     0.011 A 
HETATM   29  C   UNK N   1      25.846  24.624  -4.805  0.00  0.00     0.043 A 
HETATM   30  C   UNK N   1      26.955  24.302  -4.022  0.00  0.00     0.116 A 
HETATM   31  C   UNK N   1      28.163  23.957  -4.634  0.00  0.00     0.043 A 
HETATM   32  F   UNK N   1      26.861  24.330  -2.670  0.00  0.00    -0.206 F 
HETATM   33  C   UNK N   1      28.265  23.948  -6.028  0.00  0.00     0.011 A 
ENDBRANCH   9  27
BRANCH   6  34
HETATM   34  C   UNK N   1      27.826  20.950  -9.611  0.00  0.00     0.011 A 
HETATM   35  C   UNK N   1      28.116  20.526  -8.392  0.00  0.00     0.075 A 
HETATM   36  C   UNK N   1      29.283  19.697  -8.473  0.00  0.00     0.151 A 
HETATM   37  O   UNK N   1      29.794  19.150  -7.510  0.00  0.00    -0.293 OA
HETATM   38  C   UNK N   1      29.780  19.567  -9.869  0.00  0.00     0.089 A 
HETATM   39  C   UNK N   1      28.781  20.440 -10.659  0.00  0.00     0.065 A 
ENDBRANCH   6  34
TORSDOF 7
ENDMDL
MODEL 7
REMARK VINA RESULT:      -7.4      4.050      7.234
REMARK  7 active torsions:
REMARK  status: ('A' for Active; 'I' for Inactive)
REMARK    1  A    between atoms: C_2  and  C_3 
REMARK    2  A    between atoms: C_2  and  O_17 
REMARK    3  A    between atoms: C_5  and  C_13 
REMARK    4  A    between atoms: C_7  and  C_9 
REMARK    5  A    between atoms: C_18  and  O_17 
REMARK    6  A    between atoms: N_23  and  C_34 
REMARK    7  A    between atoms: C_26  and  C_27 
ROOT
HETATM    1  C   UNK N   1      23.969  18.248   4.342  0.00  0.00     0.131 C 
HETATM    2  C   UNK N   1      22.674  18.964   3.959  0.00  0.00     0.033 C 
HETATM    3  C   UNK N   1      21.617  18.779   5.045  0.00  0.00     0.009 C 
HETATM    4  C   UNK N   1      21.355  17.311   5.362  0.00  0.00     0.010 C 
HETATM    5  C   UNK N   1      20.489  16.668   4.301  0.00  0.00     0.128 C 
HETATM    6  N   UNK N   1      21.102  15.391   4.109  0.00  0.00    -0.383 N 
HETATM    7  C   UNK N   1      22.045  15.058   5.141  0.00  0.00     0.128 C 
HETATM    8  C   UNK N   1      22.611  16.416   5.545  0.00  0.00     0.020 C 
HETATM    9  C   UNK N   1      23.752  16.733   4.545  0.00  0.00     0.053 C 
ENDROOT
BRANCH   1  10
HETATM   10  O   UNK N   1      24.803  18.942   5.262  0.00  0.00    -0.376 OA
BRANCH  10  11
HETATM   11  C   UNK N   1      25.973  19.450   4.660  0.00  0.00     0.150 C 
HETATM   12  C   UNK N   1      25.869  19.280   3.142  0.00  0.00     0.045 C 
BRANCH  11  13
HETATM   13  C   UNK N   1      27.172  18.696   5.195  0.00  0.00    -0.028 A 
HETATM   14  C   UNK N   1      28.103  18.126   4.314  0.00  0.00     0.025 A 
HETATM   15  C   UNK N   1      29.246  17.474   4.810  0.00  0.00     0.049 A 
HETATM   16  C   UNK N   1      29.446  17.388   6.194  0.00  0.00     0.032 A 
HETATM   17  C   UNK N   1      28.514  17.935   7.081  0.00  0.00     0.049 A 
HETATM   18  C   UNK N   1      27.390  18.586   6.577  0.00  0.00     0.025 A 
BRANCH  15  19
HETATM   19  C   UNK N   1      30.270  16.884   3.885  0.00  0.00     0.417 C 
HETATM   20  F   UNK N   1      30.631  15.629   4.344  0.00  0.00    -0.166 F 
HETATM   21  F   UNK N   1      29.737  16.763   2.614  0.00  0.00    -0.166 F 
HETATM   22  F   UNK N   1      31.399  17.676   3.812  0.00  0.00    -0.166 F 
ENDBRANCH  15  19
BRANCH  17  23
HETATM   23  C   UNK N   1      28.702  17.838   8.567  0.00  0.00     0.417 C 
HETATM   24  F   UNK N   1      29.786  17.025   8.840  0.00  0.00    -0.166 F 
HETATM   25  F   UNK N   1      27.579  17.308   9.179  0.00  0.00    -0.166 F 
HETATM   26  F   UNK N   1      28.939  19.098   9.083  0.00  0.00    -0.166 F 
ENDBRANCH  17  23
ENDBRANCH  11  13
ENDBRANCH  10  11
ENDBRANCH   1  10
BRANCH   9  27
HETATM   27  C   UNK N   1      25.023  15.915   4.750  0.00  0.00    -0.051 A 
HETATM   28  C   UNK N   1      25.774  15.497   3.639  0.00  0.00     0.011 A 
HETATM   29  C   UNK N   1      26.945  14.751   3.805  0.00  0.00     0.043 A 
HETATM   30  C   UNK N   1      27.390  14.429   5.088  0.00  0.00     0.116 A 
HETATM   31  C   UNK N   1      26.666  14.857   6.203  0.00  0.00     0.043 A 
HETATM   32  F   UNK N   1      28.518  13.696   5.249  0.00  0.00    -0.206 F 
HETATM   33  C   UNK N   1      25.490  15.595   6.036  0.00  0.00     0.011 A 
ENDBRANCH   9  27
BRANCH   6  34
HETATM   34  C   UNK N   1      21.232  14.868   2.791  0.00  0.00     0.011 A 
HETATM   35  C   UNK N   1      22.401  14.740   2.184  0.00  0.00     0.075 A 
HETATM   36  C   UNK N   1      22.176  14.125   0.908  0.00  0.00     0.151 A 
HETATM   37  O   UNK N   1      23.064  13.867   0.114  0.00  0.00    -0.293 OA
HETATM   38  C   UNK N   1      20.738  13.821   0.680  0.00  0.00     0.089 A 
HETATM   39  C   UNK N   1      20.079  14.342   1.976  0.00  0.00     0.065 A 
ENDBRANCH   6  34
TORSDOF 7
ENDMDL
MODEL 8
REMARK VINA RESULT:      -7.4      4.021      7.207
REMARK  7 active torsions:
REMARK  status: ('A' for Active; 'I' for Inactive)
REMARK    1  A    between atoms: C_2  and  C_3 
REMARK    2  A    between atoms: C_2  and  O_17 
REMARK    3  A    between atoms: C_5  and  C_13 
REMARK    4  A    between atoms: C_7  and  C_9 
REMARK    5  A    between atoms: C_18  and  O_17 
REMARK    6  A    between atoms: N_23  and  C_34 
REMARK    7  A    between atoms: C_26  and  C_27 
ROOT
HETATM    1  C   UNK N   1      23.502  14.683   5.487  0.00  0.00     0.131 C 
HETATM    2  C   UNK N   1      24.302  15.479   6.518  0.00  0.00     0.033 C 
HETATM    3  C   UNK N   1      25.570  14.725   6.912  0.00  0.00     0.009 C 
HETATM    4  C   UNK N   1      25.280  13.316   7.416  0.00  0.00     0.010 C 
HETATM    5  C   UNK N   1      24.759  13.338   8.836  0.00  0.00     0.128 C 
HETATM    6  N   UNK N   1      23.704  12.373   8.812  0.00  0.00    -0.383 N 
HETATM    7  C   UNK N   1      23.724  11.547   7.637  0.00  0.00     0.128 C 
HETATM    8  C   UNK N   1      24.286  12.477   6.566  0.00  0.00     0.020 C 
HETATM    9  C   UNK N   1      23.088  13.297   6.022  0.00  0.00     0.053 C 
ENDROOT
BRANCH   1  10
HETATM   10  O   UNK N   1      23.968  14.780   4.145  0.00  0.00    -0.376 OA
BRANCH  10  11
HETATM   11  C   UNK N   1      23.110  15.541   3.324  0.00  0.00     0.150 C 
HETATM   12  C   UNK N   1      21.991  16.135   4.185  0.00  0.00     0.045 C 
BRANCH  11  13
HETATM   13  C   UNK N   1      22.530  14.645   2.251  0.00  0.00    -0.028 A 
HETATM   14  C   UNK N   1      23.351  13.742   1.559  0.00  0.00     0.025 A 
HETATM   15  C   UNK N   1      22.801  12.871   0.601  0.00  0.00     0.049 A 
HETATM   16  C   UNK N   1      21.428  12.917   0.333  0.00  0.00     0.032 A 
HETATM   17  C   UNK N   1      20.604  13.828   1.002  0.00  0.00     0.049 A 
HETATM   18  C   UNK N   1      21.158  14.679   1.955  0.00  0.00     0.025 A 
BRANCH  15  19
HETATM   19  C   UNK N   1      23.656  11.875  -0.128  0.00  0.00     0.417 C 
HETATM   20  F   UNK N   1      23.124  10.609   0.037  0.00  0.00    -0.166 F 
HETATM   21  F   UNK N   1      23.682  12.182  -1.477  0.00  0.00    -0.166 F 
HETATM   22  F   UNK N   1      24.953  11.881   0.346  0.00  0.00    -0.166 F 
ENDBRANCH  15  19
BRANCH  17  23
HETATM   23  C   UNK N   1      19.133  13.904   0.715  0.00  0.00     0.417 C 
HETATM   24  F   UNK N   1      18.754  12.808  -0.036  0.00  0.00    -0.166 F 
HETATM   25  F   UNK N   1      18.819  15.058   0.017  0.00  0.00    -0.166 F 
HETATM   26  F   UNK N   1      18.432  13.899   1.907  0.00  0.00    -0.166 F 
ENDBRANCH  17  23
ENDBRANCH  11  13
ENDBRANCH  10  11
ENDBRANCH   1  10
BRANCH   9  27
HETATM   27  C   UNK N   1      22.135  12.511   5.127  0.00  0.00    -0.051 A 
HETATM   28  C   UNK N   1      20.758  12.789   5.156  0.00  0.00     0.011 A 
HETATM   29  C   UNK N   1      19.868  12.084   4.340  0.00  0.00     0.043 A 
HETATM   30  C   UNK N   1      20.347  11.104   3.469  0.00  0.00     0.116 A 
HETATM   31  C   UNK N   1      21.716  10.833   3.412  0.00  0.00     0.043 A 
HETATM   32  F   UNK N   1      19.483  10.414   2.686  0.00  0.00    -0.206 F 
HETATM   33  C   UNK N   1      22.604  11.532   4.236  0.00  0.00     0.011 A 
ENDBRANCH   9  27
BRANCH   6  34
HETATM   34  C   UNK N   1      22.490  12.646   9.504  0.00  0.00     0.011 A 
HETATM   35  C   UNK N   1      21.593  13.512   9.062  0.00  0.00     0.075 A 
HETATM   36  C   UNK N   1      20.473  13.492   9.958  0.00  0.00     0.151 A 
HETATM   37  O   UNK N   1      19.478  14.181   9.814  0.00  0.00    -0.293 OA
HETATM   38  C   UNK N   1      20.663  12.518  11.067  0.00  0.00     0.089 A 
HETATM   39  C   UNK N   1      22.061  11.937  10.762  0.00  0.00     0.065 A 
ENDBRANCH   6  34
TORSDOF 7
ENDMDL
MODEL 9
REMARK VINA RESULT:      -7.3      3.888      7.274
REMARK  7 active torsions:
REMARK  status: ('A' for Active; 'I' for Inactive)
REMARK    1  A    between atoms: C_2  and  C_3 
REMARK    2  A    between atoms: C_2  and  O_17 
REMARK    3  A    between atoms: C_5  and  C_13 
REMARK    4  A    between atoms: C_7  and  C_9 
REMARK    5  A    between atoms: C_18  and  O_17 
REMARK    6  A    between atoms: N_23  and  C_34 
REMARK    7  A    between atoms: C_26  and  C_27 
ROOT
HETATM    1  C   UNK N   1      23.736  15.609   6.536  0.00  0.00     0.131 C 
HETATM    2  C   UNK N   1      25.076  14.876   6.470  0.00  0.00     0.033 C 
HETATM    3  C   UNK N   1      25.003  13.710   5.487  0.00  0.00     0.009 C 
HETATM    4  C   UNK N   1      23.869  12.744   5.809  0.00  0.00     0.010 C 
HETATM    5  C   UNK N   1      24.228  11.844   6.970  0.00  0.00     0.128 C 
HETATM    6  N   UNK N   1      23.023  11.803   7.738  0.00  0.00    -0.383 N 
HETATM    7  C   UNK N   1      21.885  12.316   7.026  0.00  0.00     0.128 C 
HETATM    8  C   UNK N   1      22.491  13.389   6.127  0.00  0.00     0.020 C 
HETATM    9  C   UNK N   1      22.590  14.677   6.982  0.00  0.00     0.053 C 
ENDROOT
BRANCH   1  10
HETATM   10  O   UNK N   1      23.489  16.527   5.476  0.00  0.00    -0.376 OA
BRANCH  10  11
HETATM   11  C   UNK N   1      23.614  15.934   4.203  0.00  0.00     0.150 C 
HETATM   12  C   UNK N   1      24.832  16.530   3.490  0.00  0.00     0.045 C 
BRANCH  11  13
HETATM   13  C   UNK N   1      22.354  16.202   3.407  0.00  0.00    -0.028 A 
HETATM   14  C   UNK N   1      21.724  15.165   2.703  0.00  0.00     0.025 A 
HETATM   15  C   UNK N   1      20.524  15.402   2.010  0.00  0.00     0.049 A 
HETATM   16  C   UNK N   1      19.963  16.685   2.018  0.00  0.00     0.032 A 
HETATM   17  C   UNK N   1      20.594  17.731   2.699  0.00  0.00     0.049 A 
HETATM   18  C   UNK N   1      21.778  17.482   3.389  0.00  0.00     0.025 A 
BRANCH  15  19
HETATM   19  C   UNK N   1      19.816  14.299   1.276  0.00  0.00     0.417 C 
HETATM   20  F   UNK N   1      18.897  13.704   2.122  0.00  0.00    -0.166 F 
HETATM   21  F   UNK N   1      19.152  14.820   0.181  0.00  0.00    -0.166 F 
HETATM   22  F   UNK N   1      20.704  13.338   0.833  0.00  0.00    -0.166 F 
ENDBRANCH  15  19
BRANCH  17  23
HETATM   23  C   UNK N   1      20.018  19.117   2.703  0.00  0.00     0.417 C 
HETATM   24  F   UNK N   1      20.456  19.800   1.584  0.00  0.00    -0.166 F 
HETATM   25  F   UNK N   1      20.405  19.814   3.834  0.00  0.00    -0.166 F 
HETATM   26  F   UNK N   1      18.638  19.041   2.676  0.00  0.00    -0.166 F 
ENDBRANCH  17  23
ENDBRANCH  11  13
ENDBRANCH  10  11
ENDBRANCH   1  10
BRANCH   9  27
HETATM   27  C   UNK N   1      21.256  15.367   7.249  0.00  0.00    -0.051 A 
HETATM   28  C   UNK N   1      20.954  15.832   8.540  0.00  0.00     0.011 A 
HETATM   29  C   UNK N   1      19.739  16.472   8.805  0.00  0.00     0.043 A 
HETATM   30  C   UNK N   1      18.818  16.672   7.776  0.00  0.00     0.116 A 
HETATM   31  C   UNK N   1      19.114  16.237   6.482  0.00  0.00     0.043 A 
HETATM   32  F   UNK N   1      17.636  17.282   8.034  0.00  0.00    -0.206 F 
HETATM   33  C   UNK N   1      20.325  15.588   6.220  0.00  0.00     0.011 A 
ENDBRANCH   9  27
BRANCH   6  34
HETATM   34  C   UNK N   1      23.096  11.864   9.158  0.00  0.00     0.011 A 
HETATM   35  C   UNK N   1      24.239  11.800   9.820  0.00  0.00     0.075 A 
HETATM   36  C   UNK N   1      23.956  11.957  11.218  0.00  0.00     0.151 A 
HETATM   37  O   UNK N   1      24.810  11.950  12.087  0.00  0.00    -0.293 OA
HETATM   38  C   UNK N   1      22.503  12.150  11.474  0.00  0.00     0.089 A 
HETATM   39  C   UNK N   1      21.903  12.078  10.053  0.00  0.00     0.065 A 
ENDBRANCH   6  34
TORSDOF 7
ENDMDL
