MODEL 1
REMARK VINA RESULT:      -6.5      0.000      0.000
REMARK  10 active torsions:
REMARK  status: ('A' for Active; 'I' for Inactive)
REMARK    1  A    between atoms: C_2  and  C_3 
REMARK    2  A    between atoms: C_3  and  C_4 
REMARK    3  A    between atoms: C_4  and  C_5 
REMARK    4  A    between atoms: C_4  and  C_8 
REMARK    5  A    between atoms: C_5  and  C_6 
REMARK       I    between atoms: C_8  and  N_10 
REMARK    6  A    between atoms: N_10  and  C_11 
REMARK    7  A    between atoms: C_19  and  N_14 
REMARK    8  A    between atoms: C_21  and  O_26 
REMARK    9  A    between atoms: C_22  and  C_24 
REMARK   10  A    between atoms: C_24  and  O_25 
ROOT
HETATM    1  C   UNK N   1      33.327  16.254   8.694  0.00  0.00     0.112 A 
HETATM    2  C   UNK N   1      33.019  14.995   9.199  0.00  0.00     0.066 A 
HETATM    3  C   UNK N   1      33.803  14.466  10.222  0.00  0.00     0.102 A 
HETATM    4  N   UNK N   1      34.853  15.173  10.730  0.00  0.00    -0.276 N 
HETATM    5  C   UNK N   1      35.138  16.428  10.222  0.00  0.00     0.330 A 
HETATM    6  O   UNK N   1      36.070  17.079  10.660  0.00  0.00    -0.246 OA
HETATM    7  N   UNK N   1      34.374  16.946   9.211  0.00  0.00    -0.294 N 
ATOM      8  HN  UNK N   1      34.597  17.870   8.840  1.00  0.00     0.172 HD
ENDROOT
BRANCH   4   9
HETATM    9  C   UNK N   1      35.708  14.613  11.790  0.00  0.00     0.307 C 
HETATM   10  C   UNK N   1      36.736  13.587  11.367  0.00  0.00     0.314 C 
HETATM   11  C   UNK N   1      37.172  13.179  12.739  0.00  0.00     0.226 C 
HETATM   12  F   UNK N   1      37.772  14.121  10.623  0.00  0.00    -0.198 F 
HETATM   13  F   UNK N   1      36.136  12.527  10.701  0.00  0.00    -0.198 F 
HETATM   14  C   UNK N   1      35.868  13.225  13.528  0.00  0.00     0.182 C 
HETATM   15  O   UNK N   1      34.940  13.991  12.789  0.00  0.00    -0.350 OA
BRANCH  11  16
HETATM   16  O   UNK N   1      37.748  11.907  12.752  0.00  0.00    -0.387 OA
HETATM   17  H   UNK N   1      37.289  11.072  12.931  0.00  0.00     0.210 HD
ENDBRANCH  11  16
BRANCH  14  18
HETATM   18  C   UNK N   1      36.090  13.894  14.878  0.00  0.00     0.199 C 
BRANCH  18  19
HETATM   19  O   UNK N   1      37.448  13.956  15.180  0.00  0.00    -0.398 OA
HETATM   20  H   UNK N   1      37.748  14.396  15.991  0.00  0.00     0.209 HD
ENDBRANCH  18  19
ENDBRANCH  14  18
ENDBRANCH   4   9
BRANCH   1  21
HETATM   21  N   UNK N   1      32.563  16.771   7.614  0.00  0.00    -0.313 N 
HETATM   22  C   UNK N   1      33.061  17.104   6.390  0.00  0.00     0.227 C 
HETATM   23  O   UNK N   1      34.249  16.959   6.137  0.00  0.00    -0.273 OA
HETATM   24  H   UNK N   1      31.599  16.901   7.762  0.00  0.00     0.170 HD
BRANCH  22  25
HETATM   25  C   UNK N   1      32.130  17.552   5.295  0.00  0.00     0.078 C 
BRANCH  25  26
HETATM   26  C   UNK N   1      30.884  16.682   5.217  0.00  0.00     0.013 C 
BRANCH  26  27
HETATM   27  C   UNK N   1      29.648  17.558   5.307  0.00  0.00    -0.004 C 
HETATM   28  C   UNK N   1      29.169  17.617   6.742  0.00  0.00     0.005 C 
ENDBRANCH  26  27
ENDBRANCH  25  26
BRANCH  25  29
HETATM   29  C   UNK N   1      32.833  17.628   3.943  0.00  0.00     0.013 C 
BRANCH  29  30
HETATM   30  C   UNK N   1      32.374  16.499   3.047  0.00  0.00    -0.004 C 
HETATM   31  C   UNK N   1      33.512  15.517   2.870  0.00  0.00     0.005 C 
ENDBRANCH  29  30
ENDBRANCH  25  29
ENDBRANCH  22  25
ENDBRANCH   1  21
TORSDOF 10
ENDMDL
MODEL 2
REMARK VINA RESULT:      -6.5      2.530      8.895
REMARK  10 active torsions:
REMARK  status: ('A' for Active; 'I' for Inactive)
REMARK    1  A    between atoms: C_2  and  C_3 
REMARK    2  A    between atoms: C_3  and  C_4 
REMARK    3  A    between atoms: C_4  and  C_5 
REMARK    4  A    between atoms: C_4  and  C_8 
REMARK    5  A    between atoms: C_5  and  C_6 
REMARK       I    between atoms: C_8  and  N_10 
REMARK    6  A    between atoms: N_10  and  C_11 
REMARK    7  A    between atoms: C_19  and  N_14 
REMARK    8  A    between atoms: C_21  and  O_26 
REMARK    9  A    between atoms: C_22  and  C_24 
REMARK   10  A    between atoms: C_24  and  O_25 
ROOT
HETATM    1  C   UNK N   1      35.880  14.908  11.140  0.00  0.00     0.112 A 
HETATM    2  C   UNK N   1      35.204  14.034  10.295  0.00  0.00     0.066 A 
HETATM    3  C   UNK N   1      34.510  14.551   9.204  0.00  0.00     0.102 A 
HETATM    4  N   UNK N   1      34.497  15.892   8.959  0.00  0.00    -0.276 N 
HETATM    5  C   UNK N   1      35.183  16.745   9.805  0.00  0.00     0.330 A 
HETATM    6  O   UNK N   1      35.188  17.947   9.607  0.00  0.00    -0.246 OA
HETATM    7  N   UNK N   1      35.860  16.240  10.883  0.00  0.00    -0.294 N 
ATOM      8  HN  UNK N   1      36.358  16.878  11.504  1.00  0.00     0.172 HD
ENDROOT
BRANCH   4   9
HETATM    9  C   UNK N   1      33.742  16.454   7.827  0.00  0.00     0.307 C 
HETATM   10  C   UNK N   1      32.309  16.860   8.096  0.00  0.00     0.314 C 
HETATM   11  C   UNK N   1      31.923  17.142   6.678  0.00  0.00     0.226 C 
HETATM   12  F   UNK N   1      32.197  17.977   8.904  0.00  0.00    -0.198 F 
HETATM   13  F   UNK N   1      31.579  15.796   8.609  0.00  0.00    -0.198 F 
HETATM   14  C   UNK N   1      32.673  16.060   5.910  0.00  0.00     0.182 C 
HETATM   15  O   UNK N   1      33.684  15.549   6.753  0.00  0.00    -0.350 OA
BRANCH  11  16
HETATM   16  O   UNK N   1      30.542  17.062   6.484  0.00  0.00    -0.387 OA
HETATM   17  H   UNK N   1      30.090  16.564   5.785  0.00  0.00     0.210 HD
ENDBRANCH  11  16
BRANCH  14  18
HETATM   18  C   UNK N   1      33.325  16.651   4.666  0.00  0.00     0.199 C 
BRANCH  18  19
HETATM   19  O   UNK N   1      32.629  17.777   4.233  0.00  0.00    -0.398 OA
HETATM   20  H   UNK N   1      31.753  17.979   4.598  0.00  0.00     0.209 HD
ENDBRANCH  18  19
ENDBRANCH  14  18
ENDBRANCH   4   9
BRANCH   1  21
HETATM   21  N   UNK N   1      36.543  14.389  12.284  0.00  0.00    -0.313 N 
HETATM   22  C   UNK N   1      35.932  13.764  13.328  0.00  0.00     0.227 C 
HETATM   23  O   UNK N   1      34.720  13.597  13.336  0.00  0.00    -0.273 OA
HETATM   24  H   UNK N   1      37.521  14.489  12.326  0.00  0.00     0.170 HD
BRANCH  22  25
HETATM   25  C   UNK N   1      36.757  13.170  14.440  0.00  0.00     0.078 C 
BRANCH  25  26
HETATM   26  C   UNK N   1      36.524  11.673  14.583  0.00  0.00     0.013 C 
BRANCH  26  27
HETATM   27  C   UNK N   1      35.803  11.396  15.889  0.00  0.00    -0.004 C 
HETATM   28  C   UNK N   1      34.573  10.554  15.623  0.00  0.00     0.005 C 
ENDBRANCH  26  27
ENDBRANCH  25  26
BRANCH  25  29
HETATM   29  C   UNK N   1      36.533  13.891  15.766  0.00  0.00     0.013 C 
BRANCH  29  30
HETATM   30  C   UNK N   1      37.306  15.191  15.793  0.00  0.00    -0.004 C 
HETATM   31  C   UNK N   1      37.084  15.868  17.129  0.00  0.00     0.005 C 
ENDBRANCH  29  30
ENDBRANCH  25  29
ENDBRANCH  22  25
ENDBRANCH   1  21
TORSDOF 10
ENDMDL
MODEL 3
REMARK VINA RESULT:      -6.5      2.478      9.153
REMARK  10 active torsions:
REMARK  status: ('A' for Active; 'I' for Inactive)
REMARK    1  A    between atoms: C_2  and  C_3 
REMARK    2  A    between atoms: C_3  and  C_4 
REMARK    3  A    between atoms: C_4  and  C_5 
REMARK    4  A    between atoms: C_4  and  C_8 
REMARK    5  A    between atoms: C_5  and  C_6 
REMARK       I    between atoms: C_8  and  N_10 
REMARK    6  A    between atoms: N_10  and  C_11 
REMARK    7  A    between atoms: C_19  and  N_14 
REMARK    8  A    between atoms: C_21  and  O_26 
REMARK    9  A    between atoms: C_22  and  C_24 
REMARK   10  A    between atoms: C_24  and  O_25 
ROOT
HETATM    1  C   UNK N   1      35.460  14.989  11.735  0.00  0.00     0.112 A 
HETATM    2  C   UNK N   1      35.525  16.294  11.259  0.00  0.00     0.066 A 
HETATM    3  C   UNK N   1      34.856  16.618  10.081  0.00  0.00     0.102 A 
HETATM    4  N   UNK N   1      34.141  15.673   9.405  0.00  0.00    -0.276 N 
HETATM    5  C   UNK N   1      34.081  14.383   9.899  0.00  0.00     0.330 A 
HETATM    6  O   UNK N   1      33.447  13.522   9.314  0.00  0.00    -0.246 OA
HETATM    7  N   UNK N   1      34.743  14.060  11.053  0.00  0.00    -0.294 N 
ATOM      8  HN  UNK N   1      34.696  13.104  11.406  1.00  0.00     0.172 HD
ENDROOT
BRANCH   4   9
HETATM    9  C   UNK N   1      33.455  15.994   8.141  0.00  0.00     0.307 C 
HETATM   10  C   UNK N   1      34.285  16.660   7.065  0.00  0.00     0.314 C 
HETATM   11  C   UNK N   1      33.161  16.969   6.126  0.00  0.00     0.226 C 
HETATM   12  F   UNK N   1      35.228  15.821   6.500  0.00  0.00    -0.198 F 
HETATM   13  F   UNK N   1      34.872  17.825   7.539  0.00  0.00    -0.198 F 
HETATM   14  C   UNK N   1      32.026  17.334   7.076  0.00  0.00     0.182 C 
HETATM   15  O   UNK N   1      32.361  16.848   8.359  0.00  0.00    -0.350 OA
BRANCH  11  16
HETATM   16  O   UNK N   1      33.476  18.017   5.257  0.00  0.00    -0.387 OA
HETATM   17  H   UNK N   1      33.230  18.078   4.321  0.00  0.00     0.210 HD
ENDBRANCH  11  16
BRANCH  14  18
HETATM   18  C   UNK N   1      30.728  16.676   6.626  0.00  0.00     0.199 C 
BRANCH  18  19
HETATM   19  O   UNK N   1      30.636  16.669   5.236  0.00  0.00    -0.398 OA
HETATM   20  H   UNK N   1      30.271  15.896   4.776  0.00  0.00     0.209 HD
ENDBRANCH  18  19
ENDBRANCH  14  18
ENDBRANCH   4   9
BRANCH   1  21
HETATM   21  N   UNK N   1      36.185  14.644  12.907  0.00  0.00    -0.313 N 
HETATM   22  C   UNK N   1      35.777  13.745  13.845  0.00  0.00     0.227 C 
HETATM   23  O   UNK N   1      34.717  13.148  13.721  0.00  0.00    -0.273 OA
HETATM   24  H   UNK N   1      37.050  15.090  13.053  0.00  0.00     0.170 HD
BRANCH  22  25
HETATM   25  C   UNK N   1      36.683  13.393  14.997  0.00  0.00     0.078 C 
BRANCH  25  26
HETATM   26  C   UNK N   1      36.843  11.889  15.154  0.00  0.00     0.013 C 
BRANCH  26  27
HETATM   27  C   UNK N   1      37.953  11.400  14.241  0.00  0.00    -0.004 C 
HETATM   28  C   UNK N   1      38.377  10.007  14.655  0.00  0.00     0.005 C 
ENDBRANCH  26  27
ENDBRANCH  25  26
BRANCH  25  29
HETATM   29  C   UNK N   1      36.223  14.037  16.302  0.00  0.00     0.013 C 
BRANCH  29  30
HETATM   30  C   UNK N   1      35.248  13.130  17.020  0.00  0.00    -0.004 C 
HETATM   31  C   UNK N   1      35.206  13.512  18.484  0.00  0.00     0.005 C 
ENDBRANCH  29  30
ENDBRANCH  25  29
ENDBRANCH  22  25
ENDBRANCH   1  21
TORSDOF 10
ENDMDL
MODEL 4
REMARK VINA RESULT:      -6.2      1.785      2.272
REMARK  10 active torsions:
REMARK  status: ('A' for Active; 'I' for Inactive)
REMARK    1  A    between atoms: C_2  and  C_3 
REMARK    2  A    between atoms: C_3  and  C_4 
REMARK    3  A    between atoms: C_4  and  C_5 
REMARK    4  A    between atoms: C_4  and  C_8 
REMARK    5  A    between atoms: C_5  and  C_6 
REMARK       I    between atoms: C_8  and  N_10 
REMARK    6  A    between atoms: N_10  and  C_11 
REMARK    7  A    between atoms: C_19  and  N_14 
REMARK    8  A    between atoms: C_21  and  O_26 
REMARK    9  A    between atoms: C_22  and  C_24 
REMARK   10  A    between atoms: C_24  and  O_25 
ROOT
HETATM    1  C   UNK N   1      32.515  16.208   8.671  0.00  0.00     0.112 A 
HETATM    2  C   UNK N   1      32.377  14.923   9.185  0.00  0.00     0.066 A 
HETATM    3  C   UNK N   1      33.311  14.460  10.108  0.00  0.00     0.102 A 
HETATM    4  N   UNK N   1      34.344  15.254  10.511  0.00  0.00    -0.276 N 
HETATM    5  C   UNK N   1      34.460  16.533   9.996  0.00  0.00     0.330 A 
HETATM    6  O   UNK N   1      35.373  17.262  10.341  0.00  0.00    -0.246 OA
HETATM    7  N   UNK N   1      33.547  16.988   9.083  0.00  0.00    -0.294 N 
ATOM      8  HN  UNK N   1      33.645  17.930   8.706  1.00  0.00     0.172 HD
ENDROOT
BRANCH   4   9
HETATM    9  C   UNK N   1      35.357  14.766  11.463  0.00  0.00     0.307 C 
HETATM   10  C   UNK N   1      36.513  13.978  10.885  0.00  0.00     0.314 C 
HETATM   11  C   UNK N   1      37.109  13.538  12.185  0.00  0.00     0.226 C 
HETATM   12  F   UNK N   1      37.386  14.750  10.140  0.00  0.00    -0.198 F 
HETATM   13  F   UNK N   1      36.056  12.891  10.153  0.00  0.00    -0.198 F 
HETATM   14  C   UNK N   1      35.876  13.284  13.046  0.00  0.00     0.182 C 
HETATM   15  O   UNK N   1      34.780  13.934  12.437  0.00  0.00    -0.350 OA
BRANCH  11  16
HETATM   16  O   UNK N   1      37.894  12.392  12.042  0.00  0.00    -0.387 OA
HETATM   17  H   UNK N   1      38.281  11.869  12.761  0.00  0.00     0.210 HD
ENDBRANCH  11  16
BRANCH  14  18
HETATM   18  C   UNK N   1      36.077  13.863  14.440  0.00  0.00     0.199 C 
BRANCH  18  19
HETATM   19  O   UNK N   1      37.370  13.616  14.895  0.00  0.00    -0.398 OA
HETATM   20  H   UNK N   1      38.115  14.136  14.552  0.00  0.00     0.209 HD
ENDBRANCH  18  19
ENDBRANCH  14  18
ENDBRANCH   4   9
BRANCH   1  21
HETATM   21  N   UNK N   1      31.595  16.663   7.690  0.00  0.00    -0.313 N 
HETATM   22  C   UNK N   1      30.610  17.579   7.903  0.00  0.00     0.227 C 
HETATM   23  O   UNK N   1      30.462  18.095   9.002  0.00  0.00    -0.273 OA
HETATM   24  H   UNK N   1      31.674  16.285   6.784  0.00  0.00     0.170 HD
BRANCH  22  25
HETATM   25  C   UNK N   1      29.758  18.052   6.754  0.00  0.00     0.078 C 
BRANCH  25  26
HETATM   26  C   UNK N   1      28.286  18.123   7.130  0.00  0.00     0.013 C 
BRANCH  26  27
HETATM   27  C   UNK N   1      27.858  19.576   7.225  0.00  0.00    -0.004 C 
HETATM   28  C   UNK N   1      27.262  20.019   5.904  0.00  0.00     0.005 C 
ENDBRANCH  26  27
ENDBRANCH  25  26
BRANCH  25  29
HETATM   29  C   UNK N   1      29.966  17.203   5.503  0.00  0.00     0.013 C 
BRANCH  29  30
HETATM   30  C   UNK N   1      28.646  16.640   5.025  0.00  0.00    -0.004 C 
HETATM   31  C   UNK N   1      28.446  17.017   3.573  0.00  0.00     0.005 C 
ENDBRANCH  29  30
ENDBRANCH  25  29
ENDBRANCH  22  25
ENDBRANCH   1  21
TORSDOF 10
ENDMDL
MODEL 5
REMARK VINA RESULT:      -6.2      3.135      4.952
REMARK  10 active torsions:
REMARK  status: ('A' for Active; 'I' for Inactive)
REMARK    1  A    between atoms: C_2  and  C_3 
REMARK    2  A    between atoms: C_3  and  C_4 
REMARK    3  A    between atoms: C_4  and  C_5 
REMARK    4  A    between atoms: C_4  and  C_8 
REMARK    5  A    between atoms: C_5  and  C_6 
REMARK       I    between atoms: C_8  and  N_10 
REMARK    6  A    between atoms: N_10  and  C_11 
REMARK    7  A    between atoms: C_19  and  N_14 
REMARK    8  A    between atoms: C_21  and  O_26 
REMARK    9  A    between atoms: C_22  and  C_24 
REMARK   10  A    between atoms: C_24  and  O_25 
ROOT
HETATM    1  C   UNK N   1      30.792  17.069   5.646  0.00  0.00     0.112 A 
HETATM    2  C   UNK N   1      30.600  16.245   6.750  0.00  0.00     0.066 A 
HETATM    3  C   UNK N   1      31.688  15.940   7.565  0.00  0.00     0.102 A 
HETATM    4  N   UNK N   1      32.924  16.447   7.292  0.00  0.00    -0.276 N 
HETATM    5  C   UNK N   1      33.095  17.272   6.195  0.00  0.00     0.330 A 
HETATM    6  O   UNK N   1      34.189  17.739   5.931  0.00  0.00    -0.246 OA
HETATM    7  N   UNK N   1      32.028  17.567   5.388  0.00  0.00    -0.294 N 
ATOM      8  HN  UNK N   1      32.166  18.172   4.579  1.00  0.00     0.172 HD
ENDROOT
BRANCH   4   9
HETATM    9  C   UNK N   1      34.090  16.108   8.126  0.00  0.00     0.307 C 
HETATM   10  C   UNK N   1      34.865  14.866   7.744  0.00  0.00     0.314 C 
HETATM   11  C   UNK N   1      35.757  14.823   8.945  0.00  0.00     0.226 C 
HETATM   12  F   UNK N   1      35.575  15.002   6.565  0.00  0.00    -0.198 F 
HETATM   13  F   UNK N   1      34.034  13.755   7.702  0.00  0.00    -0.198 F 
HETATM   14  C   UNK N   1      34.829  15.287  10.063  0.00  0.00     0.182 C 
HETATM   15  O   UNK N   1      33.719  15.925   9.469  0.00  0.00    -0.350 OA
BRANCH  11  16
HETATM   16  O   UNK N   1      36.262  13.542   9.179  0.00  0.00    -0.387 OA
HETATM   17  H   UNK N   1      37.189  13.314   9.353  0.00  0.00     0.210 HD
ENDBRANCH  11  16
BRANCH  14  18
HETATM   18  C   UNK N   1      35.545  16.285  10.964  0.00  0.00     0.199 C 
BRANCH  18  19
HETATM   19  O   UNK N   1      36.926  16.140  10.860  0.00  0.00    -0.398 OA
HETATM   20  H   UNK N   1      37.322  15.254  10.823  0.00  0.00     0.209 HD
ENDBRANCH  18  19
ENDBRANCH  14  18
ENDBRANCH   4   9
BRANCH   1  21
HETATM   21  N   UNK N   1      29.696  17.336   4.784  0.00  0.00    -0.313 N 
HETATM   22  C   UNK N   1      28.629  18.125   5.095  0.00  0.00     0.227 C 
HETATM   23  O   UNK N   1      28.557  18.682   6.181  0.00  0.00    -0.273 OA
HETATM   24  H   UNK N   1      29.707  16.919   3.893  0.00  0.00     0.170 HD
BRANCH  22  25
HETATM   25  C   UNK N   1      27.575  18.410   4.057  0.00  0.00     0.078 C 
BRANCH  25  26
HETATM   26  C   UNK N   1      26.706  19.597   4.441  0.00  0.00     0.013 C 
BRANCH  26  27
HETATM   27  C   UNK N   1      26.491  20.482   3.227  0.00  0.00    -0.004 C 
HETATM   28  C   UNK N   1      25.039  20.421   2.802  0.00  0.00     0.005 C 
ENDBRANCH  26  27
ENDBRANCH  25  26
BRANCH  25  29
HETATM   29  C   UNK N   1      26.725  17.179   3.755  0.00  0.00     0.013 C 
BRANCH  29  30
HETATM   30  C   UNK N   1      25.501  17.156   4.644  0.00  0.00    -0.004 C 
HETATM   31  C   UNK N   1      25.651  16.044   5.660  0.00  0.00     0.005 C 
ENDBRANCH  29  30
ENDBRANCH  25  29
ENDBRANCH  22  25
ENDBRANCH   1  21
TORSDOF 10
ENDMDL
MODEL 6
REMARK VINA RESULT:      -5.9      4.437      6.649
REMARK  10 active torsions:
REMARK  status: ('A' for Active; 'I' for Inactive)
REMARK    1  A    between atoms: C_2  and  C_3 
REMARK    2  A    between atoms: C_3  and  C_4 
REMARK    3  A    between atoms: C_4  and  C_5 
REMARK    4  A    between atoms: C_4  and  C_8 
REMARK    5  A    between atoms: C_5  and  C_6 
REMARK       I    between atoms: C_8  and  N_10 
REMARK    6  A    between atoms: N_10  and  C_11 
REMARK    7  A    between atoms: C_19  and  N_14 
REMARK    8  A    between atoms: C_21  and  O_26 
REMARK    9  A    between atoms: C_22  and  C_24 
REMARK   10  A    between atoms: C_24  and  O_25 
ROOT
HETATM    1  C   UNK N   1      28.015  17.580   6.794  0.00  0.00     0.112 A 
HETATM    2  C   UNK N   1      28.880  16.632   6.258  0.00  0.00     0.066 A 
HETATM    3  C   UNK N   1      30.117  16.424   6.864  0.00  0.00     0.102 A 
HETATM    4  N   UNK N   1      30.476  17.133   7.972  0.00  0.00    -0.276 N 
HETATM    5  C   UNK N   1      29.599  18.065   8.498  0.00  0.00     0.330 A 
HETATM    6  O   UNK N   1      29.896  18.710   9.488  0.00  0.00    -0.246 OA
HETATM    7  N   UNK N   1      28.386  18.276   7.899  0.00  0.00    -0.294 N 
ATOM      8  HN  UNK N   1      27.749  18.970   8.291  1.00  0.00     0.172 HD
ENDROOT
BRANCH   4   9
HETATM    9  C   UNK N   1      31.793  16.946   8.605  0.00  0.00     0.307 C 
HETATM   10  C   UNK N   1      32.937  17.769   8.055  0.00  0.00     0.314 C 
HETATM   11  C   UNK N   1      34.035  17.101   8.822  0.00  0.00     0.226 C 
HETATM   12  F   UNK N   1      32.834  19.117   8.348  0.00  0.00    -0.198 F 
HETATM   13  F   UNK N   1      33.087  17.563   6.690  0.00  0.00    -0.198 F 
HETATM   14  C   UNK N   1      33.588  15.644   8.839  0.00  0.00     0.182 C 
HETATM   15  O   UNK N   1      32.213  15.607   8.519  0.00  0.00    -0.350 OA
BRANCH  11  16
HETATM   16  O   UNK N   1      35.279  17.262   8.206  0.00  0.00    -0.387 OA
HETATM   17  H   UNK N   1      35.507  17.002   7.299  0.00  0.00     0.210 HD
ENDBRANCH  11  16
BRANCH  14  18
HETATM   18  C   UNK N   1      33.784  15.048  10.227  0.00  0.00     0.199 C 
BRANCH  18  19
HETATM   19  O   UNK N   1      34.470  15.935  11.052  0.00  0.00    -0.398 OA
HETATM   20  H   UNK N   1      34.762  16.795  10.708  0.00  0.00     0.209 HD
ENDBRANCH  18  19
ENDBRANCH  14  18
ENDBRANCH   4   9
BRANCH   1  21
HETATM   21  N   UNK N   1      26.777  17.832   6.146  0.00  0.00    -0.313 N 
HETATM   22  C   UNK N   1      26.510  18.910   5.358  0.00  0.00     0.227 C 
HETATM   23  O   UNK N   1      27.365  19.757   5.145  0.00  0.00    -0.273 OA
HETATM   24  H   UNK N   1      26.055  17.176   6.278  0.00  0.00     0.170 HD
BRANCH  22  25
HETATM   25  C   UNK N   1      25.186  19.013   4.646  0.00  0.00     0.078 C 
BRANCH  25  26
HETATM   26  C   UNK N   1      24.304  17.802   4.910  0.00  0.00     0.013 C 
BRANCH  26  27
HETATM   27  C   UNK N   1      24.287  16.912   3.681  0.00  0.00    -0.004 C 
HETATM   28  C   UNK N   1      24.975  15.599   3.993  0.00  0.00     0.005 C 
ENDBRANCH  26  27
ENDBRANCH  25  26
BRANCH  25  29
HETATM   29  C   UNK N   1      25.359  19.253   3.149  0.00  0.00     0.013 C 
BRANCH  29  30
HETATM   30  C   UNK N   1      24.801  20.606   2.766  0.00  0.00    -0.004 C 
HETATM   31  C   UNK N   1      23.290  20.554   2.838  0.00  0.00     0.005 C 
ENDBRANCH  29  30
ENDBRANCH  25  29
ENDBRANCH  22  25
ENDBRANCH   1  21
TORSDOF 10
ENDMDL
MODEL 7
REMARK VINA RESULT:      -5.8      3.674      8.432
REMARK  10 active torsions:
REMARK  status: ('A' for Active; 'I' for Inactive)
REMARK    1  A    between atoms: C_2  and  C_3 
REMARK    2  A    between atoms: C_3  and  C_4 
REMARK    3  A    between atoms: C_4  and  C_5 
REMARK    4  A    between atoms: C_4  and  C_8 
REMARK    5  A    between atoms: C_5  and  C_6 
REMARK       I    between atoms: C_8  and  N_10 
REMARK    6  A    between atoms: N_10  and  C_11 
REMARK    7  A    between atoms: C_19  and  N_14 
REMARK    8  A    between atoms: C_21  and  O_26 
REMARK    9  A    between atoms: C_22  and  C_24 
REMARK   10  A    between atoms: C_24  and  O_25 
ROOT
HETATM    1  C   UNK N   1      34.146  15.400   8.791  0.00  0.00     0.112 A 
HETATM    2  C   UNK N   1      32.958  14.681   8.704  0.00  0.00     0.066 A 
HETATM    3  C   UNK N   1      31.773  15.363   8.436  0.00  0.00     0.102 A 
HETATM    4  N   UNK N   1      31.775  16.714   8.253  0.00  0.00    -0.276 N 
HETATM    5  C   UNK N   1      32.967  17.411   8.334  0.00  0.00     0.330 A 
HETATM    6  O   UNK N   1      32.994  18.618   8.172  0.00  0.00    -0.246 OA
HETATM    7  N   UNK N   1      34.132  16.744   8.605  0.00  0.00    -0.294 N 
ATOM      8  HN  UNK N   1      35.004  17.268   8.667  1.00  0.00     0.172 HD
ENDROOT
BRANCH   4   9
HETATM    9  C   UNK N   1      30.525  17.452   8.000  0.00  0.00     0.307 C 
HETATM   10  C   UNK N   1      29.752  17.923   9.213  0.00  0.00     0.314 C 
HETATM   11  C   UNK N   1      28.529  18.388   8.488  0.00  0.00     0.226 C 
HETATM   12  F   UNK N   1      30.379  18.947   9.900  0.00  0.00    -0.198 F 
HETATM   13  F   UNK N   1      29.457  16.861  10.057  0.00  0.00    -0.198 F 
HETATM   14  C   UNK N   1      28.385  17.351   7.380  0.00  0.00     0.182 C 
HETATM   15  O   UNK N   1      29.621  16.680   7.251  0.00  0.00    -0.350 OA
BRANCH  11  16
HETATM   16  O   UNK N   1      27.408  18.426   9.320  0.00  0.00    -0.387 OA
HETATM   17  H   UNK N   1      27.191  17.789  10.019  0.00  0.00     0.210 HD
ENDBRANCH  11  16
BRANCH  14  18
HETATM   18  C   UNK N   1      28.057  18.032   6.058  0.00  0.00     0.199 C 
BRANCH  18  19
HETATM   19  O   UNK N   1      26.680  18.192   5.915  0.00  0.00    -0.398 OA
HETATM   20  H   UNK N   1      26.078  17.874   6.606  0.00  0.00     0.209 HD
ENDBRANCH  18  19
ENDBRANCH  14  18
ENDBRANCH   4   9
BRANCH   1  21
HETATM   21  N   UNK N   1      35.346  14.715   9.118  0.00  0.00    -0.313 N 
HETATM   22  C   UNK N   1      35.985  14.782  10.319  0.00  0.00     0.227 C 
HETATM   23  O   UNK N   1      35.535  15.462  11.231  0.00  0.00    -0.273 OA
HETATM   24  H   UNK N   1      35.748  14.146   8.422  0.00  0.00     0.170 HD
BRANCH  22  25
HETATM   25  C   UNK N   1      37.201  13.930  10.575  0.00  0.00     0.078 C 
BRANCH  25  26
HETATM   26  C   UNK N   1      38.352  14.289   9.648  0.00  0.00     0.013 C 
BRANCH  26  27
HETATM   27  C   UNK N   1      38.671  13.105   8.754  0.00  0.00    -0.004 C 
HETATM   28  C   UNK N   1      38.521  13.507   7.302  0.00  0.00     0.005 C 
ENDBRANCH  26  27
ENDBRANCH  25  26
BRANCH  25  29
HETATM   29  C   UNK N   1      36.879  12.440  10.501  0.00  0.00     0.013 C 
BRANCH  29  30
HETATM   30  C   UNK N   1      36.216  11.982  11.781  0.00  0.00    -0.004 C 
HETATM   31  C   UNK N   1      37.208  12.097  12.918  0.00  0.00     0.005 C 
ENDBRANCH  29  30
ENDBRANCH  25  29
ENDBRANCH  22  25
ENDBRANCH   1  21
TORSDOF 10
ENDMDL
MODEL 8
REMARK VINA RESULT:      -5.8      2.595      4.039
REMARK  10 active torsions:
REMARK  status: ('A' for Active; 'I' for Inactive)
REMARK    1  A    between atoms: C_2  and  C_3 
REMARK    2  A    between atoms: C_3  and  C_4 
REMARK    3  A    between atoms: C_4  and  C_5 
REMARK    4  A    between atoms: C_4  and  C_8 
REMARK    5  A    between atoms: C_5  and  C_6 
REMARK       I    between atoms: C_8  and  N_10 
REMARK    6  A    between atoms: N_10  and  C_11 
REMARK    7  A    between atoms: C_19  and  N_14 
REMARK    8  A    between atoms: C_21  and  O_26 
REMARK    9  A    between atoms: C_22  and  C_24 
REMARK   10  A    between atoms: C_24  and  O_25 
ROOT
HETATM    1  C   UNK N   1      31.778  16.679   7.175  0.00  0.00     0.112 A 
HETATM    2  C   UNK N   1      32.944  17.374   7.478  0.00  0.00     0.066 A 
HETATM    3  C   UNK N   1      33.924  16.748   8.246  0.00  0.00     0.102 A 
HETATM    4  N   UNK N   1      33.750  15.471   8.689  0.00  0.00    -0.276 N 
HETATM    5  C   UNK N   1      32.588  14.792   8.369  0.00  0.00     0.330 A 
HETATM    6  O   UNK N   1      32.409  13.649   8.752  0.00  0.00    -0.246 OA
HETATM    7  N   UNK N   1      31.620  15.407   7.621  0.00  0.00    -0.294 N 
ATOM      8  HN  UNK N   1      30.765  14.899   7.396  1.00  0.00     0.172 HD
ENDROOT
BRANCH   4   9
HETATM    9  C   UNK N   1      34.764  14.808   9.528  0.00  0.00     0.307 C 
HETATM   10  C   UNK N   1      34.786  15.181  10.994  0.00  0.00     0.314 C 
HETATM   11  C   UNK N   1      36.049  14.464  11.352  0.00  0.00     0.226 C 
HETATM   12  F   UNK N   1      33.694  14.706  11.698  0.00  0.00    -0.198 F 
HETATM   13  F   UNK N   1      34.928  16.552  11.157  0.00  0.00    -0.198 F 
HETATM   14  C   UNK N   1      36.911  14.674  10.112  0.00  0.00     0.182 C 
HETATM   15  O   UNK N   1      36.062  15.062   9.053  0.00  0.00    -0.350 OA
BRANCH  11  16
HETATM   16  O   UNK N   1      36.645  14.991  12.500  0.00  0.00    -0.387 OA
HETATM   17  H   UNK N   1      37.596  15.030  12.686  0.00  0.00     0.210 HD
ENDBRANCH  11  16
BRANCH  14  18
HETATM   18  C   UNK N   1      37.611  13.377   9.729  0.00  0.00     0.199 C 
BRANCH  18  19
HETATM   19  O   UNK N   1      38.057  12.703  10.864  0.00  0.00    -0.398 OA
HETATM   20  H   UNK N   1      38.493  13.192  11.580  0.00  0.00     0.209 HD
ENDBRANCH  18  19
ENDBRANCH  14  18
ENDBRANCH   4   9
BRANCH   1  21
HETATM   21  N   UNK N   1      30.755  17.333   6.438  0.00  0.00    -0.313 N 
HETATM   22  C   UNK N   1      29.492  17.569   6.890  0.00  0.00     0.227 C 
HETATM   23  O   UNK N   1      29.154  17.223   8.014  0.00  0.00    -0.273 OA
HETATM   24  H   UNK N   1      30.976  17.640   5.529  0.00  0.00     0.170 HD
BRANCH  22  25
HETATM   25  C   UNK N   1      28.526  18.361   6.048  0.00  0.00     0.078 C 
BRANCH  25  26
HETATM   26  C   UNK N   1      27.843  19.459   6.849  0.00  0.00     0.013 C 
BRANCH  26  27
HETATM   27  C   UNK N   1      27.620  20.669   5.961  0.00  0.00    -0.004 C 
HETATM   28  C   UNK N   1      26.529  21.540   6.550  0.00  0.00     0.005 C 
ENDBRANCH  26  27
ENDBRANCH  25  26
BRANCH  25  29
HETATM   29  C   UNK N   1      27.502  17.464   5.359  0.00  0.00     0.013 C 
BRANCH  29  30
HETATM   30  C   UNK N   1      27.637  17.572   3.856  0.00  0.00    -0.004 C 
HETATM   31  C   UNK N   1      27.203  16.266   3.227  0.00  0.00     0.005 C 
ENDBRANCH  29  30
ENDBRANCH  25  29
ENDBRANCH  22  25
ENDBRANCH   1  21
TORSDOF 10
ENDMDL
MODEL 9
REMARK VINA RESULT:      -5.7      3.085      4.930
REMARK  10 active torsions:
REMARK  status: ('A' for Active; 'I' for Inactive)
REMARK    1  A    between atoms: C_2  and  C_3 
REMARK    2  A    between atoms: C_3  and  C_4 
REMARK    3  A    between atoms: C_4  and  C_5 
REMARK    4  A    between atoms: C_4  and  C_8 
REMARK    5  A    between atoms: C_5  and  C_6 
REMARK       I    between atoms: C_8  and  N_10 
REMARK    6  A    between atoms: N_10  and  C_11 
REMARK    7  A    between atoms: C_19  and  N_14 
REMARK    8  A    between atoms: C_21  and  O_26 
REMARK    9  A    between atoms: C_22  and  C_24 
REMARK   10  A    between atoms: C_24  and  O_25 
ROOT
HETATM    1  C   UNK N   1      30.693  17.168   7.591  0.00  0.00     0.112 A 
HETATM    2  C   UNK N   1      31.673  17.844   8.311  0.00  0.00     0.066 A 
HETATM    3  C   UNK N   1      32.822  17.158   8.698  0.00  0.00     0.102 A 
HETATM    4  N   UNK N   1      32.991  15.845   8.369  0.00  0.00    -0.276 N 
HETATM    5  C   UNK N   1      32.011  15.192   7.644  0.00  0.00     0.330 A 
HETATM    6  O   UNK N   1      32.140  14.020   7.338  0.00  0.00    -0.246 OA
HETATM    7  N   UNK N   1      30.877  15.863   7.270  0.00  0.00    -0.294 N 
ATOM      8  HN  UNK N   1      30.158  15.370   6.740  1.00  0.00     0.172 HD
ENDROOT
BRANCH   4   9
HETATM    9  C   UNK N   1      34.187  15.099   8.798  0.00  0.00     0.307 C 
HETATM   10  C   UNK N   1      34.966  15.670   9.964  0.00  0.00     0.314 C 
HETATM   11  C   UNK N   1      36.137  14.743   9.879  0.00  0.00     0.226 C 
HETATM   12  F   UNK N   1      34.300  15.567  11.172  0.00  0.00    -0.198 F 
HETATM   13  F   UNK N   1      35.348  16.980   9.713  0.00  0.00    -0.198 F 
HETATM   14  C   UNK N   1      36.310  14.564   8.375  0.00  0.00     0.182 C 
HETATM   15  O   UNK N   1      35.113  14.975   7.749  0.00  0.00    -0.350 OA
BRANCH  11  16
HETATM   16  O   UNK N   1      37.278  15.283  10.478  0.00  0.00    -0.387 OA
HETATM   17  H   UNK N   1      37.320  15.714  11.345  0.00  0.00     0.210 HD
ENDBRANCH  11  16
BRANCH  14  18
HETATM   18  C   UNK N   1      36.559  13.098   8.043  0.00  0.00     0.199 C 
BRANCH  18  19
HETATM   19  O   UNK N   1      37.150  12.442   9.120  0.00  0.00    -0.398 OA
HETATM   20  H   UNK N   1      37.039  12.787  10.020  0.00  0.00     0.209 HD
ENDBRANCH  18  19
ENDBRANCH  14  18
ENDBRANCH   4   9
BRANCH   1  21
HETATM   21  N   UNK N   1      29.497  17.851   7.243  0.00  0.00    -0.313 N 
HETATM   22  C   UNK N   1      29.023  18.005   5.975  0.00  0.00     0.227 C 
HETATM   23  O   UNK N   1      29.623  17.533   5.020  0.00  0.00    -0.273 OA
HETATM   24  H   UNK N   1      28.970  18.244   7.975  0.00  0.00     0.170 HD
BRANCH  22  25
HETATM   25  C   UNK N   1      27.689  18.667   5.745  0.00  0.00     0.078 C 
BRANCH  25  26
HETATM   26  C   UNK N   1      26.760  17.796   4.912  0.00  0.00     0.013 C 
BRANCH  26  27
HETATM   27  C   UNK N   1      26.140  18.631   3.806  0.00  0.00    -0.004 C 
HETATM   28  C   UNK N   1      24.652  18.774   4.049  0.00  0.00     0.005 C 
ENDBRANCH  26  27
ENDBRANCH  25  26
BRANCH  25  29
HETATM   29  C   UNK N   1      27.840  20.055   5.131  0.00  0.00     0.013 C 
BRANCH  29  30
HETATM   30  C   UNK N   1      27.782  21.115   6.208  0.00  0.00    -0.004 C 
HETATM   31  C   UNK N   1      26.350  21.269   6.672  0.00  0.00     0.005 C 
ENDBRANCH  29  30
ENDBRANCH  25  29
ENDBRANCH  22  25
ENDBRANCH   1  21
TORSDOF 10
ENDMDL
