MODEL 1
REMARK VINA RESULT:      -8.8      0.000      0.000
REMARK  7 active torsions:
REMARK  status: ('A' for Active; 'I' for Inactive)
REMARK    1  A    between atoms: C_4  and  O_7 
REMARK    2  A    between atoms: O_7  and  C_8 
REMARK    3  A    between atoms: C_11  and  C_14 
REMARK    4  A    between atoms: C_14  and  N_15 
REMARK       I    between atoms: N_15  and  C_16 
REMARK    5  A    between atoms: C_16  and  C_18 
REMARK    6  A    between atoms: C_21  and  C_25 
REMARK    7  A    between atoms: C_28  and  O_32 
ROOT
HETATM    1  N   UNK N   1      35.527  14.318  10.372  0.00  0.00    -0.350 N 
HETATM    2  C   UNK N   1      35.870  15.609  10.220  0.00  0.00     0.295 C 
HETATM    3  O   UNK N   1      36.921  16.034  10.681  0.00  0.00    -0.264 OA
HETATM    4  H   UNK N   1      34.605  14.045  10.161  0.00  0.00     0.163 HD
ENDROOT
BRANCH   2   5
HETATM    5  C   UNK N   1      35.001  16.496   9.448  0.00  0.00     0.240 A 
HETATM    6  N   UNK N   1      33.986  16.058   8.697  0.00  0.00    -0.315 N 
HETATM    7  C   UNK N   1      33.457  17.195   8.213  0.00  0.00     0.138 A 
ATOM      8  HN  UNK N   1      33.685  15.097   8.534  1.00  0.00     0.169 HD
HETATM    9  N   UNK N   1      34.120  18.278   8.665  0.00  0.00    -0.242 N 
HETATM   10  O   UNK N   1      35.071  17.808   9.420  0.00  0.00    -0.212 OA
ATOM     11  HN  UNK N   1      33.920  19.257   8.460  1.00  0.00     0.196 HD
BRANCH   7  12
HETATM   12  C   UNK N   1      32.374  17.195   7.233  0.00  0.00     0.013 A 
HETATM   13  C   UNK N   1      32.722  17.068   5.888  0.00  0.00     0.037 A 
HETATM   14  C   UNK N   1      31.761  17.151   4.891  0.00  0.00     0.046 A 
HETATM   15  C   UNK N   1      30.418  17.344   5.235  0.00  0.00     0.100 A 
HETATM   16 Br   UNK N   1      32.325  17.030   3.071  0.00  0.00    -0.048 Br
HETATM   17  C   UNK N   1      30.051  17.454   6.589  0.00  0.00     0.046 A 
HETATM   18  C   UNK N   1      31.034  17.396   7.588  0.00  0.00     0.037 A 
HETATM   19 Br   UNK N   1      28.221  17.701   7.081  0.00  0.00    -0.048 Br
BRANCH  15  20
HETATM   20  O   UNK N   1      29.485  17.429   4.270  0.00  0.00    -0.358 OA
HETATM   21  H   UNK N   1      29.541  16.876   3.515  0.00  0.00     0.217 HD
ENDBRANCH  15  20
ENDBRANCH   7  12
ENDBRANCH   2   5
BRANCH   1  22
HETATM   22  C   UNK N   1      36.458  13.319  10.831  0.00  0.00     0.161 C 
BRANCH  22  23
HETATM   23  C   UNK N   1      36.099  13.080  12.251  0.00  0.00    -0.040 A 
HETATM   24  C   UNK N   1      36.632  13.885  13.261  0.00  0.00     0.011 A 
HETATM   25  C   UNK N   1      36.116  13.801  14.559  0.00  0.00     0.038 A 
HETATM   26  C   UNK N   1      35.038  12.949  14.835  0.00  0.00     0.076 A 
HETATM   27  C   UNK N   1      34.548  12.109  13.827  0.00  0.00     0.038 A 
HETATM   28  C   UNK N   1      35.077  12.171  12.547  0.00  0.00     0.011 A 
BRANCH  26  29
HETATM   29  O   UNK N   1      34.466  12.988  16.065  0.00  0.00    -0.311 OA
BRANCH  29  30
HETATM   30  C   UNK N   1      34.959  12.404  17.195  0.00  0.00     0.076 A 
HETATM   31  C   UNK N   1      35.009  13.155  18.374  0.00  0.00     0.037 A 
HETATM   32  C   UNK N   1      35.457  12.573  19.564  0.00  0.00     0.003 A 
HETATM   33  C   UNK N   1      35.853  11.232  19.586  0.00  0.00     0.000 A 
HETATM   34  C   UNK N   1      35.804  10.472  18.418  0.00  0.00     0.003 A 
HETATM   35  C   UNK N   1      35.355  11.052  17.230  0.00  0.00     0.037 A 
ENDBRANCH  29  30
ENDBRANCH  26  29
ENDBRANCH  22  23
ENDBRANCH   1  22
TORSDOF 7
ENDMDL
MODEL 2
REMARK VINA RESULT:      -8.8      1.003      2.148
REMARK  7 active torsions:
REMARK  status: ('A' for Active; 'I' for Inactive)
REMARK    1  A    between atoms: C_4  and  O_7 
REMARK    2  A    between atoms: O_7  and  C_8 
REMARK    3  A    between atoms: C_11  and  C_14 
REMARK    4  A    between atoms: C_14  and  N_15 
REMARK       I    between atoms: N_15  and  C_16 
REMARK    5  A    between atoms: C_16  and  C_18 
REMARK    6  A    between atoms: C_21  and  C_25 
REMARK    7  A    between atoms: C_28  and  O_32 
ROOT
HETATM    1  N   UNK N   1      35.681  14.328  10.353  0.00  0.00    -0.350 N 
HETATM    2  C   UNK N   1      35.946  15.646  10.366  0.00  0.00     0.295 C 
HETATM    3  O   UNK N   1      36.938  16.077  10.937  0.00  0.00    -0.264 OA
HETATM    4  H   UNK N   1      34.792  14.025  10.056  0.00  0.00     0.163 HD
ENDROOT
BRANCH   2   5
HETATM    5  C   UNK N   1      35.066  16.560   9.642  0.00  0.00     0.240 A 
HETATM    6  N   UNK N   1      33.861  16.210   9.180  0.00  0.00    -0.315 N 
HETATM    7  C   UNK N   1      33.407  17.348   8.629  0.00  0.00     0.138 A 
ATOM      8  HN  UNK N   1      33.400  15.302   9.235  1.00  0.00     0.169 HD
HETATM    9  N   UNK N   1      34.298  18.351   8.764  0.00  0.00    -0.242 N 
HETATM   10  O   UNK N   1      35.312  17.827   9.388  0.00  0.00    -0.212 OA
ATOM     11  HN  UNK N   1      34.198  19.315   8.445  1.00  0.00     0.196 HD
BRANCH   7  12
HETATM   12  C   UNK N   1      32.150  17.407   7.886  0.00  0.00     0.013 A 
HETATM   13  C   UNK N   1      30.985  17.661   8.610  0.00  0.00     0.037 A 
HETATM   14  C   UNK N   1      29.743  17.643   7.992  0.00  0.00     0.046 A 
HETATM   15  C   UNK N   1      29.654  17.387   6.619  0.00  0.00     0.100 A 
HETATM   16 Br   UNK N   1      28.190  17.937   9.063  0.00  0.00    -0.048 Br
HETATM   17  C   UNK N   1      30.823  17.149   5.874  0.00  0.00     0.046 A 
HETATM   18  C   UNK N   1      32.072  17.143   6.513  0.00  0.00     0.037 A 
HETATM   19 Br   UNK N   1      30.725  16.814   3.995  0.00  0.00    -0.048 Br
BRANCH  15  20
HETATM   20  O   UNK N   1      28.450  17.364   6.019  0.00  0.00    -0.358 OA
HETATM   21  H   UNK N   1      28.197  18.064   5.449  0.00  0.00     0.217 HD
ENDBRANCH  15  20
ENDBRANCH   7  12
ENDBRANCH   2   5
BRANCH   1  22
HETATM   22  C   UNK N   1      36.648  13.339  10.759  0.00  0.00     0.161 C 
BRANCH  22  23
HETATM   23  C   UNK N   1      36.268  12.974  12.146  0.00  0.00    -0.040 A 
HETATM   24  C   UNK N   1      34.925  12.815  12.494  0.00  0.00     0.011 A 
HETATM   25  C   UNK N   1      34.591  12.253  13.731  0.00  0.00     0.038 A 
HETATM   26  C   UNK N   1      35.598  11.806  14.597  0.00  0.00     0.076 A 
HETATM   27  C   UNK N   1      36.942  12.019  14.260  0.00  0.00     0.038 A 
HETATM   28  C   UNK N   1      37.273  12.601  13.047  0.00  0.00     0.011 A 
BRANCH  26  29
HETATM   29  O   UNK N   1      35.249  11.138  15.726  0.00  0.00    -0.311 OA
BRANCH  29  30
HETATM   30  C   UNK N   1      35.312  11.629  16.997  0.00  0.00     0.076 A 
HETATM   31  C   UNK N   1      35.071  12.990  17.206  0.00  0.00     0.037 A 
HETATM   32  C   UNK N   1      35.074  13.519  18.500  0.00  0.00     0.003 A 
HETATM   33  C   UNK N   1      35.312  12.687  19.599  0.00  0.00     0.000 A 
HETATM   34  C   UNK N   1      35.551  11.327  19.405  0.00  0.00     0.003 A 
HETATM   35  C   UNK N   1      35.546  10.798  18.112  0.00  0.00     0.037 A 
ENDBRANCH  29  30
ENDBRANCH  26  29
ENDBRANCH  22  23
ENDBRANCH   1  22
TORSDOF 7
ENDMDL
MODEL 3
REMARK VINA RESULT:      -8.6      3.825     11.067
REMARK  7 active torsions:
REMARK  status: ('A' for Active; 'I' for Inactive)
REMARK    1  A    between atoms: C_4  and  O_7 
REMARK    2  A    between atoms: O_7  and  C_8 
REMARK    3  A    between atoms: C_11  and  C_14 
REMARK    4  A    between atoms: C_14  and  N_15 
REMARK       I    between atoms: N_15  and  C_16 
REMARK    5  A    between atoms: C_16  and  C_18 
REMARK    6  A    between atoms: C_21  and  C_25 
REMARK    7  A    between atoms: C_28  and  O_32 
ROOT
HETATM    1  N   UNK N   1      34.504  16.996   8.781  0.00  0.00    -0.350 N 
HETATM    2  C   UNK N   1      35.128  15.819   8.593  0.00  0.00     0.295 C 
HETATM    3  O   UNK N   1      35.188  15.316   7.480  0.00  0.00    -0.264 OA
HETATM    4  H   UNK N   1      34.306  17.286   9.700  0.00  0.00     0.163 HD
ENDROOT
BRANCH   2   5
HETATM    5  C   UNK N   1      35.783  15.168   9.725  0.00  0.00     0.240 A 
HETATM    6  N   UNK N   1      35.146  14.834  10.851  0.00  0.00    -0.315 N 
HETATM    7  C   UNK N   1      36.108  14.242  11.579  0.00  0.00     0.138 A 
ATOM      8  HN  UNK N   1      34.168  14.988  11.097  1.00  0.00     0.169 HD
HETATM    9  N   UNK N   1      37.280  14.210  10.912  0.00  0.00    -0.242 N 
HETATM   10  O   UNK N   1      37.043  14.795   9.774  0.00  0.00    -0.212 OA
ATOM     11  HN  UNK N   1      38.163  13.811  11.232  1.00  0.00     0.196 HD
BRANCH   7  12
HETATM   12  C   UNK N   1      35.890  13.813  12.958  0.00  0.00     0.013 A 
HETATM   13  C   UNK N   1      36.458  14.585  13.972  0.00  0.00     0.037 A 
HETATM   14  C   UNK N   1      36.373  14.194  15.300  0.00  0.00     0.046 A 
HETATM   15  C   UNK N   1      35.691  13.018  15.635  0.00  0.00     0.100 A 
HETATM   16 Br   UNK N   1      37.230  15.271  16.622  0.00  0.00    -0.048 Br
HETATM   17  C   UNK N   1      35.097  12.241  14.625  0.00  0.00     0.046 A 
HETATM   18  C   UNK N   1      35.211  12.631  13.282  0.00  0.00     0.037 A 
HETATM   19 Br   UNK N   1      34.147  10.641  15.063  0.00  0.00    -0.048 Br
BRANCH  15  20
HETATM   20  O   UNK N   1      35.611  12.634  16.922  0.00  0.00    -0.358 OA
HETATM   21  H   UNK N   1      36.380  12.631  17.458  0.00  0.00     0.217 HD
ENDBRANCH  15  20
ENDBRANCH   7  12
ENDBRANCH   2   5
BRANCH   1  22
HETATM   22  C   UNK N   1      34.117  17.849   7.686  0.00  0.00     0.161 C 
BRANCH  22  23
HETATM   23  C   UNK N   1      32.685  17.543   7.446  0.00  0.00    -0.040 A 
HETATM   24  C   UNK N   1      31.733  17.785   8.439  0.00  0.00     0.011 A 
HETATM   25  C   UNK N   1      30.371  17.709   8.126  0.00  0.00     0.038 A 
HETATM   26  C   UNK N   1      29.963  17.440   6.813  0.00  0.00     0.076 A 
HETATM   27  C   UNK N   1      30.926  17.147   5.838  0.00  0.00     0.038 A 
HETATM   28  C   UNK N   1      32.276  17.195   6.153  0.00  0.00     0.011 A 
BRANCH  26  29
HETATM   29  O   UNK N   1      28.643  17.510   6.505  0.00  0.00    -0.311 OA
BRANCH  29  30
HETATM   30  C   UNK N   1      28.018  18.560   5.899  0.00  0.00     0.076 A 
HETATM   31  C   UNK N   1      27.629  19.653   6.679  0.00  0.00     0.037 A 
HETATM   32  C   UNK N   1      27.035  20.771   6.085  0.00  0.00     0.003 A 
HETATM   33  C   UNK N   1      26.832  20.808   4.702  0.00  0.00     0.000 A 
HETATM   34  C   UNK N   1      27.219  19.726   3.912  0.00  0.00     0.003 A 
HETATM   35  C   UNK N   1      27.814  18.610   4.505  0.00  0.00     0.037 A 
ENDBRANCH  29  30
ENDBRANCH  26  29
ENDBRANCH  22  23
ENDBRANCH   1  22
TORSDOF 7
ENDMDL
MODEL 4
REMARK VINA RESULT:      -8.5      3.676     11.114
REMARK  7 active torsions:
REMARK  status: ('A' for Active; 'I' for Inactive)
REMARK    1  A    between atoms: C_4  and  O_7 
REMARK    2  A    between atoms: O_7  and  C_8 
REMARK    3  A    between atoms: C_11  and  C_14 
REMARK    4  A    between atoms: C_14  and  N_15 
REMARK       I    between atoms: N_15  and  C_16 
REMARK    5  A    between atoms: C_16  and  C_18 
REMARK    6  A    between atoms: C_21  and  C_25 
REMARK    7  A    between atoms: C_28  and  O_32 
ROOT
HETATM    1  N   UNK N   1      33.514  17.193   9.142  0.00  0.00    -0.350 N 
HETATM    2  C   UNK N   1      34.783  17.349   9.559  0.00  0.00     0.295 C 
HETATM    3  O   UNK N   1      35.407  18.365   9.291  0.00  0.00    -0.264 OA
HETATM    4  H   UNK N   1      33.099  16.303   9.205  0.00  0.00     0.163 HD
ENDROOT
BRANCH   2   5
HETATM    5  C   UNK N   1      35.397  16.311  10.385  0.00  0.00     0.240 A 
HETATM    6  N   UNK N   1      34.696  15.365  11.018  0.00  0.00    -0.315 N 
HETATM    7  C   UNK N   1      35.652  14.628  11.610  0.00  0.00     0.138 A 
ATOM      8  HN  UNK N   1      33.685  15.234  11.044  1.00  0.00     0.169 HD
HETATM    9  N   UNK N   1      36.883  15.103  11.334  0.00  0.00    -0.242 N 
HETATM   10  O   UNK N   1      36.687  16.147  10.581  0.00  0.00    -0.212 OA
ATOM     11  HN  UNK N   1      37.778  14.726  11.648  1.00  0.00     0.196 HD
BRANCH   7  12
HETATM   12  C   UNK N   1      35.337  13.530  12.522  0.00  0.00     0.013 A 
HETATM   13  C   UNK N   1      34.905  12.329  11.960  0.00  0.00     0.037 A 
HETATM   14  C   UNK N   1      34.501  11.271  12.761  0.00  0.00     0.046 A 
HETATM   15  C   UNK N   1      34.545  11.399  14.154  0.00  0.00     0.100 A 
HETATM   16 Br   UNK N   1      33.863   9.683  11.916  0.00  0.00    -0.048 Br
HETATM   17  C   UNK N   1      34.998  12.598  14.734  0.00  0.00     0.046 A 
HETATM   18  C   UNK N   1      35.379  13.671  13.915  0.00  0.00     0.037 A 
HETATM   19 Br   UNK N   1      35.081  12.787  16.633  0.00  0.00    -0.048 Br
BRANCH  15  20
HETATM   20  O   UNK N   1      34.149  10.376  14.933  0.00  0.00    -0.358 OA
HETATM   21  H   UNK N   1      33.352  10.440  15.421  0.00  0.00     0.217 HD
ENDBRANCH  15  20
ENDBRANCH   7  12
ENDBRANCH   2   5
BRANCH   1  22
HETATM   22  C   UNK N   1      32.736  18.282   8.607  0.00  0.00     0.161 C 
BRANCH  22  23
HETATM   23  C   UNK N   1      31.642  17.636   7.841  0.00  0.00    -0.040 A 
HETATM   24  C   UNK N   1      30.335  17.640   8.333  0.00  0.00     0.011 A 
HETATM   25  C   UNK N   1      29.282  17.235   7.506  0.00  0.00     0.038 A 
HETATM   26  C   UNK N   1      29.530  16.871   6.176  0.00  0.00     0.076 A 
HETATM   27  C   UNK N   1      30.851  16.820   5.710  0.00  0.00     0.038 A 
HETATM   28  C   UNK N   1      31.898  17.195   6.537  0.00  0.00     0.011 A 
BRANCH  26  29
HETATM   29  O   UNK N   1      28.479  16.617   5.355  0.00  0.00    -0.311 OA
BRANCH  29  30
HETATM   30  C   UNK N   1      27.724  17.552   4.711  0.00  0.00     0.076 A 
HETATM   31  C   UNK N   1      26.497  17.165   4.162  0.00  0.00     0.037 A 
HETATM   32  C   UNK N   1      25.671  18.106   3.542  0.00  0.00     0.003 A 
HETATM   33  C   UNK N   1      26.061  19.447   3.472  0.00  0.00     0.000 A 
HETATM   34  C   UNK N   1      27.280  19.848   4.019  0.00  0.00     0.003 A 
HETATM   35  C   UNK N   1      28.105  18.907   4.640  0.00  0.00     0.037 A 
ENDBRANCH  29  30
ENDBRANCH  26  29
ENDBRANCH  22  23
ENDBRANCH   1  22
TORSDOF 7
ENDMDL
MODEL 5
REMARK VINA RESULT:      -8.5      4.099     11.302
REMARK  7 active torsions:
REMARK  status: ('A' for Active; 'I' for Inactive)
REMARK    1  A    between atoms: C_4  and  O_7 
REMARK    2  A    between atoms: O_7  and  C_8 
REMARK    3  A    between atoms: C_11  and  C_14 
REMARK    4  A    between atoms: C_14  and  N_15 
REMARK       I    between atoms: N_15  and  C_16 
REMARK    5  A    between atoms: C_16  and  C_18 
REMARK    6  A    between atoms: C_21  and  C_25 
REMARK    7  A    between atoms: C_28  and  O_32 
ROOT
HETATM    1  N   UNK N   1      34.375  16.650   8.775  0.00  0.00    -0.350 N 
HETATM    2  C   UNK N   1      35.177  16.548   9.850  0.00  0.00     0.295 C 
HETATM    3  O   UNK N   1      35.660  17.547  10.364  0.00  0.00    -0.264 OA
HETATM    4  H   UNK N   1      34.153  15.835   8.270  0.00  0.00     0.163 HD
ENDROOT
BRANCH   2   5
HETATM    5  C   UNK N   1      35.427  15.232  10.435  0.00  0.00     0.240 A 
HETATM    6  N   UNK N   1      35.548  15.023  11.749  0.00  0.00    -0.315 N 
HETATM    7  C   UNK N   1      35.729  13.693  11.827  0.00  0.00     0.138 A 
ATOM      8  HN  UNK N   1      35.509  15.704  12.507  1.00  0.00     0.169 HD
HETATM    9  N   UNK N   1      35.706  13.120  10.607  0.00  0.00    -0.242 N 
HETATM   10  O   UNK N   1      35.524  14.101   9.771  0.00  0.00    -0.212 OA
ATOM     11  HN  UNK N   1      35.809  12.129  10.386  1.00  0.00     0.196 HD
BRANCH   7  12
HETATM   12  C   UNK N   1      36.026  13.020  13.089  0.00  0.00     0.013 A 
HETATM   13  C   UNK N   1      36.854  11.898  13.042  0.00  0.00     0.037 A 
HETATM   14  C   UNK N   1      37.110  11.151  14.183  0.00  0.00     0.046 A 
HETATM   15  C   UNK N   1      36.548  11.537  15.406  0.00  0.00     0.100 A 
HETATM   16 Br   UNK N   1      38.201   9.593  14.025  0.00  0.00    -0.048 Br
HETATM   17  C   UNK N   1      35.727  12.677  15.471  0.00  0.00     0.046 A 
HETATM   18  C   UNK N   1      35.453  13.410  14.307  0.00  0.00     0.037 A 
HETATM   19 Br   UNK N   1      34.964  13.230  17.133  0.00  0.00    -0.048 Br
BRANCH  15  20
HETATM   20  O   UNK N   1      36.791  10.811  16.512  0.00  0.00    -0.358 OA
HETATM   21  H   UNK N   1      36.319  10.015  16.664  0.00  0.00     0.217 HD
ENDBRANCH  15  20
ENDBRANCH   7  12
ENDBRANCH   2   5
BRANCH   1  22
HETATM   22  C   UNK N   1      33.826  17.908   8.336  0.00  0.00     0.161 C 
BRANCH  22  23
HETATM   23  C   UNK N   1      32.453  17.589   7.871  0.00  0.00    -0.040 A 
HETATM   24  C   UNK N   1      31.347  17.893   8.668  0.00  0.00     0.011 A 
HETATM   25  C   UNK N   1      30.059  17.800   8.130  0.00  0.00     0.038 A 
HETATM   26  C   UNK N   1      29.881  17.450   6.785  0.00  0.00     0.076 A 
HETATM   27  C   UNK N   1      30.994  17.097   6.010  0.00  0.00     0.038 A 
HETATM   28  C   UNK N   1      32.269  17.162   6.551  0.00  0.00     0.011 A 
BRANCH  26  29
HETATM   29  O   UNK N   1      28.634  17.503   6.250  0.00  0.00    -0.311 OA
BRANCH  29  30
HETATM   30  C   UNK N   1      28.028  18.614   5.743  0.00  0.00     0.076 A 
HETATM   31  C   UNK N   1      27.737  18.658   4.376  0.00  0.00     0.037 A 
HETATM   32  C   UNK N   1      27.068  19.757   3.829  0.00  0.00     0.003 A 
HETATM   33  C   UNK N   1      26.678  20.822   4.649  0.00  0.00     0.000 A 
HETATM   34  C   UNK N   1      26.959  20.789   6.014  0.00  0.00     0.003 A 
HETATM   35  C   UNK N   1      27.626  19.690   6.561  0.00  0.00     0.037 A 
ENDBRANCH  29  30
ENDBRANCH  26  29
ENDBRANCH  22  23
ENDBRANCH   1  22
TORSDOF 7
ENDMDL
MODEL 6
REMARK VINA RESULT:      -8.5      8.320     12.224
REMARK  7 active torsions:
REMARK  status: ('A' for Active; 'I' for Inactive)
REMARK    1  A    between atoms: C_4  and  O_7 
REMARK    2  A    between atoms: O_7  and  C_8 
REMARK    3  A    between atoms: C_11  and  C_14 
REMARK    4  A    between atoms: C_14  and  N_15 
REMARK       I    between atoms: N_15  and  C_16 
REMARK    5  A    between atoms: C_16  and  C_18 
REMARK    6  A    between atoms: C_21  and  C_25 
REMARK    7  A    between atoms: C_28  and  O_32 
ROOT
HETATM    1  N   UNK N   1      23.153  17.772   5.684  0.00  0.00    -0.350 N 
HETATM    2  C   UNK N   1      23.754  18.474   4.707  0.00  0.00     0.295 C 
HETATM    3  O   UNK N   1      23.095  19.153   3.932  0.00  0.00    -0.264 OA
HETATM    4  H   UNK N   1      23.674  17.094   6.171  0.00  0.00     0.163 HD
ENDROOT
BRANCH   2   5
HETATM    5  C   UNK N   1      25.212  18.463   4.612  0.00  0.00     0.240 A 
HETATM    6  N   UNK N   1      26.007  17.946   5.554  0.00  0.00    -0.315 N 
HETATM    7  C   UNK N   1      27.236  18.119   5.039  0.00  0.00     0.138 A 
ATOM      8  HN  UNK N   1      25.744  17.522   6.443  1.00  0.00     0.169 HD
HETATM    9  N   UNK N   1      27.185  18.707   3.827  0.00  0.00    -0.242 N 
HETATM   10  O   UNK N   1      25.920  18.911   3.598  0.00  0.00    -0.212 OA
ATOM     11  HN  UNK N   1      27.970  18.942   3.219  1.00  0.00     0.196 HD
BRANCH   7  12
HETATM   12  C   UNK N   1      28.448  17.799   5.790  0.00  0.00     0.013 A 
HETATM   13  C   UNK N   1      28.460  18.099   7.153  0.00  0.00     0.037 A 
HETATM   14  C   UNK N   1      29.603  17.910   7.915  0.00  0.00     0.046 A 
HETATM   15  C   UNK N   1      30.758  17.392   7.318  0.00  0.00     0.100 A 
HETATM   16 Br   UNK N   1      29.559  18.404   9.759  0.00  0.00    -0.048 Br
HETATM   17  C   UNK N   1      30.754  17.067   5.949  0.00  0.00     0.046 A 
HETATM   18  C   UNK N   1      29.601  17.287   5.181  0.00  0.00     0.037 A 
HETATM   19 Br   UNK N   1      32.315  16.344   5.119  0.00  0.00    -0.048 Br
BRANCH  15  20
HETATM   20  O   UNK N   1      31.869  17.213   8.054  0.00  0.00    -0.358 OA
HETATM   21  H   UNK N   1      32.489  17.910   8.146  0.00  0.00     0.217 HD
ENDBRANCH  15  20
ENDBRANCH   7  12
ENDBRANCH   2   5
BRANCH   1  22
HETATM   22  C   UNK N   1      21.772  17.975   6.047  0.00  0.00     0.161 C 
BRANCH  22  23
HETATM   23  C   UNK N   1      21.329  16.681   6.621  0.00  0.00    -0.040 A 
HETATM   24  C   UNK N   1      21.784  15.475   6.085  0.00  0.00     0.011 A 
HETATM   25  C   UNK N   1      21.546  14.278   6.769  0.00  0.00     0.038 A 
HETATM   26  C   UNK N   1      20.896  14.293   8.010  0.00  0.00     0.076 A 
HETATM   27  C   UNK N   1      20.397  15.503   8.513  0.00  0.00     0.038 A 
HETATM   28  C   UNK N   1      20.609  16.686   7.822  0.00  0.00     0.011 A 
BRANCH  26  29
HETATM   29  O   UNK N   1      20.801  13.139   8.719  0.00  0.00    -0.311 OA
BRANCH  29  30
HETATM   30  C   UNK N   1      21.691  12.700   9.653  0.00  0.00     0.076 A 
HETATM   31  C   UNK N   1      23.049  12.658   9.323  0.00  0.00     0.037 A 
HETATM   32  C   UNK N   1      23.997  12.264  10.272  0.00  0.00     0.003 A 
HETATM   33  C   UNK N   1      23.594  11.916  11.565  0.00  0.00     0.000 A 
HETATM   34  C   UNK N   1      22.243  11.957  11.910  0.00  0.00     0.003 A 
HETATM   35  C   UNK N   1      21.296  12.352  10.962  0.00  0.00     0.037 A 
ENDBRANCH  29  30
ENDBRANCH  26  29
ENDBRANCH  22  23
ENDBRANCH   1  22
TORSDOF 7
ENDMDL
MODEL 7
REMARK VINA RESULT:      -8.5      3.802     10.800
REMARK  7 active torsions:
REMARK  status: ('A' for Active; 'I' for Inactive)
REMARK    1  A    between atoms: C_4  and  O_7 
REMARK    2  A    between atoms: O_7  and  C_8 
REMARK    3  A    between atoms: C_11  and  C_14 
REMARK    4  A    between atoms: C_14  and  N_15 
REMARK       I    between atoms: N_15  and  C_16 
REMARK    5  A    between atoms: C_16  and  C_18 
REMARK    6  A    between atoms: C_21  and  C_25 
REMARK    7  A    between atoms: C_28  and  O_32 
ROOT
HETATM    1  N   UNK N   1      34.112  16.360   6.651  0.00  0.00    -0.350 N 
HETATM    2  C   UNK N   1      34.549  17.232   7.577  0.00  0.00     0.295 C 
HETATM    3  O   UNK N   1      34.741  18.405   7.287  0.00  0.00    -0.264 OA
HETATM    4  H   UNK N   1      34.145  15.397   6.854  0.00  0.00     0.163 HD
ENDROOT
BRANCH   2   5
HETATM    5  C   UNK N   1      34.742  16.779   8.953  0.00  0.00     0.240 A 
HETATM    6  N   UNK N   1      34.869  15.493   9.292  0.00  0.00    -0.315 N 
HETATM    7  C   UNK N   1      35.059  15.549  10.621  0.00  0.00     0.138 A 
ATOM      8  HN  UNK N   1      34.834  14.670   8.689  1.00  0.00     0.169 HD
HETATM    9  N   UNK N   1      35.059  16.821  11.065  0.00  0.00    -0.242 N 
HETATM   10  O   UNK N   1      34.854  17.554  10.009  0.00  0.00    -0.212 OA
ATOM     11  HN  UNK N   1      35.192  17.142  12.025  1.00  0.00     0.196 HD
BRANCH   7  12
HETATM   12  C   UNK N   1      35.134  14.347  11.449  0.00  0.00     0.013 A 
HETATM   13  C   UNK N   1      35.665  14.480  12.732  0.00  0.00     0.037 A 
HETATM   14  C   UNK N   1      35.853  13.373  13.546  0.00  0.00     0.046 A 
HETATM   15  C   UNK N   1      35.486  12.103  13.085  0.00  0.00     0.100 A 
HETATM   16 Br   UNK N   1      36.644  13.629  15.264  0.00  0.00    -0.048 Br
HETATM   17  C   UNK N   1      34.931  11.957  11.800  0.00  0.00     0.046 A 
HETATM   18  C   UNK N   1      34.770  13.080  10.975  0.00  0.00     0.037 A 
HETATM   19 Br   UNK N   1      34.409  10.235  11.159  0.00  0.00    -0.048 Br
BRANCH  15  20
HETATM   20  O   UNK N   1      35.672  11.026  13.870  0.00  0.00    -0.358 OA
HETATM   21  H   UNK N   1      35.820  10.185  13.484  0.00  0.00     0.217 HD
ENDBRANCH  15  20
ENDBRANCH   7  12
ENDBRANCH   2   5
BRANCH   1  22
HETATM   22  C   UNK N   1      33.597  16.781   5.372  0.00  0.00     0.161 C 
BRANCH  22  23
HETATM   23  C   UNK N   1      32.121  16.731   5.515  0.00  0.00    -0.040 A 
HETATM   24  C   UNK N   1      31.537  16.499   6.762  0.00  0.00     0.011 A 
HETATM   25  C   UNK N   1      30.160  16.679   6.927  0.00  0.00     0.038 A 
HETATM   26  C   UNK N   1      29.376  17.138   5.860  0.00  0.00     0.076 A 
HETATM   27  C   UNK N   1      29.963  17.316   4.600  0.00  0.00     0.038 A 
HETATM   28  C   UNK N   1      31.324  17.111   4.429  0.00  0.00     0.011 A 
BRANCH  26  29
HETATM   29  O   UNK N   1      28.071  17.438   6.082  0.00  0.00    -0.311 OA
BRANCH  29  30
HETATM   30  C   UNK N   1      27.496  18.664   5.923  0.00  0.00     0.076 A 
HETATM   31  C   UNK N   1      27.835  19.688   6.813  0.00  0.00     0.037 A 
HETATM   32  C   UNK N   1      27.307  20.972   6.649  0.00  0.00     0.003 A 
HETATM   33  C   UNK N   1      26.439  21.246   5.588  0.00  0.00     0.000 A 
HETATM   34  C   UNK N   1      26.094  20.234   4.691  0.00  0.00     0.003 A 
HETATM   35  C   UNK N   1      26.623  18.952   4.854  0.00  0.00     0.037 A 
ENDBRANCH  29  30
ENDBRANCH  26  29
ENDBRANCH  22  23
ENDBRANCH   1  22
TORSDOF 7
ENDMDL
MODEL 8
REMARK VINA RESULT:      -8.1      4.010     11.116
REMARK  7 active torsions:
REMARK  status: ('A' for Active; 'I' for Inactive)
REMARK    1  A    between atoms: C_4  and  O_7 
REMARK    2  A    between atoms: O_7  and  C_8 
REMARK    3  A    between atoms: C_11  and  C_14 
REMARK    4  A    between atoms: C_14  and  N_15 
REMARK       I    between atoms: N_15  and  C_16 
REMARK    5  A    between atoms: C_16  and  C_18 
REMARK    6  A    between atoms: C_21  and  C_25 
REMARK    7  A    between atoms: C_28  and  O_32 
ROOT
HETATM    1  N   UNK N   1      34.593  16.211   9.536  0.00  0.00    -0.350 N 
HETATM    2  C   UNK N   1      35.471  15.810  10.472  0.00  0.00     0.295 C 
HETATM    3  O   UNK N   1      36.459  16.483  10.729  0.00  0.00    -0.264 OA
HETATM    4  H   UNK N   1      33.916  15.572   9.215  0.00  0.00     0.163 HD
ENDROOT
BRANCH   2   5
HETATM    5  C   UNK N   1      35.207  14.584  11.222  0.00  0.00     0.240 A 
HETATM    6  N   UNK N   1      35.478  14.447  12.524  0.00  0.00    -0.315 N 
HETATM    7  C   UNK N   1      35.048  13.202  12.791  0.00  0.00     0.138 A 
ATOM      8  HN  UNK N   1      35.904  15.122  13.159  1.00  0.00     0.169 HD
HETATM    9  N   UNK N   1      34.526  12.615  11.695  0.00  0.00    -0.242 N 
HETATM   10  O   UNK N   1      34.647  13.495  10.744  0.00  0.00    -0.212 OA
ATOM     11  HN  UNK N   1      34.122  11.680  11.626  1.00  0.00     0.196 HD
BRANCH   7  12
HETATM   12  C   UNK N   1      35.251  12.569  14.092  0.00  0.00     0.013 A 
HETATM   13  C   UNK N   1      35.459  11.190  14.113  0.00  0.00     0.037 A 
HETATM   14  C   UNK N   1      35.569  10.503  15.313  0.00  0.00     0.046 A 
HETATM   15  C   UNK N   1      35.492  11.202  16.524  0.00  0.00     0.100 A 
HETATM   16 Br   UNK N   1      35.789   8.607  15.260  0.00  0.00    -0.048 Br
HETATM   17  C   UNK N   1      35.303  12.596  16.516  0.00  0.00     0.046 A 
HETATM   18  C   UNK N   1      35.166  13.278  15.298  0.00  0.00     0.037 A 
HETATM   19 Br   UNK N   1      35.212  13.572  18.156  0.00  0.00    -0.048 Br
BRANCH  15  20
HETATM   20  O   UNK N   1      35.595  10.538  17.688  0.00  0.00    -0.358 OA
HETATM   21  H   UNK N   1      36.404  10.542  18.161  0.00  0.00     0.217 HD
ENDBRANCH  15  20
ENDBRANCH   7  12
ENDBRANCH   2   5
BRANCH   1  22
HETATM   22  C   UNK N   1      34.604  17.543   8.984  0.00  0.00     0.161 C 
BRANCH  22  23
HETATM   23  C   UNK N   1      33.508  17.556   7.983  0.00  0.00    -0.040 A 
HETATM   24  C   UNK N   1      33.793  17.463   6.619  0.00  0.00     0.011 A 
HETATM   25  C   UNK N   1      32.754  17.247   5.708  0.00  0.00     0.038 A 
HETATM   26  C   UNK N   1      31.440  17.076   6.163  0.00  0.00     0.076 A 
HETATM   27  C   UNK N   1      31.159  17.224   7.528  0.00  0.00     0.038 A 
HETATM   28  C   UNK N   1      32.184  17.466   8.430  0.00  0.00     0.011 A 
BRANCH  26  29
HETATM   29  O   UNK N   1      30.474  16.729   5.275  0.00  0.00    -0.311 OA
BRANCH  29  30
HETATM   30  C   UNK N   1      29.181  17.162   5.292  0.00  0.00     0.076 A 
HETATM   31  C   UNK N   1      28.894  18.445   4.815  0.00  0.00     0.037 A 
HETATM   32  C   UNK N   1      27.573  18.903   4.766  0.00  0.00     0.003 A 
HETATM   33  C   UNK N   1      26.527  18.077   5.188  0.00  0.00     0.000 A 
HETATM   34  C   UNK N   1      26.799  16.794   5.662  0.00  0.00     0.003 A 
HETATM   35  C   UNK N   1      28.117  16.336   5.709  0.00  0.00     0.037 A 
ENDBRANCH  29  30
ENDBRANCH  26  29
ENDBRANCH  22  23
ENDBRANCH   1  22
TORSDOF 7
ENDMDL
MODEL 9
REMARK VINA RESULT:      -8.0      4.146     11.281
REMARK  7 active torsions:
REMARK  status: ('A' for Active; 'I' for Inactive)
REMARK    1  A    between atoms: C_4  and  O_7 
REMARK    2  A    between atoms: O_7  and  C_8 
REMARK    3  A    between atoms: C_11  and  C_14 
REMARK    4  A    between atoms: C_14  and  N_15 
REMARK       I    between atoms: N_15  and  C_16 
REMARK    5  A    between atoms: C_16  and  C_18 
REMARK    6  A    between atoms: C_21  and  C_25 
REMARK    7  A    between atoms: C_28  and  O_32 
ROOT
HETATM    1  N   UNK N   1      34.521  15.673   9.672  0.00  0.00    -0.350 N 
HETATM    2  C   UNK N   1      35.461  15.206  10.512  0.00  0.00     0.295 C 
HETATM    3  O   UNK N   1      36.532  15.785  10.632  0.00  0.00    -0.264 OA
HETATM    4  H   UNK N   1      33.753  15.097   9.452  0.00  0.00     0.163 HD
ENDROOT
BRANCH   2   5
HETATM    5  C   UNK N   1      35.173  14.027  11.325  0.00  0.00     0.240 A 
HETATM    6  N   UNK N   1      35.352  13.985  12.649  0.00  0.00    -0.315 N 
HETATM    7  C   UNK N   1      34.934  12.749  12.971  0.00  0.00     0.138 A 
ATOM      8  HN  UNK N   1      35.714  14.713  13.264  1.00  0.00     0.169 HD
HETATM    9  N   UNK N   1      34.508  12.075  11.884  0.00  0.00    -0.242 N 
HETATM   10  O   UNK N   1      34.676  12.892  10.885  0.00  0.00    -0.212 OA
ATOM     11  HN  UNK N   1      34.133  11.126  11.851  1.00  0.00     0.196 HD
BRANCH   7  12
HETATM   12  C   UNK N   1      35.057  12.211  14.324  0.00  0.00     0.013 A 
HETATM   13  C   UNK N   1      35.056  13.121  15.381  0.00  0.00     0.037 A 
HETATM   14  C   UNK N   1      35.259  12.698  16.687  0.00  0.00     0.046 A 
HETATM   15  C   UNK N   1      35.448  11.337  16.954  0.00  0.00     0.100 A 
HETATM   16 Br   UNK N   1      35.307  14.011  18.071  0.00  0.00    -0.048 Br
HETATM   17  C   UNK N   1      35.431  10.407  15.899  0.00  0.00     0.046 A 
HETATM   18  C   UNK N   1      35.252  10.848  14.580  0.00  0.00     0.037 A 
HETATM   19 Br   UNK N   1      35.671   8.543  16.245  0.00  0.00    -0.048 Br
BRANCH  15  20
HETATM   20  O   UNK N   1      35.650  10.925  18.219  0.00  0.00    -0.358 OA
HETATM   21  H   UNK N   1      35.872  10.031  18.391  0.00  0.00     0.217 HD
ENDBRANCH  15  20
ENDBRANCH   7  12
ENDBRANCH   2   5
BRANCH   1  22
HETATM   22  C   UNK N   1      34.593  16.986   9.082  0.00  0.00     0.161 C 
BRANCH  22  23
HETATM   23  C   UNK N   1      33.306  17.158   8.364  0.00  0.00    -0.040 A 
HETATM   24  C   UNK N   1      32.832  16.159   7.510  0.00  0.00     0.011 A 
HETATM   25  C   UNK N   1      31.524  16.229   7.021  0.00  0.00     0.038 A 
HETATM   26  C   UNK N   1      30.675  17.269   7.423  0.00  0.00     0.076 A 
HETATM   27  C   UNK N   1      31.178  18.294   8.236  0.00  0.00     0.038 A 
HETATM   28  C   UNK N   1      32.483  18.240   8.700  0.00  0.00     0.011 A 
BRANCH  26  29
HETATM   29  O   UNK N   1      29.371  17.239   7.047  0.00  0.00    -0.311 OA
BRANCH  29  30
HETATM   30  C   UNK N   1      28.680  18.266   6.474  0.00  0.00     0.076 A 
HETATM   31  C   UNK N   1      28.601  18.329   5.080  0.00  0.00     0.037 A 
HETATM   32  C   UNK N   1      27.856  19.336   4.458  0.00  0.00     0.003 A 
HETATM   33  C   UNK N   1      27.178  20.286   5.228  0.00  0.00     0.000 A 
HETATM   34  C   UNK N   1      27.246  20.233   6.620  0.00  0.00     0.003 A 
HETATM   35  C   UNK N   1      27.988  19.226   7.241  0.00  0.00     0.037 A 
ENDBRANCH  29  30
ENDBRANCH  26  29
ENDBRANCH  22  23
ENDBRANCH   1  22
TORSDOF 7
ENDMDL
