MODEL 1
REMARK VINA RESULT:      -8.3      0.000      0.000
REMARK  6 active torsions:
REMARK  status: ('A' for Active; 'I' for Inactive)
REMARK    1  A    between atoms: C_2  and  O_3 
REMARK    2  A    between atoms: C_4  and  O_3 
REMARK    3  A    between atoms: C_8  and  C_39 
REMARK    4  A    between atoms: C_12  and  N_13 
REMARK    5  A    between atoms: N_16  and  C_20 
REMARK       I    between atoms: N_23  and  C_26 
REMARK    6  A    between atoms: C_26  and  C_28 
ROOT
HETATM    1  N   UNK N   1      36.982  12.513  11.380  0.00  0.00     0.107 N 
HETATM    2  C   UNK N   1      36.939  11.094  10.968  0.00  0.00     0.304 C 
HETATM    3  C   UNK N   1      35.969  10.840   9.796  0.00  0.00     0.303 C 
HETATM    4  N   UNK N   1      35.624  12.076   9.071  0.00  0.00     0.101 N 
HETATM    5  C   UNK N   1      36.853  12.848   8.899  0.00  0.00     0.308 C 
HETATM    6  C   UNK N   1      37.342  13.383  10.248  0.00  0.00     0.248 C 
HETATM    7  C   UNK N   1      38.845  13.577  10.191  0.00  0.00     0.045 C 
ENDROOT
BRANCH   4   8
HETATM    8  C   UNK N   1      34.983  11.781   7.765  0.00  0.00     0.159 C 
HETATM    9  C   UNK N   1      35.622  12.615   6.625  0.00  0.00     0.061 C 
HETATM   10  C   UNK N   1      34.589  13.362   5.788  0.00  0.00     0.128 C 
HETATM   11  N   UNK N   1      33.724  14.143   6.655  0.00  0.00    -0.348 N 
HETATM   12  C   UNK N   1      33.030  13.460   7.737  0.00  0.00     0.128 C 
HETATM   13  C   UNK N   1      33.495  15.466   6.359  0.00  0.00     0.257 C 
HETATM   14  C   UNK N   1      33.452  11.989   7.850  0.00  0.00     0.061 C 
HETATM   15  O   UNK N   1      34.003  15.930   5.344  0.00  0.00    -0.267 OA
HETATM   16  C   UNK N   1      35.163  10.307   7.427  0.00  0.00     0.049 C 
BRANCH  13  17
HETATM   17  C   UNK N   1      32.593  16.377   7.167  0.00  0.00     0.076 A 
HETATM   18  C   UNK N   1      31.184  16.263   7.030  0.00  0.00     0.024 A 
HETATM   19  N   UNK N   1      30.359  17.076   7.736  0.00  0.00    -0.355 N 
HETATM   20  C   UNK N   1      30.558  15.233   6.147  0.00  0.00     0.069 C 
HETATM   21  C   UNK N   1      30.845  18.023   8.571  0.00  0.00     0.180 A 
ATOM     22  HN  UNK N   1      29.349  16.971   7.636  1.00  0.00     0.166 HD
HETATM   23  N   UNK N   1      32.180  18.186   8.704  0.00  0.00    -0.355 N 
HETATM   24  C   UNK N   1      33.064  17.401   8.037  0.00  0.00     0.024 A 
ATOM     25  HN  UNK N   1      32.533  18.917   9.322  1.00  0.00     0.166 HD
HETATM   26  C   UNK N   1      34.498  17.742   8.176  0.00  0.00     0.069 C 
ENDBRANCH  13  17
ENDBRANCH   4   8
BRANCH   1  27
HETATM   27  C   UNK N   1      35.729  13.002  11.998  0.00  0.00     0.286 C 
HETATM   28  C   UNK N   1      35.507  12.366  13.329  0.00  0.00    -0.016 A 
HETATM   29  C   UNK N   1      34.980  11.092  13.548  0.00  0.00     0.011 A 
HETATM   30  C   UNK N   1      35.916  13.153  14.379  0.00  0.00    -0.046 A 
HETATM   31  C   UNK N   1      34.881  10.618  14.860  0.00  0.00     0.017 A 
HETATM   32  C   UNK N   1      35.331  11.408  15.939  0.00  0.00     0.048 A 
HETATM   33  C   UNK N   1      35.854  12.690  15.692  0.00  0.00     0.023 A 
HETATM   34  C   UNK N   1      36.403  14.480  13.948  0.00  0.00     0.073 C 
HETATM   35  C   UNK N   1      35.902  14.457  12.487  0.00  0.00     0.163 C 
BRANCH  32  36
HETATM   36  C   UNK N   1      35.262  10.888  17.343  0.00  0.00     0.417 C 
HETATM   37  F   UNK N   1      34.936  11.925  18.199  0.00  0.00    -0.166 F 
HETATM   38  F   UNK N   1      36.476  10.352  17.736  0.00  0.00    -0.166 F 
HETATM   39  F   UNK N   1      34.292   9.907  17.427  0.00  0.00    -0.166 F 
ENDBRANCH  32  36
BRANCH  35  40
HETATM   40  O   UNK N   1      36.322  15.436  11.557  0.00  0.00    -0.383 OA
BRANCH  40  41
HETATM   41  C   UNK N   1      35.224  16.204  11.147  0.00  0.00     0.163 C 
HETATM   42  C   UNK N   1      34.075  15.280  10.786  0.00  0.00     0.033 C 
ENDBRANCH  40  41
ENDBRANCH  35  40
ENDBRANCH   1  27
TORSDOF 6
ENDMDL
MODEL 2
REMARK VINA RESULT:      -8.2     10.460     13.526
REMARK  6 active torsions:
REMARK  status: ('A' for Active; 'I' for Inactive)
REMARK    1  A    between atoms: C_2  and  O_3 
REMARK    2  A    between atoms: C_4  and  O_3 
REMARK    3  A    between atoms: C_8  and  C_39 
REMARK    4  A    between atoms: C_12  and  N_13 
REMARK    5  A    between atoms: N_16  and  C_20 
REMARK       I    between atoms: N_23  and  C_26 
REMARK    6  A    between atoms: C_26  and  C_28 
ROOT
HETATM    1  N   UNK N   1      22.312  12.958   6.536  0.00  0.00     0.107 N 
HETATM    2  C   UNK N   1      21.208  13.257   5.600  0.00  0.00     0.304 C 
HETATM    3  C   UNK N   1      21.610  14.263   4.503  0.00  0.00     0.303 C 
HETATM    4  N   UNK N   1      23.071  14.383   4.355  0.00  0.00     0.101 N 
HETATM    5  C   UNK N   1      23.636  13.036   4.410  0.00  0.00     0.308 C 
HETATM    6  C   UNK N   1      23.494  12.452   5.817  0.00  0.00     0.248 C 
HETATM    7  C   UNK N   1      23.448  10.940   5.727  0.00  0.00     0.045 C 
ENDROOT
BRANCH   4   8
HETATM    8  C   UNK N   1      23.438  15.073   3.093  0.00  0.00     0.159 C 
HETATM    9  C   UNK N   1      24.818  14.595   2.572  0.00  0.00     0.061 C 
HETATM   10  C   UNK N   1      25.764  15.749   2.261  0.00  0.00     0.128 C 
HETATM   11  N   UNK N   1      25.859  16.632   3.411  0.00  0.00    -0.348 N 
HETATM   12  C   UNK N   1      24.631  17.183   3.964  0.00  0.00     0.128 C 
HETATM   13  C   UNK N   1      27.100  17.011   3.865  0.00  0.00     0.257 C 
HETATM   14  C   UNK N   1      23.385  16.608   3.275  0.00  0.00     0.061 C 
HETATM   15  O   UNK N   1      28.087  16.618   3.252  0.00  0.00    -0.267 OA
HETATM   16  C   UNK N   1      22.398  14.768   2.022  0.00  0.00     0.049 C 
BRANCH  13  17
HETATM   17  C   UNK N   1      27.332  17.948   5.034  0.00  0.00     0.076 A 
HETATM   18  C   UNK N   1      27.430  17.414   6.346  0.00  0.00     0.024 A 
HETATM   19  N   UNK N   1      27.628  18.236   7.407  0.00  0.00    -0.355 N 
HETATM   20  C   UNK N   1      27.361  15.944   6.607  0.00  0.00     0.069 C 
HETATM   21  C   UNK N   1      27.719  19.577   7.254  0.00  0.00     0.180 A 
ATOM     22  HN  UNK N   1      27.709  17.833   8.341  1.00  0.00     0.166 HD
HETATM   23  N   UNK N   1      27.598  20.127   6.026  0.00  0.00    -0.355 N 
HETATM   24  C   UNK N   1      27.409  19.364   4.919  0.00  0.00     0.024 A 
ATOM     25  HN  UNK N   1      27.649  21.141   5.928  1.00  0.00     0.166 HD
HETATM   26  C   UNK N   1      27.182  20.082   3.644  0.00  0.00     0.069 C 
ENDBRANCH  13  17
ENDBRANCH   4   8
BRANCH   1  27
HETATM   27  C   UNK N   1      22.707  14.099   7.392  0.00  0.00     0.286 C 
HETATM   28  C   UNK N   1      21.528  14.952   7.720  0.00  0.00    -0.016 A 
HETATM   29  C   UNK N   1      20.965  15.922   6.888  0.00  0.00     0.011 A 
HETATM   30  C   UNK N   1      20.985  14.674   8.952  0.00  0.00    -0.046 A 
HETATM   31  C   UNK N   1      19.826  16.607   7.324  0.00  0.00     0.017 A 
HETATM   32  C   UNK N   1      19.244  16.300   8.571  0.00  0.00     0.048 A 
HETATM   33  C   UNK N   1      19.833  15.323   9.393  0.00  0.00     0.023 A 
HETATM   34  C   UNK N   1      21.747  13.651   9.699  0.00  0.00     0.073 C 
HETATM   35  C   UNK N   1      23.020  13.615   8.825  0.00  0.00     0.163 C 
BRANCH  32  36
HETATM   36  C   UNK N   1      18.001  17.005   9.024  0.00  0.00     0.417 C 
HETATM   37  F   UNK N   1      17.220  17.307   7.923  0.00  0.00    -0.166 F 
HETATM   38  F   UNK N   1      18.308  18.179   9.688  0.00  0.00    -0.166 F 
HETATM   39  F   UNK N   1      17.287  16.184   9.876  0.00  0.00    -0.166 F 
ENDBRANCH  32  36
BRANCH  35  40
HETATM   40  O   UNK N   1      23.993  12.603   8.999  0.00  0.00    -0.383 OA
BRANCH  40  41
HETATM   41  C   UNK N   1      23.644  11.788  10.083  0.00  0.00     0.163 C 
HETATM   42  C   UNK N   1      24.627  12.015  11.217  0.00  0.00     0.033 C 
ENDBRANCH  40  41
ENDBRANCH  35  40
ENDBRANCH   1  27
TORSDOF 6
ENDMDL
MODEL 3
REMARK VINA RESULT:      -8.0      7.153     11.594
REMARK  6 active torsions:
REMARK  status: ('A' for Active; 'I' for Inactive)
REMARK    1  A    between atoms: C_2  and  O_3 
REMARK    2  A    between atoms: C_4  and  O_3 
REMARK    3  A    between atoms: C_8  and  C_39 
REMARK    4  A    between atoms: C_12  and  N_13 
REMARK    5  A    between atoms: N_16  and  C_20 
REMARK       I    between atoms: N_23  and  C_26 
REMARK    6  A    between atoms: C_26  and  C_28 
ROOT
HETATM    1  N   UNK N   1      25.569  17.320   5.410  0.00  0.00     0.107 N 
HETATM    2  C   UNK N   1      26.477  16.526   6.265  0.00  0.00     0.304 C 
HETATM    3  C   UNK N   1      27.334  15.527   5.462  0.00  0.00     0.303 C 
HETATM    4  N   UNK N   1      27.388  15.856   4.027  0.00  0.00     0.101 N 
HETATM    5  C   UNK N   1      27.575  17.300   3.907  0.00  0.00     0.308 C 
HETATM    6  C   UNK N   1      26.319  18.043   4.370  0.00  0.00     0.248 C 
HETATM    7  C   UNK N   1      26.709  19.422   4.864  0.00  0.00     0.045 C 
ENDROOT
BRANCH   4   8
HETATM    8  C   UNK N   1      28.470  15.111   3.336  0.00  0.00     0.159 C 
HETATM    9  C   UNK N   1      28.878  13.845   4.135  0.00  0.00     0.061 C 
HETATM   10  C   UNK N   1      30.382  13.753   4.368  0.00  0.00     0.128 C 
HETATM   11  N   UNK N   1      30.866  14.988   4.962  0.00  0.00    -0.348 N 
HETATM   12  C   UNK N   1      30.584  16.242   4.278  0.00  0.00     0.128 C 
HETATM   13  C   UNK N   1      31.667  14.927   6.077  0.00  0.00     0.257 C 
HETATM   14  C   UNK N   1      29.677  16.036   3.056  0.00  0.00     0.061 C 
HETATM   15  O   UNK N   1      31.979  13.823   6.508  0.00  0.00    -0.267 OA
HETATM   16  C   UNK N   1      27.989  14.664   1.961  0.00  0.00     0.049 C 
BRANCH  13  17
HETATM   17  C   UNK N   1      32.256  16.139   6.772  0.00  0.00     0.076 A 
HETATM   18  C   UNK N   1      33.628  16.452   6.583  0.00  0.00     0.024 A 
HETATM   19  N   UNK N   1      34.177  17.526   7.203  0.00  0.00    -0.355 N 
HETATM   20  C   UNK N   1      34.503  15.649   5.676  0.00  0.00     0.069 C 
HETATM   21  C   UNK N   1      33.450  18.314   8.027  0.00  0.00     0.180 A 
ATOM     22  HN  UNK N   1      35.162  17.743   7.045  1.00  0.00     0.166 HD
HETATM   23  N   UNK N   1      32.149  18.031   8.258  0.00  0.00    -0.355 N 
HETATM   24  C   UNK N   1      31.532  16.979   7.664  0.00  0.00     0.024 A 
ATOM     25  HN  UNK N   1      31.618  18.623   8.897  1.00  0.00     0.166 HD
HETATM   26  C   UNK N   1      30.137  16.701   8.077  0.00  0.00     0.069 C 
ENDBRANCH  13  17
ENDBRANCH   4   8
BRANCH   1  27
HETATM   27  C   UNK N   1      24.487  16.531   4.780  0.00  0.00     0.286 C 
HETATM   28  C   UNK N   1      23.773  15.700   5.793  0.00  0.00    -0.016 A 
HETATM   29  C   UNK N   1      24.211  14.475   6.300  0.00  0.00     0.011 A 
HETATM   30  C   UNK N   1      22.609  16.277   6.241  0.00  0.00    -0.046 A 
HETATM   31  C   UNK N   1      23.448  13.841   7.286  0.00  0.00     0.017 A 
HETATM   32  C   UNK N   1      22.271  14.445   7.775  0.00  0.00     0.048 A 
HETATM   33  C   UNK N   1      21.848  15.678   7.243  0.00  0.00     0.023 A 
HETATM   34  C   UNK N   1      22.293  17.547   5.553  0.00  0.00     0.073 C 
HETATM   35  C   UNK N   1      23.307  17.449   4.392  0.00  0.00     0.163 C 
BRANCH  32  36
HETATM   36  C   UNK N   1      21.472  13.787   8.859  0.00  0.00     0.417 C 
HETATM   37  F   UNK N   1      20.193  14.313   8.867  0.00  0.00    -0.166 F 
HETATM   38  F   UNK N   1      22.048  13.998  10.100  0.00  0.00    -0.166 F 
HETATM   39  F   UNK N   1      21.403  12.427   8.623  0.00  0.00    -0.166 F 
ENDBRANCH  32  36
BRANCH  35  40
HETATM   40  O   UNK N   1      23.562  18.558   3.552  0.00  0.00    -0.383 OA
BRANCH  40  41
HETATM   41  C   UNK N   1      22.408  19.343   3.438  0.00  0.00     0.163 C 
HETATM   42  C   UNK N   1      22.742  20.618   2.686  0.00  0.00     0.033 C 
ENDBRANCH  40  41
ENDBRANCH  35  40
ENDBRANCH   1  27
TORSDOF 6
ENDMDL
MODEL 4
REMARK VINA RESULT:      -8.0      4.796      7.967
REMARK  6 active torsions:
REMARK  status: ('A' for Active; 'I' for Inactive)
REMARK    1  A    between atoms: C_2  and  O_3 
REMARK    2  A    between atoms: C_4  and  O_3 
REMARK    3  A    between atoms: C_8  and  C_39 
REMARK    4  A    between atoms: C_12  and  N_13 
REMARK    5  A    between atoms: N_16  and  C_20 
REMARK       I    between atoms: N_23  and  C_26 
REMARK    6  A    between atoms: C_26  and  C_28 
ROOT
HETATM    1  N   UNK N   1      32.095  15.532   5.489  0.00  0.00     0.107 N 
HETATM    2  C   UNK N   1      32.576  14.219   5.010  0.00  0.00     0.304 C 
HETATM    3  C   UNK N   1      31.429  13.228   4.727  0.00  0.00     0.303 C 
HETATM    4  N   UNK N   1      30.125  13.900   4.582  0.00  0.00     0.101 N 
HETATM    5  C   UNK N   1      30.329  15.095   3.765  0.00  0.00     0.308 C 
HETATM    6  C   UNK N   1      31.153  16.133   4.531  0.00  0.00     0.248 C 
HETATM    7  C   UNK N   1      31.895  17.009   3.541  0.00  0.00     0.045 C 
ENDROOT
BRANCH   4   8
HETATM    8  C   UNK N   1      29.111  12.999   3.980  0.00  0.00     0.159 C 
HETATM    9  C   UNK N   1      28.884  13.330   2.482  0.00  0.00     0.061 C 
HETATM   10  C   UNK N   1      27.411  13.517   2.134  0.00  0.00     0.128 C 
HETATM   11  N   UNK N   1      26.811  14.487   3.034  0.00  0.00    -0.348 N 
HETATM   12  C   UNK N   1      26.918  14.260   4.468  0.00  0.00     0.128 C 
HETATM   13  C   UNK N   1      26.067  15.517   2.510  0.00  0.00     0.257 C 
HETATM   14  C   UNK N   1      27.794  13.041   4.790  0.00  0.00     0.061 C 
HETATM   15  O   UNK N   1      25.903  15.555   1.296  0.00  0.00    -0.267 OA
HETATM   16  C   UNK N   1      29.587  11.555   4.076  0.00  0.00     0.049 C 
BRANCH  13  17
HETATM   17  C   UNK N   1      25.368  16.574   3.342  0.00  0.00     0.076 A 
HETATM   18  C   UNK N   1      26.121  17.654   3.871  0.00  0.00     0.024 A 
HETATM   19  N   UNK N   1      25.517  18.606   4.626  0.00  0.00    -0.355 N 
HETATM   20  C   UNK N   1      27.581  17.810   3.592  0.00  0.00     0.069 C 
HETATM   21  C   UNK N   1      24.196  18.548   4.911  0.00  0.00     0.180 A 
ATOM     22  HN  UNK N   1      26.071  19.383   4.987  1.00  0.00     0.166 HD
HETATM   23  N   UNK N   1      23.450  17.518   4.453  0.00  0.00    -0.355 N 
HETATM   24  C   UNK N   1      23.987  16.537   3.684  0.00  0.00     0.024 A 
ATOM     25  HN  UNK N   1      22.459  17.476   4.692  1.00  0.00     0.166 HD
HETATM   26  C   UNK N   1      23.100  15.404   3.332  0.00  0.00     0.069 C 
ENDBRANCH  13  17
ENDBRANCH   4   8
BRANCH   1  27
HETATM   27  C   UNK N   1      31.476  15.496   6.833  0.00  0.00     0.286 C 
HETATM   28  C   UNK N   1      32.515  15.368   7.896  0.00  0.00    -0.016 A 
HETATM   29  C   UNK N   1      33.145  14.184   8.283  0.00  0.00     0.011 A 
HETATM   30  C   UNK N   1      32.850  16.570   8.471  0.00  0.00    -0.046 A 
HETATM   31  C   UNK N   1      34.139  14.238   9.266  0.00  0.00     0.017 A 
HETATM   32  C   UNK N   1      34.512  15.474   9.835  0.00  0.00     0.048 A 
HETATM   33  C   UNK N   1      33.857  16.652   9.432  0.00  0.00     0.023 A 
HETATM   34  C   UNK N   1      32.043  17.698   7.961  0.00  0.00     0.073 C 
HETATM   35  C   UNK N   1      30.950  16.895   7.222  0.00  0.00     0.163 C 
BRANCH  32  36
HETATM   36  C   UNK N   1      35.602  15.541  10.861  0.00  0.00     0.417 C 
HETATM   37  F   UNK N   1      36.792  15.123  10.291  0.00  0.00    -0.166 F 
HETATM   38  F   UNK N   1      35.318  14.727  11.944  0.00  0.00    -0.166 F 
HETATM   39  F   UNK N   1      35.742  16.842  11.305  0.00  0.00    -0.166 F 
ENDBRANCH  32  36
BRANCH  35  40
HETATM   40  O   UNK N   1      30.035  17.537   6.355  0.00  0.00    -0.383 OA
BRANCH  40  41
HETATM   41  C   UNK N   1      28.925  17.985   7.082  0.00  0.00     0.163 C 
HETATM   42  C   UNK N   1      27.901  16.869   7.169  0.00  0.00     0.033 C 
ENDBRANCH  40  41
ENDBRANCH  35  40
ENDBRANCH   1  27
TORSDOF 6
ENDMDL
MODEL 5
REMARK VINA RESULT:      -8.0      6.438     10.957
REMARK  6 active torsions:
REMARK  status: ('A' for Active; 'I' for Inactive)
REMARK    1  A    between atoms: C_2  and  O_3 
REMARK    2  A    between atoms: C_4  and  O_3 
REMARK    3  A    between atoms: C_8  and  C_39 
REMARK    4  A    between atoms: C_12  and  N_13 
REMARK    5  A    between atoms: N_16  and  C_20 
REMARK       I    between atoms: N_23  and  C_26 
REMARK    6  A    between atoms: C_26  and  C_28 
ROOT
HETATM    1  N   UNK N   1      28.912  16.631   5.675  0.00  0.00     0.107 N 
HETATM    2  C   UNK N   1      29.316  15.228   5.447  0.00  0.00     0.304 C 
HETATM    3  C   UNK N   1      30.644  15.105   4.672  0.00  0.00     0.303 C 
HETATM    4  N   UNK N   1      31.428  16.353   4.695  0.00  0.00     0.101 N 
HETATM    5  C   UNK N   1      31.377  16.885   6.055  0.00  0.00     0.308 C 
HETATM    6  C   UNK N   1      29.965  17.377   6.385  0.00  0.00     0.248 C 
HETATM    7  C   UNK N   1      29.748  17.297   7.883  0.00  0.00     0.045 C 
ENDROOT
BRANCH   4   8
HETATM    8  C   UNK N   1      32.827  16.126   4.254  0.00  0.00     0.159 C 
HETATM    9  C   UNK N   1      33.157  14.612   4.190  0.00  0.00     0.061 C 
HETATM   10  C   UNK N   1      34.433  14.252   4.943  0.00  0.00     0.128 C 
HETATM   11  N   UNK N   1      34.367  14.769   6.300  0.00  0.00    -0.348 N 
HETATM   12  C   UNK N   1      34.108  16.188   6.488  0.00  0.00     0.128 C 
HETATM   13  C   UNK N   1      34.665  13.934   7.350  0.00  0.00     0.257 C 
HETATM   14  C   UNK N   1      33.816  16.898   5.158  0.00  0.00     0.061 C 
HETATM   15  O   UNK N   1      35.016  12.787   7.098  0.00  0.00    -0.267 OA
HETATM   16  C   UNK N   1      33.027  16.710   2.862  0.00  0.00     0.049 C 
BRANCH  13  17
HETATM   17  C   UNK N   1      34.660  14.358   8.805  0.00  0.00     0.076 A 
HETATM   18  C   UNK N   1      35.886  14.420   9.517  0.00  0.00     0.024 A 
HETATM   19  N   UNK N   1      35.903  14.788  10.823  0.00  0.00    -0.355 N 
HETATM   20  C   UNK N   1      37.196  14.127   8.860  0.00  0.00     0.069 C 
HETATM   21  C   UNK N   1      34.763  15.087  11.487  0.00  0.00     0.180 A 
ATOM     22  HN  UNK N   1      36.795  14.840  11.315  1.00  0.00     0.166 HD
HETATM   23  N   UNK N   1      33.572  15.008  10.854  0.00  0.00    -0.355 N 
HETATM   24  C   UNK N   1      33.482  14.657   9.546  0.00  0.00     0.024 A 
ATOM     25  HN  UNK N   1      32.718  15.217  11.372  1.00  0.00     0.166 HD
HETATM   26  C   UNK N   1      32.118  14.498   8.989  0.00  0.00     0.069 C 
ENDBRANCH  13  17
ENDBRANCH   4   8
BRANCH   1  27
HETATM   27  C   UNK N   1      28.537  17.360   4.443  0.00  0.00     0.286 C 
HETATM   28  C   UNK N   1      27.515  16.602   3.664  0.00  0.00    -0.016 A 
HETATM   29  C   UNK N   1      27.772  15.528   2.809  0.00  0.00     0.011 A 
HETATM   30  C   UNK N   1      26.231  17.037   3.889  0.00  0.00    -0.046 A 
HETATM   31  C   UNK N   1      26.695  14.888   2.188  0.00  0.00     0.017 A 
HETATM   32  C   UNK N   1      25.373  15.307   2.442  0.00  0.00     0.048 A 
HETATM   33  C   UNK N   1      25.141  16.396   3.303  0.00  0.00     0.023 A 
HETATM   34  C   UNK N   1      26.170  18.210   4.787  0.00  0.00     0.073 C 
HETATM   35  C   UNK N   1      27.667  18.589   4.788  0.00  0.00     0.163 C 
BRANCH  32  36
HETATM   36  C   UNK N   1      24.214  14.600   1.807  0.00  0.00     0.417 C 
HETATM   37  F   UNK N   1      24.364  14.620   0.432  0.00  0.00    -0.166 F 
HETATM   38  F   UNK N   1      23.017  15.212   2.134  0.00  0.00    -0.166 F 
HETATM   39  F   UNK N   1      24.178  13.288   2.242  0.00  0.00    -0.166 F 
ENDBRANCH  32  36
BRANCH  35  40
HETATM   40  O   UNK N   1      28.176  19.542   5.702  0.00  0.00    -0.383 OA
BRANCH  40  41
HETATM   41  C   UNK N   1      27.123  20.114   6.428  0.00  0.00     0.163 C 
HETATM   42  C   UNK N   1      27.098  21.611   6.176  0.00  0.00     0.033 C 
ENDBRANCH  40  41
ENDBRANCH  35  40
ENDBRANCH   1  27
TORSDOF 6
ENDMDL
MODEL 6
REMARK VINA RESULT:      -7.9      1.699      2.699
REMARK  6 active torsions:
REMARK  status: ('A' for Active; 'I' for Inactive)
REMARK    1  A    between atoms: C_2  and  O_3 
REMARK    2  A    between atoms: C_4  and  O_3 
REMARK    3  A    between atoms: C_8  and  C_39 
REMARK    4  A    between atoms: C_12  and  N_13 
REMARK    5  A    between atoms: N_16  and  C_20 
REMARK       I    between atoms: N_23  and  C_26 
REMARK    6  A    between atoms: C_26  and  C_28 
ROOT
HETATM    1  N   UNK N   1      36.650  11.778  12.638  0.00  0.00     0.107 N 
HETATM    2  C   UNK N   1      36.601  10.302  12.674  0.00  0.00     0.304 C 
HETATM    3  C   UNK N   1      35.490   9.718  11.778  0.00  0.00     0.303 C 
HETATM    4  N   UNK N   1      35.006  10.684  10.777  0.00  0.00     0.101 N 
HETATM    5  C   UNK N   1      36.172  11.362  10.213  0.00  0.00     0.308 C 
HETATM    6  C   UNK N   1      36.822  12.270  11.261  0.00  0.00     0.248 C 
HETATM    7  C   UNK N   1      38.294  12.428  10.938  0.00  0.00     0.045 C 
ENDROOT
BRANCH   4   8
HETATM    8  C   UNK N   1      34.204  10.019   9.720  0.00  0.00     0.159 C 
HETATM    9  C   UNK N   1      35.042   9.797   8.434  0.00  0.00     0.061 C 
HETATM   10  C   UNK N   1      34.350  10.317   7.179  0.00  0.00     0.128 C 
HETATM   11  N   UNK N   1      33.953  11.702   7.374  0.00  0.00    -0.348 N 
HETATM   12  C   UNK N   1      33.124  12.029   8.524  0.00  0.00     0.128 C 
HETATM   13  C   UNK N   1      34.270  12.632   6.412  0.00  0.00     0.257 C 
HETATM   14  C   UNK N   1      32.907  10.814   9.437  0.00  0.00     0.061 C 
HETATM   15  O   UNK N   1      34.846  12.247   5.400  0.00  0.00    -0.267 OA
HETATM   16  C   UNK N   1      33.731   8.658  10.215  0.00  0.00     0.049 C 
BRANCH  13  17
HETATM   17  C   UNK N   1      33.890  14.097   6.484  0.00  0.00     0.076 A 
HETATM   18  C   UNK N   1      34.730  15.002   7.183  0.00  0.00     0.024 A 
HETATM   19  N   UNK N   1      34.403  16.316   7.267  0.00  0.00    -0.355 N 
HETATM   20  C   UNK N   1      36.012  14.563   7.812  0.00  0.00     0.069 C 
HETATM   21  C   UNK N   1      33.268  16.798   6.710  0.00  0.00     0.180 A 
ATOM     22  HN  UNK N   1      35.026  16.955   7.762  1.00  0.00     0.166 HD
HETATM   23  N   UNK N   1      32.425  15.963   6.064  0.00  0.00    -0.355 N 
HETATM   24  C   UNK N   1      32.695  14.640   5.932  0.00  0.00     0.024 A 
ATOM     25  HN  UNK N   1      31.563  16.337   5.665  1.00  0.00     0.166 HD
HETATM   26  C   UNK N   1      31.647  13.803   5.301  0.00  0.00     0.069 C 
ENDBRANCH  13  17
ENDBRANCH   4   8
BRANCH   1  27
HETATM   27  C   UNK N   1      35.477  12.438  13.255  0.00  0.00     0.286 C 
HETATM   28  C   UNK N   1      35.325  12.032  14.682  0.00  0.00    -0.016 A 
HETATM   29  C   UNK N   1      34.749  10.845  15.137  0.00  0.00     0.011 A 
HETATM   30  C   UNK N   1      35.855  12.944  15.562  0.00  0.00    -0.046 A 
HETATM   31  C   UNK N   1      34.727  10.588  16.511  0.00  0.00     0.017 A 
HETATM   32  C   UNK N   1      35.301  11.504  17.417  0.00  0.00     0.048 A 
HETATM   33  C   UNK N   1      35.870  12.696  16.934  0.00  0.00     0.023 A 
HETATM   34  C   UNK N   1      36.378  14.154  14.893  0.00  0.00     0.073 C 
HETATM   35  C   UNK N   1      35.765  13.937  13.492  0.00  0.00     0.163 C 
BRANCH  32  36
HETATM   36  C   UNK N   1      35.313  11.214  18.887  0.00  0.00     0.417 C 
HETATM   37  F   UNK N   1      36.570  10.769  19.255  0.00  0.00    -0.166 F 
HETATM   38  F   UNK N   1      34.383  10.241  19.210  0.00  0.00    -0.166 F 
HETATM   39  F   UNK N   1      35.014  12.366  19.589  0.00  0.00    -0.166 F 
ENDBRANCH  32  36
BRANCH  35  40
HETATM   40  O   UNK N   1      36.163  14.731  12.391  0.00  0.00    -0.383 OA
BRANCH  40  41
HETATM   41  C   UNK N   1      35.035  15.156  11.679  0.00  0.00     0.163 C 
HETATM   42  C   UNK N   1      35.365  16.438  10.938  0.00  0.00     0.033 C 
ENDBRANCH  40  41
ENDBRANCH  35  40
ENDBRANCH   1  27
TORSDOF 6
ENDMDL
MODEL 7
REMARK VINA RESULT:      -7.7      6.306     10.979
REMARK  6 active torsions:
REMARK  status: ('A' for Active; 'I' for Inactive)
REMARK    1  A    between atoms: C_2  and  O_3 
REMARK    2  A    between atoms: C_4  and  O_3 
REMARK    3  A    between atoms: C_8  and  C_39 
REMARK    4  A    between atoms: C_12  and  N_13 
REMARK    5  A    between atoms: N_16  and  C_20 
REMARK       I    between atoms: N_23  and  C_26 
REMARK    6  A    between atoms: C_26  and  C_28 
ROOT
HETATM    1  N   UNK N   1      24.903  14.199   4.364  0.00  0.00     0.107 N 
HETATM    2  C   UNK N   1      24.098  15.198   5.098  0.00  0.00     0.304 C 
HETATM    3  C   UNK N   1      24.934  16.396   5.590  0.00  0.00     0.303 C 
HETATM    4  N   UNK N   1      26.223  16.513   4.884  0.00  0.00     0.101 N 
HETATM    5  C   UNK N   1      25.975  16.278   3.463  0.00  0.00     0.308 C 
HETATM    6  C   UNK N   1      25.596  14.815   3.220  0.00  0.00     0.248 C 
HETATM    7  C   UNK N   1      24.739  14.724   1.973  0.00  0.00     0.045 C 
ENDROOT
BRANCH   4   8
HETATM    8  C   UNK N   1      26.853  17.837   5.113  0.00  0.00     0.159 C 
HETATM    9  C   UNK N   1      27.923  18.144   4.034  0.00  0.00     0.061 C 
HETATM   10  C   UNK N   1      29.262  18.563   4.632  0.00  0.00     0.128 C 
HETATM   11  N   UNK N   1      29.696  17.579   5.608  0.00  0.00    -0.348 N 
HETATM   12  C   UNK N   1      28.793  17.241   6.698  0.00  0.00     0.128 C 
HETATM   13  C   UNK N   1      30.978  17.088   5.542  0.00  0.00     0.257 C 
HETATM   14  C   UNK N   1      27.429  17.928   6.546  0.00  0.00     0.061 C 
HETATM   15  O   UNK N   1      31.726  17.534   4.678  0.00  0.00    -0.267 OA
HETATM   16  C   UNK N   1      25.791  18.928   5.046  0.00  0.00     0.049 C 
BRANCH  13  17
HETATM   17  C   UNK N   1      31.559  16.083   6.515  0.00  0.00     0.076 A 
HETATM   18  C   UNK N   1      31.471  14.697   6.221  0.00  0.00     0.024 A 
HETATM   19  N   UNK N   1      31.976  13.779   7.083  0.00  0.00    -0.355 N 
HETATM   20  C   UNK N   1      30.865  14.197   4.950  0.00  0.00     0.069 C 
HETATM   21  C   UNK N   1      32.556  14.149   8.248  0.00  0.00     0.180 A 
ATOM     22  HN  UNK N   1      31.916  12.788   6.849  1.00  0.00     0.166 HD
HETATM   23  N   UNK N   1      32.630  15.457   8.580  0.00  0.00    -0.355 N 
HETATM   24  C   UNK N   1      32.156  16.428   7.761  0.00  0.00     0.024 A 
ATOM     25  HN  UNK N   1      33.053  15.720   9.471  1.00  0.00     0.166 HD
HETATM   26  C   UNK N   1      32.192  17.816   8.278  0.00  0.00     0.069 C 
ENDBRANCH  13  17
ENDBRANCH   4   8
BRANCH   1  27
HETATM   27  C   UNK N   1      25.884  13.476   5.203  0.00  0.00     0.286 C 
HETATM   28  C   UNK N   1      25.333  13.219   6.565  0.00  0.00    -0.016 A 
HETATM   29  C   UNK N   1      25.288  14.138   7.616  0.00  0.00     0.011 A 
HETATM   30  C   UNK N   1      24.812  11.955   6.708  0.00  0.00    -0.046 A 
HETATM   31  C   UNK N   1      24.691  13.757   8.822  0.00  0.00     0.017 A 
HETATM   32  C   UNK N   1      24.123  12.473   8.962  0.00  0.00     0.048 A 
HETATM   33  C   UNK N   1      24.187  11.563   7.890  0.00  0.00     0.023 A 
HETATM   34  C   UNK N   1      24.994  11.118   5.504  0.00  0.00     0.073 C 
HETATM   35  C   UNK N   1      26.005  12.006   4.745  0.00  0.00     0.163 C 
BRANCH  32  36
HETATM   36  C   UNK N   1      23.450  12.075  10.240  0.00  0.00     0.417 C 
HETATM   37  F   UNK N   1      22.471  13.003  10.549  0.00  0.00    -0.166 F 
HETATM   38  F   UNK N   1      24.356  12.019  11.284  0.00  0.00    -0.166 F 
HETATM   39  F   UNK N   1      22.866  10.831  10.088  0.00  0.00    -0.166 F 
ENDBRANCH  32  36
BRANCH  35  40
HETATM   40  O   UNK N   1      26.335  11.744   3.395  0.00  0.00    -0.383 OA
BRANCH  40  41
HETATM   41  C   UNK N   1      25.341  10.951   2.808  0.00  0.00     0.163 C 
HETATM   42  C   UNK N   1      25.422  11.082   1.298  0.00  0.00     0.033 C 
ENDBRANCH  40  41
ENDBRANCH  35  40
ENDBRANCH   1  27
TORSDOF 6
ENDMDL
MODEL 8
REMARK VINA RESULT:      -7.7      3.430      6.265
REMARK  6 active torsions:
REMARK  status: ('A' for Active; 'I' for Inactive)
REMARK    1  A    between atoms: C_2  and  O_3 
REMARK    2  A    between atoms: C_4  and  O_3 
REMARK    3  A    between atoms: C_8  and  C_39 
REMARK    4  A    between atoms: C_12  and  N_13 
REMARK    5  A    between atoms: N_16  and  C_20 
REMARK       I    between atoms: N_23  and  C_26 
REMARK    6  A    between atoms: C_26  and  C_28 
ROOT
HETATM    1  N   UNK N   1      35.659  10.698  13.168  0.00  0.00     0.107 N 
HETATM    2  C   UNK N   1      34.472  11.577  13.122  0.00  0.00     0.304 C 
HETATM    3  C   UNK N   1      34.719  12.875  12.327  0.00  0.00     0.303 C 
HETATM    4  N   UNK N   1      35.896  12.782  11.445  0.00  0.00     0.101 N 
HETATM    5  C   UNK N   1      35.861  11.474  10.793  0.00  0.00     0.308 C 
HETATM    6  C   UNK N   1      36.121  10.361  11.811  0.00  0.00     0.248 C 
HETATM    7  C   UNK N   1      35.460   9.084  11.332  0.00  0.00     0.045 C 
ENDROOT
BRANCH   4   8
HETATM    8  C   UNK N   1      35.921  13.883  10.450  0.00  0.00     0.159 C 
HETATM    9  C   UNK N   1      35.478  13.384   9.050  0.00  0.00     0.061 C 
HETATM   10  C   UNK N   1      36.464  13.761   7.949  0.00  0.00     0.128 C 
HETATM   11  N   UNK N   1      37.802  13.329   8.316  0.00  0.00    -0.348 N 
HETATM   12  C   UNK N   1      38.347  13.772   9.591  0.00  0.00     0.128 C 
HETATM   13  C   UNK N   1      38.551  12.620   7.407  0.00  0.00     0.257 C 
HETATM   14  C   UNK N   1      37.314  14.554  10.414  0.00  0.00     0.061 C 
HETATM   15  O   UNK N   1      38.072  12.412   6.298  0.00  0.00    -0.267 OA
HETATM   16  C   UNK N   1      34.963  14.986  10.881  0.00  0.00     0.049 C 
BRANCH  13  17
HETATM   17  C   UNK N   1      39.965  12.138   7.658  0.00  0.00     0.076 A 
HETATM   18  C   UNK N   1      40.177  10.979   8.451  0.00  0.00     0.024 A 
HETATM   19  N   UNK N   1      41.436  10.537   8.695  0.00  0.00    -0.355 N 
HETATM   20  C   UNK N   1      39.040  10.186   9.008  0.00  0.00     0.069 C 
HETATM   21  C   UNK N   1      42.519  11.187   8.213  0.00  0.00     0.180 A 
ATOM     22  HN  UNK N   1      41.568   9.694   9.256  1.00  0.00     0.166 HD
HETATM   23  N   UNK N   1      42.361  12.313   7.481  0.00  0.00    -0.355 N 
HETATM   24  C   UNK N   1      41.132  12.806   7.189  0.00  0.00     0.024 A 
ATOM     25  HN  UNK N   1      43.188  12.804   7.140  1.00  0.00     0.166 HD
HETATM   26  C   UNK N   1      41.084  14.103   6.475  0.00  0.00     0.069 C 
ENDBRANCH  13  17
ENDBRANCH   4   8
BRANCH   1  27
HETATM   27  C   UNK N   1      36.788  11.246  13.952  0.00  0.00     0.286 C 
HETATM   28  C   UNK N   1      36.395  11.464  15.374  0.00  0.00    -0.016 A 
HETATM   29  C   UNK N   1      35.678  12.557  15.864  0.00  0.00     0.011 A 
HETATM   30  C   UNK N   1      36.778  10.439  16.204  0.00  0.00    -0.046 A 
HETATM   31  C   UNK N   1      35.342  12.590  17.222  0.00  0.00     0.017 A 
HETATM   32  C   UNK N   1      35.703  11.524  18.072  0.00  0.00     0.048 A 
HETATM   33  C   UNK N   1      36.430  10.437  17.554  0.00  0.00     0.023 A 
HETATM   34  C   UNK N   1      37.564   9.398  15.509  0.00  0.00     0.073 C 
HETATM   35  C   UNK N   1      37.855  10.155  14.194  0.00  0.00     0.163 C 
BRANCH  32  36
HETATM   36  C   UNK N   1      35.312  11.539  19.518  0.00  0.00     0.417 C 
HETATM   37  F   UNK N   1      34.762  12.769  19.831  0.00  0.00    -0.166 F 
HETATM   38  F   UNK N   1      36.410  11.322  20.332  0.00  0.00    -0.166 F 
HETATM   39  F   UNK N   1      34.378  10.549  19.756  0.00  0.00    -0.166 F 
ENDBRANCH  32  36
BRANCH  35  40
HETATM   40  O   UNK N   1      38.405   9.488  13.075  0.00  0.00    -0.383 OA
BRANCH  40  41
HETATM   41  C   UNK N   1      38.666   8.150  13.400  0.00  0.00     0.163 C 
HETATM   42  C   UNK N   1      39.578   7.548  12.347  0.00  0.00     0.033 C 
ENDBRANCH  40  41
ENDBRANCH  35  40
ENDBRANCH   1  27
TORSDOF 6
ENDMDL
MODEL 9
REMARK VINA RESULT:      -7.7      6.567     10.453
REMARK  6 active torsions:
REMARK  status: ('A' for Active; 'I' for Inactive)
REMARK    1  A    between atoms: C_2  and  O_3 
REMARK    2  A    between atoms: C_4  and  O_3 
REMARK    3  A    between atoms: C_8  and  C_39 
REMARK    4  A    between atoms: C_12  and  N_13 
REMARK    5  A    between atoms: N_16  and  C_20 
REMARK       I    between atoms: N_23  and  C_26 
REMARK    6  A    between atoms: C_26  and  C_28 
ROOT
HETATM    1  N   UNK N   1      29.079  17.488   4.854  0.00  0.00     0.107 N 
HETATM    2  C   UNK N   1      29.835  16.822   3.772  0.00  0.00     0.304 C 
HETATM    3  C   UNK N   1      29.136  15.551   3.248  0.00  0.00     0.303 C 
HETATM    4  N   UNK N   1      27.709  15.501   3.612  0.00  0.00     0.101 N 
HETATM    5  C   UNK N   1      27.148  16.833   3.397  0.00  0.00     0.308 C 
HETATM    6  C   UNK N   1      27.714  17.825   4.416  0.00  0.00     0.248 C 
HETATM    7  C   UNK N   1      27.679  19.220   3.826  0.00  0.00     0.045 C 
ENDROOT
BRANCH   4   8
HETATM    8  C   UNK N   1      26.981  14.473   2.827  0.00  0.00     0.159 C 
HETATM    9  C   UNK N   1      26.047  15.127   1.776  0.00  0.00     0.061 C 
HETATM   10  C   UNK N   1      24.620  14.593   1.842  0.00  0.00     0.128 C 
HETATM   11  N   UNK N   1      24.117  14.696   3.201  0.00  0.00    -0.348 N 
HETATM   12  C   UNK N   1      24.886  14.080   4.272  0.00  0.00     0.128 C 
HETATM   13  C   UNK N   1      22.884  15.263   3.419  0.00  0.00     0.257 C 
HETATM   14  C   UNK N   1      26.218  13.509   3.765  0.00  0.00     0.061 C 
HETATM   15  O   UNK N   1      22.233  15.628   2.446  0.00  0.00    -0.267 OA
HETATM   16  C   UNK N   1      27.980  13.593   2.085  0.00  0.00     0.049 C 
BRANCH  13  17
HETATM   17  C   UNK N   1      22.238  15.403   4.783  0.00  0.00     0.076 A 
HETATM   18  C   UNK N   1      21.357  14.389   5.244  0.00  0.00     0.024 A 
HETATM   19  N   UNK N   1      20.761  14.499   6.457  0.00  0.00    -0.355 N 
HETATM   20  C   UNK N   1      21.085  13.157   4.444  0.00  0.00     0.069 C 
HETATM   21  C   UNK N   1      20.968  15.575   7.251  0.00  0.00     0.180 A 
ATOM     22  HN  UNK N   1      20.142  13.754   6.779  1.00  0.00     0.166 HD
HETATM   23  N   UNK N   1      21.774  16.577   6.834  0.00  0.00    -0.355 N 
HETATM   24  C   UNK N   1      22.410  16.528   5.637  0.00  0.00     0.024 A 
ATOM     25  HN  UNK N   1      21.905  17.391   7.435  1.00  0.00     0.166 HD
HETATM   26  C   UNK N   1      23.179  17.731   5.239  0.00  0.00     0.069 C 
ENDBRANCH  13  17
ENDBRANCH   4   8
BRANCH   1  27
HETATM   27  C   UNK N   1      29.016  16.714   6.114  0.00  0.00     0.286 C 
HETATM   28  C   UNK N   1      30.381  16.313   6.562  0.00  0.00    -0.016 A 
HETATM   29  C   UNK N   1      31.117  15.232   6.073  0.00  0.00     0.011 A 
HETATM   30  C   UNK N   1      30.904  17.151   7.518  0.00  0.00    -0.046 A 
HETATM   31  C   UNK N   1      32.409  15.018   6.564  0.00  0.00     0.017 A 
HETATM   32  C   UNK N   1      32.964  15.895   7.518  0.00  0.00     0.048 A 
HETATM   33  C   UNK N   1      32.200  16.973   8.000  0.00  0.00     0.023 A 
HETATM   34  C   UNK N   1      29.958  18.206   7.938  0.00  0.00     0.073 C 
HETATM   35  C   UNK N   1      28.670  17.642   7.299  0.00  0.00     0.163 C 
BRANCH  32  36
HETATM   36  C   UNK N   1      34.362  15.690   8.018  0.00  0.00     0.417 C 
HETATM   37  F   UNK N   1      34.709  16.740   8.850  0.00  0.00    -0.166 F 
HETATM   38  F   UNK N   1      35.263  15.636   6.969  0.00  0.00    -0.166 F 
HETATM   39  F   UNK N   1      34.432  14.506   8.727  0.00  0.00    -0.166 F 
ENDBRANCH  32  36
BRANCH  35  40
HETATM   40  O   UNK N   1      27.492  18.421   7.225  0.00  0.00    -0.383 OA
BRANCH  40  41
HETATM   41  C   UNK N   1      27.783  19.755   7.539  0.00  0.00     0.163 C 
HETATM   42  C   UNK N   1      26.746  20.658   6.898  0.00  0.00     0.033 C 
ENDBRANCH  40  41
ENDBRANCH  35  40
ENDBRANCH   1  27
TORSDOF 6
ENDMDL
