REMARK  10 active torsions:
REMARK  status: ('A' for Active; 'I' for Inactive)
REMARK    1  A    between atoms: C_17  and  C_4 
REMARK    2  A    between atoms: N_34  and  C_17 
REMARK    3  A    between atoms: C_27  and  C_18 
REMARK    4  A    between atoms: C_27  and  C_19 
REMARK    5  A    between atoms: C_20  and  N_35 
REMARK    6  A    between atoms: C_29  and  C_23 
REMARK    7  A    between atoms: C_28  and  C_24 
REMARK    8  A    between atoms: N_34  and  C_25 
REMARK    9  A    between atoms: N_37  and  C_26 
REMARK   10  A    between atoms: O_39  and  C_28 
ROOT
HETATM    1  C   UNK N   1       2.991  -2.542  -1.730  0.00  0.00     0.147 C 
HETATM    2  N   UNK N   1       2.820  -1.448  -1.057  0.00  0.00    -0.366 N 
ATOM      3  HN  UNK N   1       2.684  -0.579  -1.574  1.00  0.00     0.162 HD
HETATM    4  O   UNK N   1       2.841  -2.519  -3.066  0.00  0.00    -0.346 OA
HETATM    5  H   UNK N   1       2.803  -2.421  -3.997  0.00  0.00     0.219 HD
ENDROOT
BRANCH   1   6
HETATM    6  C   UNK N   1       3.374  -3.820  -1.075  0.00  0.00     0.022 A 
HETATM    7  C   UNK N   1       2.414  -4.818  -0.883  0.00  0.00     0.046 A 
HETATM    8  C   UNK N   1       2.750  -6.039  -0.270  0.00  0.00     0.043 A 
HETATM    9  C   UNK N   1       4.092  -6.277   0.120  0.00  0.00     0.041 A 
HETATM   10  C   UNK N   1       5.044  -5.265  -0.073  0.00  0.00     0.026 A 
HETATM   11  C   UNK N   1       4.697  -4.044  -0.648  0.00  0.00    -0.046 A 
HETATM   12  C   UNK N   1       5.760  -3.012  -0.829  0.00  0.00     0.049 C 
BRANCH   8  13
HETATM   13  N   UNK N   1       1.746  -7.017  -0.018  0.00  0.00    -0.385 N 
HETATM   14  H   UNK N   1       2.030  -7.876   0.370  0.00  0.00     0.160 HD
BRANCH  13  15
HETATM   15  C   UNK N   1       0.338  -6.834  -0.292  0.00  0.00     0.077 C 
HETATM   16  C   UNK N   1      -0.396  -8.096   0.124  0.00  0.00     0.032 C 
BRANCH  15  17
HETATM   17  C   UNK N   1      -0.206  -5.642   0.498  0.00  0.00     0.020 C 
HETATM   18  C   UNK N   1      -1.643  -5.323   0.119  0.00  0.00     0.007 C 
ENDBRANCH  15  17
ENDBRANCH  13  15
ENDBRANCH   8  13
BRANCH   9  19
HETATM   19  C   UNK N   1       4.534  -7.566   0.726  0.00  0.00     0.146 C 
HETATM   20  N   UNK N   1       5.761  -7.730   1.065  0.00  0.00    -0.379 N 
HETATM   21  H   UNK N   1       6.122  -8.609   1.324  0.00  0.00     0.158 HD
ATOM     22  HN  UNK N   1       6.384  -6.923   1.065  1.00  0.00     0.158 HD
BRANCH  19  23
HETATM   23  O   UNK N   1       3.668  -8.583   0.900  0.00  0.00    -0.346 OA
HETATM   24  H   UNK N   1       2.754  -8.416   1.021  0.00  0.00     0.219 HD
ENDBRANCH  19  23
ENDBRANCH   9  19
ENDBRANCH   1   6
BRANCH   2  25
HETATM   25  C   UNK N   1       2.813  -1.395   0.390  0.00  0.00     0.087 C 
HETATM   26  C   UNK N   1       3.019   0.056   0.856  0.00  0.00     0.050 C 
HETATM   27  C   UNK N   1       1.720   0.806   1.150  0.00  0.00     0.088 C 
HETATM   28  C   UNK N   1       1.229   0.442   2.561  0.00  0.00     0.027 C 
HETATM   29  N   UNK N   1       0.656   0.276   0.349  0.00  0.00    -0.358 N 
HETATM   30  C   UNK N   1       0.144  -0.646   2.351  0.00  0.00     0.027 C 
HETATM   31  C   UNK N   1       0.287  -1.012   0.887  0.00  0.00     0.088 C 
HETATM   32  C   UNK N   1       1.478  -2.005   0.869  0.00  0.00     0.050 C 
BRANCH  29  33
HETATM   33  C   UNK N   1      -0.304   1.189  -0.199  0.00  0.00     0.103 A 
HETATM   34  C   UNK N   1      -1.662   0.851  -0.267  0.00  0.00     0.049 A 
HETATM   35  C   UNK N   1      -2.609   1.848  -0.512  0.00  0.00     0.020 A 
HETATM   36  C   UNK N   1      -2.200   3.177  -0.694  0.00  0.00     0.026 A 
HETATM   37  C   UNK N   1      -0.833   3.460  -0.700  0.00  0.00     0.104 A 
HETATM   38  N   UNK N   1       0.070   2.481  -0.446  0.00  0.00    -0.351 N 
ATOM     39  HN  UNK N   1       1.062   2.716  -0.439  1.00  0.00     0.166 HD
BRANCH  36  40
HETATM   40  C   UNK N   1      -3.180   4.287  -0.788  0.00  0.00     0.165 C 
HETATM   41  O   UNK N   1      -2.780   5.428  -0.972  0.00  0.00    -0.292 OA
BRANCH  40  42
HETATM   42  C   UNK N   1      -4.658   4.052  -0.615  0.00  0.00     0.061 A 
HETATM   43  C   UNK N   1      -5.174   4.900   0.541  0.00  0.00     0.013 A 
HETATM   44  C   UNK N   1      -4.954   3.423   0.740  0.00  0.00     0.013 A 
ENDBRANCH  40  42
ENDBRANCH  36  40
ENDBRANCH  29  33
ENDBRANCH   2  25
TORSDOF 10
