REMARK  9 active torsions:
REMARK  status: ('A' for Active; 'I' for Inactive)
REMARK    1  A    between atoms: C_3  and  O_26 
REMARK    2  A    between atoms: C_4  and  O_21 
REMARK    3  A    between atoms: C_6  and  C_7 
REMARK    4  A    between atoms: C_8  and  O_20 
REMARK    5  A    between atoms: C_12  and  O_19 
REMARK    6  A    between atoms: C_14  and  O_18 
REMARK    7  A    between atoms: O_21  and  P_22 
REMARK    8  A    between atoms: P_22  and  O_24 
REMARK    9  A    between atoms: P_22  and  O_25 
ROOT
HETATM    1  C   UNK N   1       0.942  -1.306   0.039  0.00  0.00     0.123 A 
HETATM    2  C   UNK N   1       0.864   0.107   0.039  0.00  0.00     0.152 A 
HETATM    3  C   UNK N   1       2.052   0.854   0.045  0.00  0.00     0.223 A 
HETATM    4  O   UNK N   1       1.995   2.075   0.034  0.00  0.00    -0.284 OA
HETATM    5  C   UNK N   1       3.294   0.189   0.053  0.00  0.00     0.084 A 
HETATM    6  C   UNK N   1       4.541   0.865   0.045  0.00  0.00     0.085 A 
HETATM    7  C   UNK N   1       5.732   0.132   0.053  0.00  0.00     0.074 A 
HETATM    8  C   UNK N   1       5.706  -1.264   0.069  0.00  0.00     0.071 A 
HETATM    9  C   UNK N   1       4.486  -1.937   0.074  0.00  0.00     0.075 A 
HETATM   10  C   UNK N   1       3.285  -1.225   0.065  0.00  0.00     0.096 A 
HETATM   11  O   UNK N   1       2.139  -1.892   0.055  0.00  0.00    -0.306 OA
ENDROOT
BRANCH   1  12
HETATM   12  C   UNK N   1      -0.250  -2.198  -0.029  0.00  0.00     0.004 A 
HETATM   13  C   UNK N   1      -1.579  -1.725  -0.067  0.00  0.00     0.054 A 
HETATM   14  C   UNK N   1      -2.651  -2.629  -0.229  0.00  0.00     0.115 A 
HETATM   15  C   UNK N   1      -2.387  -3.999  -0.348  0.00  0.00     0.099 A 
HETATM   16  C   UNK N   1      -1.080  -4.471  -0.281  0.00  0.00     0.040 A 
HETATM   17  C   UNK N   1      -0.023  -3.578  -0.126  0.00  0.00     0.017 A 
BRANCH  14  18
HETATM   18  O   UNK N   1      -3.939  -2.212  -0.287  0.00  0.00    -0.252 OA
BRANCH  18  19
HETATM   19  P   UNK N   1      -4.561  -0.898   0.629  0.00  0.00     0.396 P 
HETATM   20  O   UNK N   1      -6.048  -0.639   0.268  0.00  0.00    -0.631 OA
BRANCH  19  21
HETATM   21  O   UNK N   1      -4.495  -0.376  -1.024  0.00  0.00    -0.307 OA
HETATM   22  H   UNK N   1      -4.223  -0.262  -1.948  0.00  0.00     0.222 HD
ENDBRANCH  19  21
BRANCH  19  23
HETATM   23  O   UNK N   1      -5.393  -2.374   1.024  0.00  0.00    -0.307 OA
HETATM   24  H   UNK N   1      -6.337  -2.384   1.245  0.00  0.00     0.222 HD
ENDBRANCH  19  23
ENDBRANCH  18  19
ENDBRANCH  14  18
BRANCH  15  25
HETATM   25  O   UNK N   1      -3.398  -4.870  -0.509  0.00  0.00    -0.358 OA
HETATM   26  H   UNK N   1      -4.276  -4.563  -0.621  0.00  0.00     0.217 HD
ENDBRANCH  15  25
ENDBRANCH   1  12
BRANCH   2  27
HETATM   27  O   UNK N   1      -0.322   0.740   0.016  0.00  0.00    -0.355 OA
HETATM   28  H   UNK N   1      -0.354   1.676   0.001  0.00  0.00     0.218 HD
ENDBRANCH   2  27
BRANCH   6  29
HETATM   29  O   UNK N   1       4.607   2.208   0.025  0.00  0.00    -0.360 OA
HETATM   30  H   UNK N   1       5.441   2.636   0.012  0.00  0.00     0.217 HD
ENDBRANCH   6  29
BRANCH   8  31
HETATM   31  O   UNK N   1       6.855  -1.958   0.076  0.00  0.00    -0.361 OA
HETATM   32  H   UNK N   1       6.836  -2.895   0.081  0.00  0.00     0.217 HD
ENDBRANCH   8  31
TORSDOF 9
