REMARK  9 active torsions:
REMARK  status: ('A' for Active; 'I' for Inactive)
REMARK    1  A    between atoms: C_6  and  C_5 
REMARK    2  A    between atoms: N_18  and  C_5 
REMARK    3  A    between atoms: N_23  and  C_6 
REMARK    4  A    between atoms: C_13  and  C_8 
REMARK    5  A    between atoms: N_18  and  C_8 
REMARK    6  A    between atoms: C_13  and  C_10 
REMARK    7  A    between atoms: O_24  and  C_11 
REMARK    8  A    between atoms: O_25  and  C_12 
REMARK    9  A    between atoms: O_26  and  C_13 
ROOT
HETATM    1  C   UNK N   1      -0.153   0.084   1.115  0.00  0.00     0.134 C 
ENDROOT
BRANCH   1   2
HETATM    2  C   UNK N   1      -0.698   0.762  -0.144  0.00  0.00     0.149 C 
BRANCH   2   3
HETATM    3  N   UNK N   1      -2.119   1.067  -0.067  0.00  0.00    -0.334 N 
HETATM    4  C   UNK N   1      -2.626   2.324  -0.076  0.00  0.00     0.185 A 
HETATM    5  N   UNK N   1      -3.985   2.311  -0.067  0.00  0.00    -0.336 N 
HETATM    6  C   UNK N   1      -4.306   1.004  -0.060  0.00  0.00     0.145 A 
ATOM      7  HN  UNK N   1      -4.618   3.111  -0.065  1.00  0.00     0.168 HD
HETATM    8  C   UNK N   1      -3.187   0.246  -0.057  0.00  0.00     0.149 A 
HETATM    9  N   UNK N   1      -5.553   0.473  -0.077  0.00  0.00    -0.287 N 
HETATM   10  C   UNK N   1      -3.286  -1.144  -0.067  0.00  0.00     0.282 A 
HETATM   11  N   UNK N   1      -4.547  -1.712  -0.069  0.00  0.00    -0.269 N 
HETATM   12  O   UNK N   1      -2.293  -1.846  -0.078  0.00  0.00    -0.265 OA
HETATM   13  C   UNK N   1      -4.688  -3.166  -0.069  0.00  0.00     0.164 C 
HETATM   14  C   UNK N   1      -5.681  -0.906  -0.079  0.00  0.00     0.332 A 
HETATM   15  O   UNK N   1      -6.791  -1.415  -0.095  0.00  0.00    -0.246 OA
HETATM   16  C   UNK N   1      -6.724   1.340  -0.103  0.00  0.00     0.163 C 
ENDBRANCH   2   3
ENDBRANCH   1   2
BRANCH   1  17
HETATM   17  N   UNK N   1       0.125  -1.346   0.935  0.00  0.00    -0.417 N 
HETATM   18  H   UNK N   1      -0.024  -2.049   1.659  0.00  0.00     0.153 HD
BRANCH  17  19
HETATM   19  C   UNK N   1       0.644  -1.650  -0.404  0.00  0.00     0.150 C 
BRANCH  19  20
HETATM   20  C   UNK N   1       2.132  -1.974  -0.370  0.00  0.00     0.168 C 
BRANCH  20  21
HETATM   21  C   UNK N   1       3.023  -0.775  -0.157  0.00  0.00    -0.025 A 
HETATM   22  C   UNK N   1       4.342  -0.966   0.272  0.00  0.00     0.013 A 
HETATM   23  C   UNK N   1       5.194   0.127   0.448  0.00  0.00     0.040 A 
HETATM   24  C   UNK N   1       4.741   1.420   0.178  0.00  0.00     0.098 A 
HETATM   25  C   UNK N   1       3.429   1.622  -0.271  0.00  0.00     0.099 A 
HETATM   26  C   UNK N   1       2.577   0.527  -0.439  0.00  0.00     0.049 A 
BRANCH  24  27
HETATM   27  O   UNK N   1       5.570   2.464   0.347  0.00  0.00    -0.358 OA
HETATM   28  H   UNK N   1       6.489   2.328   0.464  0.00  0.00     0.217 HD
ENDBRANCH  24  27
BRANCH  25  29
HETATM   29  O   UNK N   1       2.987   2.862  -0.544  0.00  0.00    -0.358 OA
HETATM   30  H   UNK N   1       3.581   3.561  -0.734  0.00  0.00     0.217 HD
ENDBRANCH  25  29
ENDBRANCH  20  21
BRANCH  20  31
HETATM   31  O   UNK N   1       2.379  -2.975   0.572  0.00  0.00    -0.389 OA
HETATM   32  H   UNK N   1       1.863  -3.471   1.226  0.00  0.00     0.210 HD
ENDBRANCH  20  31
ENDBRANCH  19  20
ENDBRANCH  17  19
ENDBRANCH   1  17
TORSDOF 9
