MODEL 1
REMARK VINA RESULT:      -7.6      0.000      0.000
REMARK WARNING: 32 MAX_TORS EXCEEDED!!!
REMARK  40 active torsions:
REMARK  status: ('A' for Active; 'I' for Inactive)
REMARK    1  A    between atoms: O_2  and  C_3 
REMARK    2  A    between atoms: C_6  and  N_72 
REMARK    3  A    between atoms: C_8  and  C_9 
REMARK       I    between atoms: C_9  and  N_11 
REMARK    4  A    between atoms: C_12  and  N_11 
REMARK    5  A    between atoms: C_12  and  C_13 
REMARK    6  A    between atoms: C_12  and  C_18 
REMARK    7  A    between atoms: C_13  and  C_14 
REMARK    8  A    between atoms: C_14  and  C_15 
REMARK    9  A    between atoms: C_15  and  C_16 
REMARK   10  A    between atoms: C_16  and  N_17 
REMARK       I    between atoms: C_18  and  N_20 
REMARK   11  A    between atoms: N_20  and  C_21 
REMARK   12  A    between atoms: C_24  and  O_70 
REMARK   13  A    between atoms: C_25  and  C_27 
REMARK       I    between atoms: C_27  and  N_29 
REMARK   14  A    between atoms: C_30  and  N_29 
REMARK   15  A    between atoms: C_30  and  C_31 
REMARK   16  A    between atoms: C_30  and  C_36 
REMARK   17  A    between atoms: C_31  and  C_32 
REMARK   18  A    between atoms: C_32  and  C_33 
REMARK   19  A    between atoms: C_33  and  C_34 
REMARK   20  A    between atoms: C_34  and  N_35 
REMARK       I    between atoms: C_36  and  N_38 
REMARK   21  A    between atoms: N_38  and  C_39 
REMARK   22  A    between atoms: C_42  and  O_68 
REMARK   23  A    between atoms: C_43  and  C_45 
REMARK       I    between atoms: C_45  and  N_47 
REMARK   24  A    between atoms: C_48  and  N_47 
REMARK   25  A    between atoms: C_48  and  C_49 
REMARK   26  A    between atoms: C_48  and  C_54 
REMARK   27  A    between atoms: C_49  and  C_50 
REMARK   28  A    between atoms: C_50  and  C_51 
REMARK   29  A    between atoms: C_51  and  C_52 
REMARK   30  A    between atoms: C_52  and  N_53 
REMARK       I    between atoms: C_54  and  N_56 
REMARK   31  A    between atoms: N_56  and  C_57 
REMARK   32  A    between atoms: C_60  and  O_66 
REMARK   33  A    between atoms: C_61  and  C_63 
REMARK       I    between atoms: C_63  and  N_65 
REMARK       I    between atoms: N_72  and  C_73 
REMARK   34  A    between atoms: C_73  and  C_75 
REMARK   35  A    between atoms: C_75  and  C_76 
REMARK   36  A    between atoms: C_75  and  N_81 
REMARK   37  A    between atoms: C_76  and  C_77 
REMARK   38  A    between atoms: C_77  and  C_78 
REMARK   39  A    between atoms: C_78  and  C_79 
REMARK   40  A    between atoms: C_79  and  N_80 
ROOT
HETATM    1  C   UNK N   1      21.599  18.363   4.752  0.00  0.00     0.255 C 
HETATM    2  O   UNK N   1      20.585  18.075   4.097  0.00  0.00    -0.268 OA
HETATM    3  N   UNK N   1      21.712  17.937   6.014  0.00  0.00    -0.344 N 
HETATM    4  H   UNK N   1      22.272  18.408   6.672  0.00  0.00     0.163 HD
ENDROOT
BRANCH   3   5
HETATM    5  C   UNK N   1      20.985  16.771   6.356  0.00  0.00     0.177 C 
BRANCH   5   6
HETATM    6  C   UNK N   1      20.519  16.774   7.806  0.00  0.00     0.035 C 
BRANCH   6   7
HETATM    7  C   UNK N   1      18.997  16.717   7.909  0.00  0.00     0.004 C 
BRANCH   7   8
HETATM    8  C   UNK N   1      18.474  17.499   9.111  0.00  0.00     0.019 C 
BRANCH   8   9
HETATM    9  C   UNK N   1      19.437  18.599   9.512  0.00  0.00     0.111 C 
BRANCH   9  10
HETATM   10  N   UNK N   1      18.816  19.436  10.522  0.00  0.00    -0.430 N 
HETATM   11  H   UNK N   1      18.024  19.671  11.119  0.00  0.00     0.149 HD
HETATM   12  H   UNK N   1      19.523  20.138  10.745  0.00  0.00     0.149 HD
ENDBRANCH   9  10
ENDBRANCH   8   9
ENDBRANCH   7   8
ENDBRANCH   6   7
ENDBRANCH   5   6
BRANCH   5  13
HETATM   13  C   UNK N   1      21.909  15.710   5.825  0.00  0.00     0.241 C 
HETATM   14  O   UNK N   1      22.991  15.568   6.365  0.00  0.00    -0.271 OA
HETATM   15  N   UNK N   1      21.434  14.712   5.021  0.00  0.00    -0.348 N 
HETATM   16  H   UNK N   1      21.729  13.794   5.213  0.00  0.00     0.163 HD
BRANCH  15  17
HETATM   17  C   UNK N   1      20.538  14.903   3.918  0.00  0.00     0.132 C 
HETATM   18  C   UNK N   1      19.239  14.725   4.374  0.00  0.00     0.005 C 
HETATM   19  C   UNK N   1      18.980  13.437   4.864  0.00  0.00     0.036 C 
HETATM   20  C   UNK N   1      19.882  12.389   4.509  0.00  0.00     0.083 C 
HETATM   21  C   UNK N   1      20.805  12.632   3.407  0.00  0.00     0.063 C 
HETATM   22  C   UNK N   1      20.850  13.960   2.949  0.00  0.00     0.022 C 
BRANCH  20  23
HETATM   23  O   UNK N   1      19.889  11.246   5.230  0.00  0.00    -0.355 OA
HETATM   24  C   UNK N   1      19.180  10.121   4.867  0.00  0.00     0.210 C 
ENDBRANCH  20  23
BRANCH  21  25
HETATM   25  C   UNK N   1      21.864  11.720   2.825  0.00  0.00     0.254 C 
HETATM   26  O   UNK N   1      21.516  10.880   2.015  0.00  0.00    -0.268 OA
HETATM   27  N   UNK N   1      23.170  11.746   3.140  0.00  0.00    -0.344 N 
HETATM   28  H   UNK N   1      23.785  11.196   2.602  0.00  0.00     0.163 HD
BRANCH  27  29
HETATM   29  C   UNK N   1      23.720  12.513   4.196  0.00  0.00     0.177 C 
BRANCH  29  30
HETATM   30  C   UNK N   1      25.018  13.203   3.774  0.00  0.00     0.035 C 
BRANCH  30  31
HETATM   31  C   UNK N   1      24.814  14.509   3.010  0.00  0.00     0.004 C 
BRANCH  31  32
HETATM   32  C   UNK N   1      25.113  14.342   1.532  0.00  0.00     0.019 C 
BRANCH  32  33
HETATM   33  C   UNK N   1      23.817  14.339   0.757  0.00  0.00     0.111 C 
BRANCH  33  34
HETATM   34  N   UNK N   1      23.730  13.125  -0.032  0.00  0.00    -0.430 N 
HETATM   35  H   UNK N   1      23.934  12.127  -0.074  0.00  0.00     0.149 HD
HETATM   36  H   UNK N   1      23.274  13.373  -0.911  0.00  0.00     0.149 HD
ENDBRANCH  33  34
ENDBRANCH  32  33
ENDBRANCH  31  32
ENDBRANCH  30  31
ENDBRANCH  29  30
BRANCH  29  37
HETATM   37  C   UNK N   1      23.882  11.687   5.427  0.00  0.00     0.245 C 
HETATM   38  O   UNK N   1      24.957  11.177   5.725  0.00  0.00    -0.271 OA
HETATM   39  N   UNK N   1      22.829  11.637   6.259  0.00  0.00    -0.325 N 
HETATM   40  H   UNK N   1      21.970  11.296   5.919  0.00  0.00     0.169 HD
BRANCH  39  41
HETATM   41  C   UNK N   1      22.914  12.053   7.588  0.00  0.00     0.035 A 
HETATM   42  C   UNK N   1      24.101  11.863   8.280  0.00  0.00     0.032 A 
HETATM   43  C   UNK N   1      24.138  12.078   9.652  0.00  0.00     0.040 A 
HETATM   44  C   UNK N   1      22.971  12.451  10.352  0.00  0.00     0.084 A 
HETATM   45  C   UNK N   1      21.755  12.609   9.645  0.00  0.00     0.067 A 
HETATM   46  C   UNK N   1      21.750  12.398   8.274  0.00  0.00     0.049 A 
BRANCH  44  47
HETATM   47  O   UNK N   1      23.015  12.658  11.688  0.00  0.00    -0.355 OA
HETATM   48  C   UNK N   1      23.444  11.702  12.581  0.00  0.00     0.210 C 
ENDBRANCH  44  47
BRANCH  45  49
HETATM   49  C   UNK N   1      20.472  12.989  10.287  0.00  0.00     0.252 C 
HETATM   50  O   UNK N   1      19.778  13.866   9.790  0.00  0.00    -0.268 OA
HETATM   51  N   UNK N   1      20.059  12.392  11.422  0.00  0.00    -0.366 N 
HETATM   52  H   UNK N   1      19.171  12.599  11.794  0.00  0.00     0.159 HD
HETATM   53  H   UNK N   1      20.647  11.749  11.880  0.00  0.00     0.159 HD
ENDBRANCH  45  49
ENDBRANCH  39  41
ENDBRANCH  29  37
ENDBRANCH  27  29
ENDBRANCH  21  25
ENDBRANCH  15  17
ENDBRANCH   5  13
ENDBRANCH   3   5
BRANCH   1  54
HETATM   54  C   UNK N   1      22.611  19.191   4.147  0.00  0.00     0.067 C 
HETATM   55  C   UNK N   1      22.398  20.215   3.206  0.00  0.00     0.084 C 
HETATM   56  C   UNK N   1      23.535  20.792   2.589  0.00  0.00     0.040 C 
HETATM   57  C   UNK N   1      24.806  20.214   2.793  0.00  0.00     0.032 C 
HETATM   58  C   UNK N   1      24.946  19.161   3.713  0.00  0.00     0.035 C 
HETATM   59  C   UNK N   1      23.851  18.786   4.423  0.00  0.00     0.049 C 
BRANCH  55  60
HETATM   60  O   UNK N   1      21.139  20.616   2.915  0.00  0.00    -0.355 OA
HETATM   61  C   UNK N   1      20.662  20.737   1.631  0.00  0.00     0.210 C 
ENDBRANCH  55  60
BRANCH  58  62
HETATM   62  N   UNK N   1      25.852  18.104   3.419  0.00  0.00    -0.325 N 
HETATM   63  C   UNK N   1      27.191  18.197   3.750  0.00  0.00     0.245 C 
HETATM   64  O   UNK N   1      27.742  19.280   3.914  0.00  0.00    -0.271 OA
HETATM   65  H   UNK N   1      25.520  17.291   2.972  0.00  0.00     0.169 HD
BRANCH  63  66
HETATM   66  C   UNK N   1      27.906  16.993   4.210  0.00  0.00     0.177 C 
BRANCH  66  67
HETATM   67  N   UNK N   1      29.050  17.407   5.021  0.00  0.00    -0.344 N 
HETATM   68  C   UNK N   1      29.472  16.803   6.168  0.00  0.00     0.255 C 
HETATM   69  O   UNK N   1      28.764  15.987   6.738  0.00  0.00    -0.268 OA
HETATM   70  H   UNK N   1      29.559  18.191   4.713  0.00  0.00     0.163 HD
BRANCH  68  71
HETATM   71  C   UNK N   1      30.804  17.128   6.727  0.00  0.00     0.067 A 
HETATM   72  C   UNK N   1      31.949  16.879   5.959  0.00  0.00     0.049 A 
HETATM   73  C   UNK N   1      33.227  17.096   6.491  0.00  0.00     0.035 A 
HETATM   74  C   UNK N   1      33.349  17.664   7.758  0.00  0.00     0.032 A 
HETATM   75  C   UNK N   1      32.225  17.937   8.525  0.00  0.00     0.040 A 
HETATM   76  C   UNK N   1      30.945  17.622   8.043  0.00  0.00     0.084 A 
BRANCH  73  77
HETATM   77  N   UNK N   1      34.403  16.507   5.954  0.00  0.00    -0.325 N 
HETATM   78  C   UNK N   1      35.044  15.337   6.239  0.00  0.00     0.244 C 
HETATM   79  O   UNK N   1      36.170  15.193   5.795  0.00  0.00    -0.271 OA
HETATM   80  H   UNK N   1      34.833  17.041   5.248  0.00  0.00     0.169 HD
BRANCH  78  81
HETATM   81  C   UNK N   1      34.496  14.202   7.071  0.00  0.00     0.167 C 
BRANCH  81  82
HETATM   82  C   UNK N   1      35.271  13.882   8.341  0.00  0.00     0.034 C 
BRANCH  82  83
HETATM   83  C   UNK N   1      34.293  13.650   9.498  0.00  0.00     0.004 C 
BRANCH  83  84
HETATM   84  C   UNK N   1      33.831  14.956  10.131  0.00  0.00     0.019 C 
BRANCH  84  85
HETATM   85  C   UNK N   1      34.916  15.499  11.043  0.00  0.00     0.111 C 
BRANCH  85  86
HETATM   86  N   UNK N   1      35.052  16.932  10.846  0.00  0.00    -0.430 N 
HETATM   87  H   UNK N   1      35.125  17.348   9.918  0.00  0.00     0.149 HD
HETATM   88  H   UNK N   1      35.076  17.542  11.664  0.00  0.00     0.149 HD
ENDBRANCH  85  86
ENDBRANCH  84  85
ENDBRANCH  83  84
ENDBRANCH  82  83
ENDBRANCH  81  82
BRANCH  81  89
HETATM   89  N   UNK N   1      33.955  13.053   6.365  0.00  0.00    -0.418 N 
HETATM   90  H   UNK N   1      33.378  12.314   6.767  0.00  0.00     0.150 HD
HETATM   91  H   UNK N   1      34.174  12.978   5.373  0.00  0.00     0.150 HD
ENDBRANCH  81  89
ENDBRANCH  78  81
ENDBRANCH  73  77
BRANCH  76  92
HETATM   92  O   UNK N   1      29.853  17.805   8.821  0.00  0.00    -0.355 OA
HETATM   93  C   UNK N   1      29.781  18.787   9.779  0.00  0.00     0.210 C 
ENDBRANCH  76  92
ENDBRANCH  68  71
ENDBRANCH  66  67
BRANCH  66  94
HETATM   94  C   UNK N   1      28.216  16.110   3.035  0.00  0.00     0.035 C 
BRANCH  94  95
HETATM   95  C   UNK N   1      29.702  16.103   2.795  0.00  0.00     0.004 C 
BRANCH  95  96
HETATM   96  C   UNK N   1      30.179  14.668   2.770  0.00  0.00     0.019 C 
BRANCH  96  97
HETATM   97  C   UNK N   1      31.565  14.568   3.387  0.00  0.00     0.111 C 
BRANCH  97  98
HETATM   98  N   UNK N   1      32.409  13.703   2.580  0.00  0.00    -0.430 N 
HETATM   99  H   UNK N   1      33.135  13.379   1.941  0.00  0.00     0.149 HD
HETATM  100  H   UNK N   1      31.984  12.804   2.809  0.00  0.00     0.149 HD
ENDBRANCH  97  98
ENDBRANCH  96  97
ENDBRANCH  95  96
ENDBRANCH  94  95
ENDBRANCH  66  94
ENDBRANCH  63  66
ENDBRANCH  58  62
ENDBRANCH   1  54
TORSDOF 40
ENDMDL
MODEL 2
REMARK VINA RESULT:      -7.6      2.445      6.073
REMARK WARNING: 32 MAX_TORS EXCEEDED!!!
REMARK  40 active torsions:
REMARK  status: ('A' for Active; 'I' for Inactive)
REMARK    1  A    between atoms: O_2  and  C_3 
REMARK    2  A    between atoms: C_6  and  N_72 
REMARK    3  A    between atoms: C_8  and  C_9 
REMARK       I    between atoms: C_9  and  N_11 
REMARK    4  A    between atoms: C_12  and  N_11 
REMARK    5  A    between atoms: C_12  and  C_13 
REMARK    6  A    between atoms: C_12  and  C_18 
REMARK    7  A    between atoms: C_13  and  C_14 
REMARK    8  A    between atoms: C_14  and  C_15 
REMARK    9  A    between atoms: C_15  and  C_16 
REMARK   10  A    between atoms: C_16  and  N_17 
REMARK       I    between atoms: C_18  and  N_20 
REMARK   11  A    between atoms: N_20  and  C_21 
REMARK   12  A    between atoms: C_24  and  O_70 
REMARK   13  A    between atoms: C_25  and  C_27 
REMARK       I    between atoms: C_27  and  N_29 
REMARK   14  A    between atoms: C_30  and  N_29 
REMARK   15  A    between atoms: C_30  and  C_31 
REMARK   16  A    between atoms: C_30  and  C_36 
REMARK   17  A    between atoms: C_31  and  C_32 
REMARK   18  A    between atoms: C_32  and  C_33 
REMARK   19  A    between atoms: C_33  and  C_34 
REMARK   20  A    between atoms: C_34  and  N_35 
REMARK       I    between atoms: C_36  and  N_38 
REMARK   21  A    between atoms: N_38  and  C_39 
REMARK   22  A    between atoms: C_42  and  O_68 
REMARK   23  A    between atoms: C_43  and  C_45 
REMARK       I    between atoms: C_45  and  N_47 
REMARK   24  A    between atoms: C_48  and  N_47 
REMARK   25  A    between atoms: C_48  and  C_49 
REMARK   26  A    between atoms: C_48  and  C_54 
REMARK   27  A    between atoms: C_49  and  C_50 
REMARK   28  A    between atoms: C_50  and  C_51 
REMARK   29  A    between atoms: C_51  and  C_52 
REMARK   30  A    between atoms: C_52  and  N_53 
REMARK       I    between atoms: C_54  and  N_56 
REMARK   31  A    between atoms: N_56  and  C_57 
REMARK   32  A    between atoms: C_60  and  O_66 
REMARK   33  A    between atoms: C_61  and  C_63 
REMARK       I    between atoms: C_63  and  N_65 
REMARK       I    between atoms: N_72  and  C_73 
REMARK   34  A    between atoms: C_73  and  C_75 
REMARK   35  A    between atoms: C_75  and  C_76 
REMARK   36  A    between atoms: C_75  and  N_81 
REMARK   37  A    between atoms: C_76  and  C_77 
REMARK   38  A    between atoms: C_77  and  C_78 
REMARK   39  A    between atoms: C_78  and  C_79 
REMARK   40  A    between atoms: C_79  and  N_80 
ROOT
HETATM    1  C   UNK N   1      25.288  17.942   4.452  0.00  0.00     0.255 C 
HETATM    2  O   UNK N   1      25.317  17.602   3.259  0.00  0.00    -0.268 OA
HETATM    3  N   UNK N   1      24.238  18.626   4.917  0.00  0.00    -0.344 N 
HETATM    4  H   UNK N   1      24.310  19.216   5.702  0.00  0.00     0.163 HD
ENDROOT
BRANCH   3   5
HETATM    5  C   UNK N   1      23.015  18.458   4.223  0.00  0.00     0.177 C 
BRANCH   5   6
HETATM    6  C   UNK N   1      22.618  19.694   3.427  0.00  0.00     0.035 C 
BRANCH   6   7
HETATM    7  C   UNK N   1      21.107  19.913   3.443  0.00  0.00     0.004 C 
BRANCH   7   8
HETATM    8  C   UNK N   1      20.445  19.444   2.150  0.00  0.00     0.019 C 
BRANCH   8   9
HETATM    9  C   UNK N   1      19.241  18.568   2.436  0.00  0.00     0.111 C 
BRANCH   9  10
HETATM   10  N   UNK N   1      19.156  17.526   1.429  0.00  0.00    -0.430 N 
HETATM   11  H   UNK N   1      19.312  16.565   1.128  0.00  0.00     0.149 HD
HETATM   12  H   UNK N   1      18.727  17.981   0.623  0.00  0.00     0.149 HD
ENDBRANCH   9  10
ENDBRANCH   8   9
ENDBRANCH   7   8
ENDBRANCH   6   7
ENDBRANCH   5   6
BRANCH   5  13
HETATM   13  C   UNK N   1      22.149  17.918   5.327  0.00  0.00     0.241 C 
HETATM   14  O   UNK N   1      22.139  18.511   6.392  0.00  0.00    -0.271 OA
HETATM   15  N   UNK N   1      21.149  17.028   5.055  0.00  0.00    -0.348 N 
HETATM   16  H   UNK N   1      20.276  17.180   5.482  0.00  0.00     0.163 HD
BRANCH  15  17
HETATM   17  C   UNK N   1      21.275  15.888   4.195  0.00  0.00     0.132 C 
HETATM   18  C   UNK N   1      20.047  15.244   4.139  0.00  0.00     0.005 C 
HETATM   19  C   UNK N   1      19.608  14.748   5.376  0.00  0.00     0.036 C 
HETATM   20  C   UNK N   1      20.569  14.606   6.422  0.00  0.00     0.083 C 
HETATM   21  C   UNK N   1      21.980  14.655   6.058  0.00  0.00     0.063 C 
HETATM   22  C   UNK N   1      22.242  15.052   4.736  0.00  0.00     0.022 C 
BRANCH  20  23
HETATM   23  O   UNK N   1      20.147  14.489   7.700  0.00  0.00    -0.355 OA
HETATM   24  C   UNK N   1      20.112  15.547   8.583  0.00  0.00     0.210 C 
ENDBRANCH  20  23
BRANCH  21  25
HETATM   25  C   UNK N   1      23.203  14.543   6.944  0.00  0.00     0.254 C 
HETATM   26  O   UNK N   1      24.025  15.441   6.905  0.00  0.00    -0.268 OA
HETATM   27  N   UNK N   1      23.473  13.517   7.769  0.00  0.00    -0.344 N 
HETATM   28  H   UNK N   1      24.229  13.615   8.394  0.00  0.00     0.163 HD
BRANCH  27  29
HETATM   29  C   UNK N   1      22.741  12.305   7.801  0.00  0.00     0.177 C 
BRANCH  29  30
HETATM   30  C   UNK N   1      22.337  11.928   9.227  0.00  0.00     0.035 C 
BRANCH  30  31
HETATM   31  C   UNK N   1      22.975  12.795  10.309  0.00  0.00     0.004 C 
BRANCH  31  32
HETATM   32  C   UNK N   1      23.655  11.949  11.370  0.00  0.00     0.019 C 
BRANCH  32  33
HETATM   33  C   UNK N   1      22.780  11.891  12.600  0.00  0.00     0.111 C 
BRANCH  33  34
HETATM   34  N   UNK N   1      23.553  12.289  13.761  0.00  0.00    -0.430 N 
HETATM   35  H   UNK N   1      24.478  12.520  14.123  0.00  0.00     0.149 HD
HETATM   36  H   UNK N   1      22.899  12.375  14.539  0.00  0.00     0.149 HD
ENDBRANCH  33  34
ENDBRANCH  32  33
ENDBRANCH  31  32
ENDBRANCH  30  31
ENDBRANCH  29  30
BRANCH  29  37
HETATM   37  C   UNK N   1      23.486  11.215   7.107  0.00  0.00     0.245 C 
HETATM   38  O   UNK N   1      23.021  10.085   6.998  0.00  0.00    -0.271 OA
HETATM   39  N   UNK N   1      24.629  11.564   6.497  0.00  0.00    -0.325 N 
HETATM   40  H   UNK N   1      25.350  11.969   7.031  0.00  0.00     0.169 HD
BRANCH  39  41
HETATM   41  C   UNK N   1      24.828  11.372   5.128  0.00  0.00     0.035 A 
HETATM   42  C   UNK N   1      25.380  10.178   4.688  0.00  0.00     0.032 A 
HETATM   43  C   UNK N   1      25.775  10.052   3.362  0.00  0.00     0.040 A 
HETATM   44  C   UNK N   1      25.653  11.138   2.470  0.00  0.00     0.084 A 
HETATM   45  C   UNK N   1      25.122  12.365   2.936  0.00  0.00     0.067 A 
HETATM   46  C   UNK N   1      24.726  12.459   4.262  0.00  0.00     0.049 A 
BRANCH  44  47
HETATM   47  O   UNK N   1      26.040  11.008   1.181  0.00  0.00    -0.355 OA
HETATM   48  C   UNK N   1      26.327   9.791   0.605  0.00  0.00     0.210 C 
ENDBRANCH  44  47
BRANCH  45  49
HETATM   49  C   UNK N   1      24.961  13.570   2.083  0.00  0.00     0.252 C 
HETATM   50  O   UNK N   1      24.140  13.568   1.175  0.00  0.00    -0.268 OA
HETATM   51  N   UNK N   1      25.714  14.668   2.282  0.00  0.00    -0.366 N 
HETATM   52  H   UNK N   1      25.544  15.486   1.761  0.00  0.00     0.159 HD
HETATM   53  H   UNK N   1      26.437  14.653   2.950  0.00  0.00     0.159 HD
ENDBRANCH  45  49
ENDBRANCH  39  41
ENDBRANCH  29  37
ENDBRANCH  27  29
ENDBRANCH  21  25
ENDBRANCH  15  17
ENDBRANCH   5  13
ENDBRANCH   3   5
BRANCH   1  54
HETATM   54  C   UNK N   1      26.411  17.628   5.297  0.00  0.00     0.067 C 
HETATM   55  C   UNK N   1      27.394  18.530   5.746  0.00  0.00     0.084 C 
HETATM   56  C   UNK N   1      28.523  17.997   6.416  0.00  0.00     0.040 C 
HETATM   57  C   UNK N   1      28.715  16.600   6.453  0.00  0.00     0.032 C 
HETATM   58  C   UNK N   1      27.717  15.753   5.944  0.00  0.00     0.035 C 
HETATM   59  C   UNK N   1      26.567  16.319   5.497  0.00  0.00     0.049 C 
BRANCH  55  60
HETATM   60  O   UNK N   1      27.244  19.857   5.531  0.00  0.00    -0.355 OA
HETATM   61  C   UNK N   1      26.960  20.757   6.531  0.00  0.00     0.210 C 
ENDBRANCH  55  60
BRANCH  58  62
HETATM   62  N   UNK N   1      28.101  14.568   5.253  0.00  0.00    -0.325 N 
HETATM   63  C   UNK N   1      28.723  14.629   4.020  0.00  0.00     0.245 C 
HETATM   64  O   UNK N   1      28.611  15.607   3.288  0.00  0.00    -0.271 OA
HETATM   65  H   UNK N   1      27.920  13.690   5.661  0.00  0.00     0.169 HD
BRANCH  63  66
HETATM   66  C   UNK N   1      29.777  13.653   3.695  0.00  0.00     0.177 C 
BRANCH  66  67
HETATM   67  N   UNK N   1      30.968  13.967   4.483  0.00  0.00    -0.344 N 
HETATM   68  C   UNK N   1      31.789  13.058   5.081  0.00  0.00     0.255 C 
HETATM   69  O   UNK N   1      31.447  11.891   5.196  0.00  0.00    -0.268 OA
HETATM   70  H   UNK N   1      31.197  14.918   4.592  0.00  0.00     0.163 HD
BRANCH  68  71
HETATM   71  C   UNK N   1      33.113  13.483   5.591  0.00  0.00     0.067 A 
HETATM   72  C   UNK N   1      33.269  13.745   6.959  0.00  0.00     0.049 A 
HETATM   73  C   UNK N   1      34.484  14.231   7.458  0.00  0.00     0.035 A 
HETATM   74  C   UNK N   1      35.575  14.350   6.598  0.00  0.00     0.032 A 
HETATM   75  C   UNK N   1      35.445  14.073   5.245  0.00  0.00     0.040 A 
HETATM   76  C   UNK N   1      34.202  13.691   4.716  0.00  0.00     0.084 A 
BRANCH  73  77
HETATM   77  N   UNK N   1      34.603  14.888   8.713  0.00  0.00    -0.325 N 
HETATM   78  C   UNK N   1      34.165  16.105   9.145  0.00  0.00     0.244 C 
HETATM   79  O   UNK N   1      34.616  16.521  10.198  0.00  0.00    -0.271 OA
HETATM   80  H   UNK N   1      35.089  14.370   9.393  0.00  0.00     0.169 HD
BRANCH  78  81
HETATM   81  C   UNK N   1      33.181  17.001   8.431  0.00  0.00     0.167 C 
BRANCH  81  82
HETATM   82  C   UNK N   1      33.792  18.082   7.551  0.00  0.00     0.034 C 
BRANCH  82  83
HETATM   83  C   UNK N   1      33.809  17.612   6.092  0.00  0.00     0.004 C 
BRANCH  83  84
HETATM   84  C   UNK N   1      32.438  17.146   5.623  0.00  0.00     0.019 C 
BRANCH  84  85
HETATM   85  C   UNK N   1      32.329  17.297   4.116  0.00  0.00     0.111 C 
BRANCH  85  86
HETATM   86  N   UNK N   1      30.962  17.628   3.752  0.00  0.00    -0.430 N 
HETATM   87  H   UNK N   1      30.189  16.979   3.899  0.00  0.00     0.149 HD
HETATM   88  H   UNK N   1      30.770  18.539   3.335  0.00  0.00     0.149 HD
ENDBRANCH  85  86
ENDBRANCH  84  85
ENDBRANCH  83  84
ENDBRANCH  82  83
ENDBRANCH  81  82
BRANCH  81  89
HETATM   89  N   UNK N   1      31.981  17.390   9.152  0.00  0.00    -0.418 N 
HETATM   90  H   UNK N   1      31.936  17.731  10.112  0.00  0.00     0.150 HD
HETATM   91  H   UNK N   1      31.097  17.315   8.649  0.00  0.00     0.150 HD
ENDBRANCH  81  89
ENDBRANCH  78  81
ENDBRANCH  73  77
BRANCH  76  92
HETATM   92  O   UNK N   1      34.049  13.506   3.384  0.00  0.00    -0.355 OA
HETATM   93  C   UNK N   1      34.095  14.540   2.481  0.00  0.00     0.210 C 
ENDBRANCH  76  92
ENDBRANCH  68  71
ENDBRANCH  66  67
BRANCH  66  94
HETATM   94  C   UNK N   1      29.968  13.593   2.207  0.00  0.00     0.035 C 
BRANCH  94  95
HETATM   95  C   UNK N   1      29.042  12.558   1.626  0.00  0.00     0.004 C 
BRANCH  95  96
HETATM   96  C   UNK N   1      29.871  11.399   1.121  0.00  0.00     0.019 C 
BRANCH  96  97
HETATM   97  C   UNK N   1      29.590  11.161  -0.354  0.00  0.00     0.111 C 
BRANCH  97  98
HETATM   98  N   UNK N   1      30.172  12.228  -1.151  0.00  0.00    -0.430 N 
HETATM   99  H   UNK N   1      30.549  13.133  -1.430  0.00  0.00     0.149 HD
HETATM  100  H   UNK N   1      30.266  11.734  -2.038  0.00  0.00     0.149 HD
ENDBRANCH  97  98
ENDBRANCH  96  97
ENDBRANCH  95  96
ENDBRANCH  94  95
ENDBRANCH  66  94
ENDBRANCH  63  66
ENDBRANCH  58  62
ENDBRANCH   1  54
TORSDOF 40
ENDMDL
MODEL 3
REMARK VINA RESULT:      -7.4      3.120      6.955
REMARK WARNING: 32 MAX_TORS EXCEEDED!!!
REMARK  40 active torsions:
REMARK  status: ('A' for Active; 'I' for Inactive)
REMARK    1  A    between atoms: O_2  and  C_3 
REMARK    2  A    between atoms: C_6  and  N_72 
REMARK    3  A    between atoms: C_8  and  C_9 
REMARK       I    between atoms: C_9  and  N_11 
REMARK    4  A    between atoms: C_12  and  N_11 
REMARK    5  A    between atoms: C_12  and  C_13 
REMARK    6  A    between atoms: C_12  and  C_18 
REMARK    7  A    between atoms: C_13  and  C_14 
REMARK    8  A    between atoms: C_14  and  C_15 
REMARK    9  A    between atoms: C_15  and  C_16 
REMARK   10  A    between atoms: C_16  and  N_17 
REMARK       I    between atoms: C_18  and  N_20 
REMARK   11  A    between atoms: N_20  and  C_21 
REMARK   12  A    between atoms: C_24  and  O_70 
REMARK   13  A    between atoms: C_25  and  C_27 
REMARK       I    between atoms: C_27  and  N_29 
REMARK   14  A    between atoms: C_30  and  N_29 
REMARK   15  A    between atoms: C_30  and  C_31 
REMARK   16  A    between atoms: C_30  and  C_36 
REMARK   17  A    between atoms: C_31  and  C_32 
REMARK   18  A    between atoms: C_32  and  C_33 
REMARK   19  A    between atoms: C_33  and  C_34 
REMARK   20  A    between atoms: C_34  and  N_35 
REMARK       I    between atoms: C_36  and  N_38 
REMARK   21  A    between atoms: N_38  and  C_39 
REMARK   22  A    between atoms: C_42  and  O_68 
REMARK   23  A    between atoms: C_43  and  C_45 
REMARK       I    between atoms: C_45  and  N_47 
REMARK   24  A    between atoms: C_48  and  N_47 
REMARK   25  A    between atoms: C_48  and  C_49 
REMARK   26  A    between atoms: C_48  and  C_54 
REMARK   27  A    between atoms: C_49  and  C_50 
REMARK   28  A    between atoms: C_50  and  C_51 
REMARK   29  A    between atoms: C_51  and  C_52 
REMARK   30  A    between atoms: C_52  and  N_53 
REMARK       I    between atoms: C_54  and  N_56 
REMARK   31  A    between atoms: N_56  and  C_57 
REMARK   32  A    between atoms: C_60  and  O_66 
REMARK   33  A    between atoms: C_61  and  C_63 
REMARK       I    between atoms: C_63  and  N_65 
REMARK       I    between atoms: N_72  and  C_73 
REMARK   34  A    between atoms: C_73  and  C_75 
REMARK   35  A    between atoms: C_75  and  C_76 
REMARK   36  A    between atoms: C_75  and  N_81 
REMARK   37  A    between atoms: C_76  and  C_77 
REMARK   38  A    between atoms: C_77  and  C_78 
REMARK   39  A    between atoms: C_78  and  C_79 
REMARK   40  A    between atoms: C_79  and  N_80 
ROOT
HETATM    1  C   UNK N   1      29.836  16.105   4.655  0.00  0.00     0.255 C 
HETATM    2  O   UNK N   1      29.700  17.242   4.178  0.00  0.00    -0.268 OA
HETATM    3  N   UNK N   1      28.905  15.621   5.483  0.00  0.00    -0.344 N 
HETATM    4  H   UNK N   1      29.115  14.929   6.151  0.00  0.00     0.163 HD
ENDROOT
BRANCH   3   5
HETATM    5  C   UNK N   1      27.601  16.156   5.352  0.00  0.00     0.177 C 
BRANCH   5   6
HETATM    6  C   UNK N   1      27.212  17.049   6.523  0.00  0.00     0.035 C 
BRANCH   6   7
HETATM    7  C   UNK N   1      26.738  18.422   6.051  0.00  0.00     0.004 C 
BRANCH   7   8
HETATM    8  C   UNK N   1      27.831  19.481   6.178  0.00  0.00     0.019 C 
BRANCH   8   9
HETATM    9  C   UNK N   1      27.836  20.410   4.981  0.00  0.00     0.111 C 
BRANCH   9  10
HETATM   10  N   UNK N   1      27.866  19.623   3.762  0.00  0.00    -0.430 N 
HETATM   11  H   UNK N   1      27.897  18.723   3.285  0.00  0.00     0.149 HD
HETATM   12  H   UNK N   1      27.846  20.312   3.010  0.00  0.00     0.149 HD
ENDBRANCH   9  10
ENDBRANCH   8   9
ENDBRANCH   7   8
ENDBRANCH   6   7
ENDBRANCH   5   6
BRANCH   5  13
HETATM   13  C   UNK N   1      26.829  14.910   5.019  0.00  0.00     0.241 C 
HETATM   14  O   UNK N   1      26.998  13.925   5.716  0.00  0.00    -0.271 OA
HETATM   15  N   UNK N   1      25.730  14.967   4.210  0.00  0.00    -0.348 N 
HETATM   16  H   UNK N   1      24.931  14.467   4.492  0.00  0.00     0.163 HD
BRANCH  15  17
HETATM   17  C   UNK N   1      25.652  15.700   2.980  0.00  0.00     0.132 C 
HETATM   18  C   UNK N   1      25.128  16.956   3.253  0.00  0.00     0.005 C 
HETATM   19  C   UNK N   1      23.824  16.929   3.770  0.00  0.00     0.036 C 
HETATM   20  C   UNK N   1      23.062  15.733   3.606  0.00  0.00     0.083 C 
HETATM   21  C   UNK N   1      23.536  14.752   2.638  0.00  0.00     0.063 C 
HETATM   22  C   UNK N   1      24.820  14.998   2.119  0.00  0.00     0.022 C 
BRANCH  20  23
HETATM   23  O   UNK N   1      21.974  15.527   4.382  0.00  0.00    -0.355 OA
HETATM   24  C   UNK N   1      20.711  15.963   4.041  0.00  0.00     0.210 C 
ENDBRANCH  20  23
BRANCH  21  25
HETATM   25  C   UNK N   1      22.946  13.409   2.265  0.00  0.00     0.254 C 
HETATM   26  O   UNK N   1      22.254  13.343   1.265  0.00  0.00    -0.268 OA
HETATM   27  N   UNK N   1      23.105  12.270   2.961  0.00  0.00    -0.344 N 
HETATM   28  H   UNK N   1      22.785  11.432   2.553  0.00  0.00     0.163 HD
BRANCH  27  29
HETATM   29  C   UNK N   1      23.704  12.196   4.242  0.00  0.00     0.177 C 
BRANCH  29  30
HETATM   30  C   UNK N   1      24.680  11.023   4.340  0.00  0.00     0.035 C 
BRANCH  30  31
HETATM   31  C   UNK N   1      25.484  10.768   3.068  0.00  0.00     0.004 C 
BRANCH  31  32
HETATM   32  C   UNK N   1      26.731  11.631   3.015  0.00  0.00     0.019 C 
BRANCH  32  33
HETATM   33  C   UNK N   1      27.899  10.857   3.582  0.00  0.00     0.111 C 
BRANCH  33  34
HETATM   34  N   UNK N   1      28.548  11.648   4.609  0.00  0.00    -0.430 N 
HETATM   35  H   UNK N   1      28.423  12.332   5.355  0.00  0.00     0.149 HD
HETATM   36  H   UNK N   1      29.543  11.428   4.570  0.00  0.00     0.149 HD
ENDBRANCH  33  34
ENDBRANCH  32  33
ENDBRANCH  31  32
ENDBRANCH  30  31
ENDBRANCH  29  30
BRANCH  29  37
HETATM   37  C   UNK N   1      22.668  12.172   5.315  0.00  0.00     0.245 C 
HETATM   38  O   UNK N   1      21.868  11.249   5.419  0.00  0.00    -0.271 OA
HETATM   39  N   UNK N   1      22.738  13.146   6.236  0.00  0.00    -0.325 N 
HETATM   40  H   UNK N   1      22.679  14.085   5.944  0.00  0.00     0.169 HD
BRANCH  39  41
HETATM   41  C   UNK N   1      22.890  12.870   7.596  0.00  0.00     0.035 A 
HETATM   42  C   UNK N   1      24.044  12.234   8.030  0.00  0.00     0.032 A 
HETATM   43  C   UNK N   1      24.121  11.768   9.337  0.00  0.00     0.040 A 
HETATM   44  C   UNK N   1      23.024  11.903  10.213  0.00  0.00     0.084 A 
HETATM   45  C   UNK N   1      21.836  12.522   9.752  0.00  0.00     0.067 A 
HETATM   46  C   UNK N   1      21.791  12.987   8.446  0.00  0.00     0.049 A 
BRANCH  44  47
HETATM   47  O   UNK N   1      23.106  11.447  11.483  0.00  0.00    -0.355 OA
HETATM   48  C   UNK N   1      23.831  12.087  12.463  0.00  0.00     0.210 C 
ENDBRANCH  44  47
BRANCH  45  49
HETATM   49  C   UNK N   1      20.624  12.704  10.590  0.00  0.00     0.252 C 
HETATM   50  O   UNK N   1      19.785  13.537  10.274  0.00  0.00    -0.268 OA
HETATM   51  N   UNK N   1      20.434  11.974  11.706  0.00  0.00    -0.366 N 
HETATM   52  H   UNK N   1      19.591  12.049  12.209  0.00  0.00     0.159 HD
HETATM   53  H   UNK N   1      21.140  11.363  12.019  0.00  0.00     0.159 HD
ENDBRANCH  45  49
ENDBRANCH  39  41
ENDBRANCH  29  37
ENDBRANCH  27  29
ENDBRANCH  21  25
ENDBRANCH  15  17
ENDBRANCH   5  13
ENDBRANCH   3   5
BRANCH   1  54
HETATM   54  C   UNK N   1      31.021  15.350   4.337  0.00  0.00     0.067 C 
HETATM   55  C   UNK N   1      31.073  14.140   3.620  0.00  0.00     0.084 C 
HETATM   56  C   UNK N   1      32.311  13.454   3.570  0.00  0.00     0.040 C 
HETATM   57  C   UNK N   1      33.384  13.896   4.371  0.00  0.00     0.032 C 
HETATM   58  C   UNK N   1      33.254  15.089   5.103  0.00  0.00     0.035 C 
HETATM   59  C   UNK N   1      32.113  15.808   4.951  0.00  0.00     0.049 C 
BRANCH  55  60
HETATM   60  O   UNK N   1      29.962  13.668   3.009  0.00  0.00    -0.355 OA
HETATM   61  C   UNK N   1      29.356  14.302   1.949  0.00  0.00     0.210 C 
ENDBRANCH  55  60
BRANCH  58  62
HETATM   62  N   UNK N   1      33.839  15.172   6.398  0.00  0.00    -0.325 N 
HETATM   63  C   UNK N   1      34.268  16.381   6.913  0.00  0.00     0.245 C 
HETATM   64  O   UNK N   1      34.554  17.327   6.188  0.00  0.00    -0.271 OA
HETATM   65  H   UNK N   1      33.939  14.353   6.937  0.00  0.00     0.169 HD
BRANCH  63  66
HETATM   66  C   UNK N   1      34.098  16.653   8.351  0.00  0.00     0.177 C 
BRANCH  66  67
HETATM   67  N   UNK N   1      34.920  15.710   9.109  0.00  0.00    -0.344 N 
HETATM   68  C   UNK N   1      35.538  15.968  10.295  0.00  0.00     0.255 C 
HETATM   69  O   UNK N   1      35.640  17.113  10.708  0.00  0.00    -0.268 OA
HETATM   70  H   UNK N   1      35.037  14.810   8.728  0.00  0.00     0.163 HD
BRANCH  68  71
HETATM   71  C   UNK N   1      36.086  14.853  11.101  0.00  0.00     0.067 A 
HETATM   72  C   UNK N   1      35.683  14.709  12.435  0.00  0.00     0.049 A 
HETATM   73  C   UNK N   1      36.248  13.717  13.248  0.00  0.00     0.035 A 
HETATM   74  C   UNK N   1      37.138  12.802  12.687  0.00  0.00     0.032 A 
HETATM   75  C   UNK N   1      37.531  12.916  11.361  0.00  0.00     0.040 A 
HETATM   76  C   UNK N   1      37.055  13.973  10.569  0.00  0.00     0.084 A 
BRANCH  73  77
HETATM   77  N   UNK N   1      36.204  13.756  14.668  0.00  0.00    -0.325 N 
HETATM   78  C   UNK N   1      35.929  12.794  15.594  0.00  0.00     0.244 C 
HETATM   79  O   UNK N   1      35.725  13.161  16.738  0.00  0.00    -0.271 OA
HETATM   80  H   UNK N   1      36.411  14.638  15.052  0.00  0.00     0.169 HD
BRANCH  78  81
HETATM   81  C   UNK N   1      35.838  11.309  15.334  0.00  0.00     0.167 C 
BRANCH  81  82
HETATM   82  C   UNK N   1      34.438  10.715  15.397  0.00  0.00     0.034 C 
BRANCH  82  83
HETATM   83  C   UNK N   1      33.766  10.828  14.024  0.00  0.00     0.004 C 
BRANCH  83  84
HETATM   84  C   UNK N   1      34.491  10.012  12.961  0.00  0.00     0.019 C 
BRANCH  84  85
HETATM   85  C   UNK N   1      33.682  10.002  11.677  0.00  0.00     0.111 C 
BRANCH  85  86
HETATM   86  N   UNK N   1      34.447   9.365  10.618  0.00  0.00    -0.430 N 
HETATM   87  H   UNK N   1      34.925   8.475  10.755  0.00  0.00     0.149 HD
HETATM   88  H   UNK N   1      34.507   9.824   9.709  0.00  0.00     0.149 HD
ENDBRANCH  85  86
ENDBRANCH  84  85
ENDBRANCH  83  84
ENDBRANCH  82  83
ENDBRANCH  81  82
BRANCH  81  89
HETATM   89  N   UNK N   1      36.896  10.467  15.866  0.00  0.00    -0.418 N 
HETATM   90  H   UNK N   1      37.109  10.313  16.852  0.00  0.00     0.150 HD
HETATM   91  H   UNK N   1      37.482   9.982  15.187  0.00  0.00     0.150 HD
ENDBRANCH  81  89
ENDBRANCH  78  81
ENDBRANCH  73  77
BRANCH  76  92
HETATM   92  O   UNK N   1      37.503  14.139   9.303  0.00  0.00    -0.355 OA
HETATM   93  C   UNK N   1      38.647  13.539   8.836  0.00  0.00     0.210 C 
ENDBRANCH  76  92
ENDBRANCH  68  71
ENDBRANCH  66  67
BRANCH  66  94
HETATM   94  C   UNK N   1      32.636  16.674   8.691  0.00  0.00     0.035 C 
BRANCH  94  95
HETATM   95  C   UNK N   1      32.052  18.006   8.301  0.00  0.00     0.004 C 
BRANCH  95  96
HETATM   96  C   UNK N   1      30.545  17.884   8.279  0.00  0.00     0.019 C 
BRANCH  96  97
HETATM   97  C   UNK N   1      29.940  18.689   9.418  0.00  0.00     0.111 C 
BRANCH  97  98
HETATM   98  N   UNK N   1      28.530  18.367   9.561  0.00  0.00    -0.430 N 
HETATM   99  H   UNK N   1      27.611  17.950   9.413  0.00  0.00     0.149 HD
HETATM  100  H   UNK N   1      28.305  18.976  10.349  0.00  0.00     0.149 HD
ENDBRANCH  97  98
ENDBRANCH  96  97
ENDBRANCH  95  96
ENDBRANCH  94  95
ENDBRANCH  66  94
ENDBRANCH  63  66
ENDBRANCH  58  62
ENDBRANCH   1  54
TORSDOF 40
ENDMDL
MODEL 4
REMARK VINA RESULT:      -7.4      2.655      7.002
REMARK WARNING: 32 MAX_TORS EXCEEDED!!!
REMARK  40 active torsions:
REMARK  status: ('A' for Active; 'I' for Inactive)
REMARK    1  A    between atoms: O_2  and  C_3 
REMARK    2  A    between atoms: C_6  and  N_72 
REMARK    3  A    between atoms: C_8  and  C_9 
REMARK       I    between atoms: C_9  and  N_11 
REMARK    4  A    between atoms: C_12  and  N_11 
REMARK    5  A    between atoms: C_12  and  C_13 
REMARK    6  A    between atoms: C_12  and  C_18 
REMARK    7  A    between atoms: C_13  and  C_14 
REMARK    8  A    between atoms: C_14  and  C_15 
REMARK    9  A    between atoms: C_15  and  C_16 
REMARK   10  A    between atoms: C_16  and  N_17 
REMARK       I    between atoms: C_18  and  N_20 
REMARK   11  A    between atoms: N_20  and  C_21 
REMARK   12  A    between atoms: C_24  and  O_70 
REMARK   13  A    between atoms: C_25  and  C_27 
REMARK       I    between atoms: C_27  and  N_29 
REMARK   14  A    between atoms: C_30  and  N_29 
REMARK   15  A    between atoms: C_30  and  C_31 
REMARK   16  A    between atoms: C_30  and  C_36 
REMARK   17  A    between atoms: C_31  and  C_32 
REMARK   18  A    between atoms: C_32  and  C_33 
REMARK   19  A    between atoms: C_33  and  C_34 
REMARK   20  A    between atoms: C_34  and  N_35 
REMARK       I    between atoms: C_36  and  N_38 
REMARK   21  A    between atoms: N_38  and  C_39 
REMARK   22  A    between atoms: C_42  and  O_68 
REMARK   23  A    between atoms: C_43  and  C_45 
REMARK       I    between atoms: C_45  and  N_47 
REMARK   24  A    between atoms: C_48  and  N_47 
REMARK   25  A    between atoms: C_48  and  C_49 
REMARK   26  A    between atoms: C_48  and  C_54 
REMARK   27  A    between atoms: C_49  and  C_50 
REMARK   28  A    between atoms: C_50  and  C_51 
REMARK   29  A    between atoms: C_51  and  C_52 
REMARK   30  A    between atoms: C_52  and  N_53 
REMARK       I    between atoms: C_54  and  N_56 
REMARK   31  A    between atoms: N_56  and  C_57 
REMARK   32  A    between atoms: C_60  and  O_66 
REMARK   33  A    between atoms: C_61  and  C_63 
REMARK       I    between atoms: C_63  and  N_65 
REMARK       I    between atoms: N_72  and  C_73 
REMARK   34  A    between atoms: C_73  and  C_75 
REMARK   35  A    between atoms: C_75  and  C_76 
REMARK   36  A    between atoms: C_75  and  N_81 
REMARK   37  A    between atoms: C_76  and  C_77 
REMARK   38  A    between atoms: C_77  and  C_78 
REMARK   39  A    between atoms: C_78  and  C_79 
REMARK   40  A    between atoms: C_79  and  N_80 
ROOT
HETATM    1  C   UNK N   1      26.159  14.857   2.474  0.00  0.00     0.255 C 
HETATM    2  O   UNK N   1      25.861  15.737   1.651  0.00  0.00    -0.268 OA
HETATM    3  N   UNK N   1      26.492  15.206   3.720  0.00  0.00    -0.344 N 
HETATM    4  H   UNK N   1      27.065  14.636   4.282  0.00  0.00     0.163 HD
ENDROOT
BRANCH   3   5
HETATM    5  C   UNK N   1      25.978  16.438   4.193  0.00  0.00     0.177 C 
BRANCH   5   6
HETATM    6  C   UNK N   1      27.035  17.287   4.886  0.00  0.00     0.035 C 
BRANCH   6   7
HETATM    7  C   UNK N   1      27.529  18.418   3.986  0.00  0.00     0.004 C 
BRANCH   7   8
HETATM    8  C   UNK N   1      27.641  19.742   4.738  0.00  0.00     0.019 C 
BRANCH   8   9
HETATM    9  C   UNK N   1      26.561  20.713   4.303  0.00  0.00     0.111 C 
BRANCH   9  10
HETATM   10  N   UNK N   1      25.941  20.227   3.084  0.00  0.00    -0.430 N 
HETATM   11  H   UNK N   1      25.194  19.727   2.604  0.00  0.00     0.149 HD
HETATM   12  H   UNK N   1      26.561  20.541   2.338  0.00  0.00     0.149 HD
ENDBRANCH   9  10
ENDBRANCH   8   9
ENDBRANCH   7   8
ENDBRANCH   6   7
ENDBRANCH   5   6
BRANCH   5  13
HETATM   13  C   UNK N   1      24.750  15.960   4.915  0.00  0.00     0.241 C 
HETATM   14  O   UNK N   1      23.689  16.506   4.669  0.00  0.00    -0.271 OA
HETATM   15  N   UNK N   1      24.740  14.746   5.542  0.00  0.00    -0.348 N 
HETATM   16  H   UNK N   1      23.953  14.171   5.409  0.00  0.00     0.163 HD
BRANCH  15  17
HETATM   17  C   UNK N   1      25.789  14.247   6.382  0.00  0.00     0.132 C 
HETATM   18  C   UNK N   1      26.285  13.081   5.815  0.00  0.00     0.005 C 
HETATM   19  C   UNK N   1      25.340  12.047   5.722  0.00  0.00     0.036 C 
HETATM   20  C   UNK N   1      24.160  12.142   6.519  0.00  0.00     0.083 C 
HETATM   21  C   UNK N   1      24.156  13.104   7.614  0.00  0.00     0.063 C 
HETATM   22  C   UNK N   1      25.247  13.991   7.634  0.00  0.00     0.022 C 
BRANCH  20  23
HETATM   23  O   UNK N   1      23.083  11.389   6.203  0.00  0.00    -0.355 OA
HETATM   24  C   UNK N   1      22.932  10.762   4.985  0.00  0.00     0.210 C 
ENDBRANCH  20  23
BRANCH  21  25
HETATM   25  C   UNK N   1      23.057  13.424   8.606  0.00  0.00     0.254 C 
HETATM   26  O   UNK N   1      23.046  12.822   9.665  0.00  0.00    -0.268 OA
HETATM   27  N   UNK N   1      22.069  14.313   8.410  0.00  0.00    -0.344 N 
HETATM   28  H   UNK N   1      21.489  14.533   9.175  0.00  0.00     0.163 HD
BRANCH  27  29
HETATM   29  C   UNK N   1      21.808  14.956   7.175  0.00  0.00     0.177 C 
BRANCH  29  30
HETATM   30  C   UNK N   1      21.137  16.315   7.378  0.00  0.00     0.035 C 
BRANCH  30  31
HETATM   31  C   UNK N   1      20.300  16.418   8.651  0.00  0.00     0.004 C 
BRANCH  31  32
HETATM   32  C   UNK N   1      19.480  17.694   8.676  0.00  0.00     0.019 C 
BRANCH  32  33
HETATM   33  C   UNK N   1      18.266  17.490   9.552  0.00  0.00     0.111 C 
BRANCH  33  34
HETATM   34  N   UNK N   1      17.065  17.601   8.747  0.00  0.00    -0.430 N 
HETATM   35  H   UNK N   1      16.066  17.405   8.687  0.00  0.00     0.149 HD
HETATM   36  H   UNK N   1      17.330  18.069   7.880  0.00  0.00     0.149 HD
ENDBRANCH  33  34
ENDBRANCH  32  33
ENDBRANCH  31  32
ENDBRANCH  30  31
ENDBRANCH  29  30
BRANCH  29  37
HETATM   37  C   UNK N   1      21.035  14.064   6.263  0.00  0.00     0.245 C 
HETATM   38  O   UNK N   1      19.961  13.576   6.596  0.00  0.00    -0.271 OA
HETATM   39  N   UNK N   1      21.510  13.928   5.015  0.00  0.00    -0.325 N 
HETATM   40  H   UNK N   1      22.421  13.577   4.887  0.00  0.00     0.169 HD
BRANCH  39  41
HETATM   41  C   UNK N   1      20.752  14.267   3.892  0.00  0.00     0.035 A 
HETATM   42  C   UNK N   1      20.392  13.271   2.995  0.00  0.00     0.032 A 
HETATM   43  C   UNK N   1      19.823  13.618   1.777  0.00  0.00     0.040 A 
HETATM   44  C   UNK N   1      19.642  14.973   1.428  0.00  0.00     0.084 A 
HETATM   45  C   UNK N   1      20.045  15.985   2.334  0.00  0.00     0.067 A 
HETATM   46  C   UNK N   1      20.602  15.609   3.548  0.00  0.00     0.049 A 
BRANCH  44  47
HETATM   47  O   UNK N   1      19.087  15.303   0.240  0.00  0.00    -0.355 OA
HETATM   48  C   UNK N   1      17.938  14.716  -0.238  0.00  0.00     0.210 C 
ENDBRANCH  44  47
BRANCH  45  49
HETATM   49  C   UNK N   1      19.908  17.437   2.060  0.00  0.00     0.252 C 
HETATM   50  O   UNK N   1      20.773  18.022   1.423  0.00  0.00    -0.268 OA
HETATM   51  N   UNK N   1      18.846  18.132   2.513  0.00  0.00    -0.366 N 
HETATM   52  H   UNK N   1      18.728  19.076   2.259  0.00  0.00     0.159 HD
HETATM   53  H   UNK N   1      18.187  17.695   3.100  0.00  0.00     0.159 HD
ENDBRANCH  45  49
ENDBRANCH  39  41
ENDBRANCH  29  37
ENDBRANCH  27  29
ENDBRANCH  21  25
ENDBRANCH  15  17
ENDBRANCH   5  13
ENDBRANCH   3   5
BRANCH   1  54
HETATM   54  C   UNK N   1      26.182  13.481   2.049  0.00  0.00     0.067 C 
HETATM   55  C   UNK N   1      25.062  12.673   1.777  0.00  0.00     0.084 C 
HETATM   56  C   UNK N   1      25.283  11.292   1.551  0.00  0.00     0.040 C 
HETATM   57  C   UNK N   1      26.563  10.746   1.781  0.00  0.00     0.032 C 
HETATM   58  C   UNK N   1      27.632  11.601   2.097  0.00  0.00     0.035 C 
HETATM   59  C   UNK N   1      27.399  12.939   2.100  0.00  0.00     0.049 C 
BRANCH  55  60
HETATM   60  O   UNK N   1      23.825  13.221   1.739  0.00  0.00    -0.355 OA
HETATM   61  C   UNK N   1      23.222  13.644   0.578  0.00  0.00     0.210 C 
ENDBRANCH  55  60
BRANCH  58  62
HETATM   62  N   UNK N   1      28.609  11.168   3.038  0.00  0.00    -0.325 N 
HETATM   63  C   UNK N   1      29.948  11.105   2.701  0.00  0.00     0.245 C 
HETATM   64  O   UNK N   1      30.317  11.009   1.536  0.00  0.00    -0.271 OA
HETATM   65  H   UNK N   1      28.325  10.908   3.945  0.00  0.00     0.169 HD
BRANCH  63  66
HETATM   66  C   UNK N   1      30.962  11.459   3.710  0.00  0.00     0.177 C 
BRANCH  66  67
HETATM   67  N   UNK N   1      31.064  12.916   3.782  0.00  0.00    -0.344 N 
HETATM   68  C   UNK N   1      31.458  13.633   4.872  0.00  0.00     0.255 C 
HETATM   69  O   UNK N   1      31.536  13.104   5.970  0.00  0.00    -0.268 OA
HETATM   70  H   UNK N   1      30.828  13.423   2.972  0.00  0.00     0.163 HD
BRANCH  68  71
HETATM   71  C   UNK N   1      31.805  15.065   4.727  0.00  0.00     0.067 A 
HETATM   72  C   UNK N   1      32.968  15.554   5.338  0.00  0.00     0.049 A 
HETATM   73  C   UNK N   1      33.278  16.920   5.292  0.00  0.00     0.035 A 
HETATM   74  C   UNK N   1      32.474  17.776   4.541  0.00  0.00     0.032 A 
HETATM   75  C   UNK N   1      31.330  17.305   3.911  0.00  0.00     0.040 A 
HETATM   76  C   UNK N   1      30.952  15.960   4.043  0.00  0.00     0.084 A 
BRANCH  73  77
HETATM   77  N   UNK N   1      34.182  17.542   6.194  0.00  0.00    -0.325 N 
HETATM   78  C   UNK N   1      34.112  17.769   7.538  0.00  0.00     0.244 C 
HETATM   79  O   UNK N   1      34.923  18.541   8.018  0.00  0.00    -0.271 OA
HETATM   80  H   UNK N   1      35.009  17.869   5.773  0.00  0.00     0.169 HD
BRANCH  78  81
HETATM   81  C   UNK N   1      33.110  17.162   8.491  0.00  0.00     0.167 C 
BRANCH  81  82
HETATM   82  C   UNK N   1      31.762  17.865   8.564  0.00  0.00     0.034 C 
BRANCH  82  83
HETATM   83  C   UNK N   1      30.660  16.923   8.067  0.00  0.00     0.004 C 
BRANCH  83  84
HETATM   84  C   UNK N   1      29.525  17.675   7.385  0.00  0.00     0.019 C 
BRANCH  84  85
HETATM   85  C   UNK N   1      28.997  18.759   8.307  0.00  0.00     0.111 C 
BRANCH  85  86
HETATM   86  N   UNK N   1      27.809  18.285   8.994  0.00  0.00    -0.430 N 
HETATM   87  H   UNK N   1      27.844  17.533   9.683  0.00  0.00     0.149 HD
HETATM   88  H   UNK N   1      26.910  18.717   8.780  0.00  0.00     0.149 HD
ENDBRANCH  85  86
ENDBRANCH  84  85
ENDBRANCH  83  84
ENDBRANCH  82  83
ENDBRANCH  81  82
BRANCH  81  89
HETATM   89  N   UNK N   1      33.611  16.644   9.753  0.00  0.00    -0.418 N 
HETATM   90  H   UNK N   1      34.135  17.166  10.455  0.00  0.00     0.150 HD
HETATM   91  H   UNK N   1      33.420  15.664   9.955  0.00  0.00     0.150 HD
ENDBRANCH  81  89
ENDBRANCH  78  81
ENDBRANCH  73  77
BRANCH  76  92
HETATM   92  O   UNK N   1      29.793  15.516   3.504  0.00  0.00    -0.355 OA
HETATM   93  C   UNK N   1      29.413  15.808   2.217  0.00  0.00     0.210 C 
ENDBRANCH  76  92
ENDBRANCH  68  71
ENDBRANCH  66  67
BRANCH  66  94
HETATM   94  C   UNK N   1      32.238  10.722   3.422  0.00  0.00     0.035 C 
BRANCH  94  95
HETATM   95  C   UNK N   1      32.693  10.008   4.667  0.00  0.00     0.004 C 
BRANCH  95  96
HETATM   96  C   UNK N   1      34.011  10.603   5.109  0.00  0.00     0.019 C 
BRANCH  96  97
HETATM   97  C   UNK N   1      34.055  10.702   6.626  0.00  0.00     0.111 C 
BRANCH  97  98
HETATM   98  N   UNK N   1      32.710  10.629   7.170  0.00  0.00    -0.430 N 
HETATM   99  H   UNK N   1      31.723  10.399   7.288  0.00  0.00     0.149 HD
HETATM  100  H   UNK N   1      32.842  11.200   8.005  0.00  0.00     0.149 HD
ENDBRANCH  97  98
ENDBRANCH  96  97
ENDBRANCH  95  96
ENDBRANCH  94  95
ENDBRANCH  66  94
ENDBRANCH  63  66
ENDBRANCH  58  62
ENDBRANCH   1  54
TORSDOF 40
ENDMDL
MODEL 5
REMARK VINA RESULT:      -7.4      2.441      4.610
REMARK WARNING: 32 MAX_TORS EXCEEDED!!!
REMARK  40 active torsions:
REMARK  status: ('A' for Active; 'I' for Inactive)
REMARK    1  A    between atoms: O_2  and  C_3 
REMARK    2  A    between atoms: C_6  and  N_72 
REMARK    3  A    between atoms: C_8  and  C_9 
REMARK       I    between atoms: C_9  and  N_11 
REMARK    4  A    between atoms: C_12  and  N_11 
REMARK    5  A    between atoms: C_12  and  C_13 
REMARK    6  A    between atoms: C_12  and  C_18 
REMARK    7  A    between atoms: C_13  and  C_14 
REMARK    8  A    between atoms: C_14  and  C_15 
REMARK    9  A    between atoms: C_15  and  C_16 
REMARK   10  A    between atoms: C_16  and  N_17 
REMARK       I    between atoms: C_18  and  N_20 
REMARK   11  A    between atoms: N_20  and  C_21 
REMARK   12  A    between atoms: C_24  and  O_70 
REMARK   13  A    between atoms: C_25  and  C_27 
REMARK       I    between atoms: C_27  and  N_29 
REMARK   14  A    between atoms: C_30  and  N_29 
REMARK   15  A    between atoms: C_30  and  C_31 
REMARK   16  A    between atoms: C_30  and  C_36 
REMARK   17  A    between atoms: C_31  and  C_32 
REMARK   18  A    between atoms: C_32  and  C_33 
REMARK   19  A    between atoms: C_33  and  C_34 
REMARK   20  A    between atoms: C_34  and  N_35 
REMARK       I    between atoms: C_36  and  N_38 
REMARK   21  A    between atoms: N_38  and  C_39 
REMARK   22  A    between atoms: C_42  and  O_68 
REMARK   23  A    between atoms: C_43  and  C_45 
REMARK       I    between atoms: C_45  and  N_47 
REMARK   24  A    between atoms: C_48  and  N_47 
REMARK   25  A    between atoms: C_48  and  C_49 
REMARK   26  A    between atoms: C_48  and  C_54 
REMARK   27  A    between atoms: C_49  and  C_50 
REMARK   28  A    between atoms: C_50  and  C_51 
REMARK   29  A    between atoms: C_51  and  C_52 
REMARK   30  A    between atoms: C_52  and  N_53 
REMARK       I    between atoms: C_54  and  N_56 
REMARK   31  A    between atoms: N_56  and  C_57 
REMARK   32  A    between atoms: C_60  and  O_66 
REMARK   33  A    between atoms: C_61  and  C_63 
REMARK       I    between atoms: C_63  and  N_65 
REMARK       I    between atoms: N_72  and  C_73 
REMARK   34  A    between atoms: C_73  and  C_75 
REMARK   35  A    between atoms: C_75  and  C_76 
REMARK   36  A    between atoms: C_75  and  N_81 
REMARK   37  A    between atoms: C_76  and  C_77 
REMARK   38  A    between atoms: C_77  and  C_78 
REMARK   39  A    between atoms: C_78  and  C_79 
REMARK   40  A    between atoms: C_79  and  N_80 
ROOT
HETATM    1  C   UNK N   1      22.086  18.153   5.136  0.00  0.00     0.255 C 
HETATM    2  O   UNK N   1      20.908  18.537   5.200  0.00  0.00    -0.268 OA
HETATM    3  N   UNK N   1      22.429  16.982   5.681  0.00  0.00    -0.344 N 
HETATM    4  H   UNK N   1      23.348  16.799   5.981  0.00  0.00     0.163 HD
ENDROOT
BRANCH   3   5
HETATM    5  C   UNK N   1      21.400  16.016   5.805  0.00  0.00     0.177 C 
BRANCH   5   6
HETATM    6  C   UNK N   1      21.059  15.705   7.256  0.00  0.00     0.035 C 
BRANCH   6   7
HETATM    7  C   UNK N   1      19.589  15.985   7.561  0.00  0.00     0.004 C 
BRANCH   7   8
HETATM    8  C   UNK N   1      19.419  17.103   8.587  0.00  0.00     0.019 C 
BRANCH   8   9
HETATM    9  C   UNK N   1      18.207  16.862   9.466  0.00  0.00     0.111 C 
BRANCH   9  10
HETATM   10  N   UNK N   1      17.118  17.714   9.025  0.00  0.00    -0.430 N 
HETATM   11  H   UNK N   1      16.365  17.930   8.372  0.00  0.00     0.149 HD
HETATM   12  H   UNK N   1      17.093  18.473   9.705  0.00  0.00     0.149 HD
ENDBRANCH   9  10
ENDBRANCH   8   9
ENDBRANCH   7   8
ENDBRANCH   6   7
ENDBRANCH   5   6
BRANCH   5  13
HETATM   13  C   UNK N   1      21.910  14.956   4.869  0.00  0.00     0.241 C 
HETATM   14  O   UNK N   1      22.616  15.302   3.939  0.00  0.00    -0.271 OA
HETATM   15  N   UNK N   1      21.894  13.639   5.233  0.00  0.00    -0.348 N 
HETATM   16  H   UNK N   1      22.701  13.107   5.052  0.00  0.00     0.163 HD
BRANCH  15  17
HETATM   17  C   UNK N   1      20.789  12.974   5.859  0.00  0.00     0.132 C 
HETATM   18  C   UNK N   1      21.264  12.282   6.964  0.00  0.00     0.005 C 
HETATM   19  C   UNK N   1      22.193  11.278   6.652  0.00  0.00     0.036 C 
HETATM   20  C   UNK N   1      22.259  10.823   5.300  0.00  0.00     0.083 C 
HETATM   21  C   UNK N   1      21.156  11.167   4.412  0.00  0.00     0.063 C 
HETATM   22  C   UNK N   1      20.240  12.098   4.932  0.00  0.00     0.022 C 
BRANCH  20  23
HETATM   23  O   UNK N   1      23.352  10.147   4.881  0.00  0.00    -0.355 OA
HETATM   24  C   UNK N   1      24.163   9.424   5.729  0.00  0.00     0.210 C 
ENDBRANCH  20  23
BRANCH  21  25
HETATM   25  C   UNK N   1      20.963  10.833   2.948  0.00  0.00     0.254 C 
HETATM   26  O   UNK N   1      20.229   9.904   2.663  0.00  0.00    -0.268 OA
HETATM   27  N   UNK N   1      21.554  11.469   1.922  0.00  0.00    -0.344 N 
HETATM   28  H   UNK N   1      21.252  11.251   1.010  0.00  0.00     0.163 HD
BRANCH  27  29
HETATM   29  C   UNK N   1      22.581  12.433   2.066  0.00  0.00     0.177 C 
BRANCH  29  30
HETATM   30  C   UNK N   1      22.300  13.685   1.236  0.00  0.00     0.035 C 
BRANCH  30  31
HETATM   31  C   UNK N   1      20.832  13.870   0.857  0.00  0.00     0.004 C 
BRANCH  31  32
HETATM   32  C   UNK N   1      20.465  15.338   0.751  0.00  0.00     0.019 C 
BRANCH  32  33
HETATM   33  C   UNK N   1      19.835  15.790   2.048  0.00  0.00     0.111 C 
BRANCH  33  34
HETATM   34  N   UNK N   1      20.355  17.096   2.407  0.00  0.00    -0.430 N 
HETATM   35  H   UNK N   1      20.935  17.626   3.057  0.00  0.00     0.149 HD
HETATM   36  H   UNK N   1      19.987  17.760   1.726  0.00  0.00     0.149 HD
ENDBRANCH  33  34
ENDBRANCH  32  33
ENDBRANCH  31  32
ENDBRANCH  30  31
ENDBRANCH  29  30
BRANCH  29  37
HETATM   37  C   UNK N   1      23.917  11.837   1.773  0.00  0.00     0.245 C 
HETATM   38  O   UNK N   1      24.296  11.639   0.623  0.00  0.00    -0.271 OA
HETATM   39  N   UNK N   1      24.733  11.648   2.822  0.00  0.00    -0.325 N 
HETATM   40  H   UNK N   1      24.432  11.072   3.562  0.00  0.00     0.169 HD
BRANCH  39  41
HETATM   41  C   UNK N   1      25.994  12.243   2.897  0.00  0.00     0.035 A 
HETATM   42  C   UNK N   1      27.064  11.498   3.372  0.00  0.00     0.032 A 
HETATM   43  C   UNK N   1      28.270  12.129   3.648  0.00  0.00     0.040 A 
HETATM   44  C   UNK N   1      28.405  13.524   3.486  0.00  0.00     0.084 A 
HETATM   45  C   UNK N   1      27.298  14.282   3.034  0.00  0.00     0.067 A 
HETATM   46  C   UNK N   1      26.108  13.625   2.756  0.00  0.00     0.049 A 
BRANCH  44  47
HETATM   47  O   UNK N   1      29.582  14.130   3.756  0.00  0.00    -0.355 OA
HETATM   48  C   UNK N   1      30.145  14.147   5.012  0.00  0.00     0.210 C 
ENDBRANCH  44  47
BRANCH  45  49
HETATM   49  C   UNK N   1      27.332  15.754   2.839  0.00  0.00     0.252 C 
HETATM   50  O   UNK N   1      26.288  16.373   2.690  0.00  0.00    -0.268 OA
HETATM   51  N   UNK N   1      28.500  16.424   2.812  0.00  0.00    -0.366 N 
HETATM   52  H   UNK N   1      28.505  17.407   2.759  0.00  0.00     0.159 HD
HETATM   53  H   UNK N   1      29.351  15.929   2.843  0.00  0.00     0.159 HD
ENDBRANCH  45  49
ENDBRANCH  39  41
ENDBRANCH  29  37
ENDBRANCH  27  29
ENDBRANCH  21  25
ENDBRANCH  15  17
ENDBRANCH   5  13
ENDBRANCH   3   5
BRANCH   1  54
HETATM   54  C   UNK N   1      23.067  19.005   4.513  0.00  0.00     0.067 C 
HETATM   55  C   UNK N   1      22.942  19.650   3.269  0.00  0.00     0.084 C 
HETATM   56  C   UNK N   1      24.088  20.295   2.741  0.00  0.00     0.040 C 
HETATM   57  C   UNK N   1      25.337  20.121   3.372  0.00  0.00     0.032 C 
HETATM   58  C   UNK N   1      25.403  19.424   4.591  0.00  0.00     0.035 C 
HETATM   59  C   UNK N   1      24.240  19.003   5.149  0.00  0.00     0.049 C 
BRANCH  55  60
HETATM   60  O   UNK N   1      21.756  19.640   2.618  0.00  0.00    -0.355 OA
HETATM   61  C   UNK N   1      21.223  20.747   2.001  0.00  0.00     0.210 C 
ENDBRANCH  55  60
BRANCH  58  62
HETATM   62  N   UNK N   1      26.521  18.579   4.843  0.00  0.00    -0.325 N 
HETATM   63  C   UNK N   1      27.363  18.808   5.915  0.00  0.00     0.245 C 
HETATM   64  O   UNK N   1      27.461  19.914   6.435  0.00  0.00    -0.271 OA
HETATM   65  H   UNK N   1      26.697  17.818   4.243  0.00  0.00     0.169 HD
BRANCH  63  66
HETATM   66  C   UNK N   1      27.928  17.660   6.646  0.00  0.00     0.177 C 
BRANCH  66  67
HETATM   67  N   UNK N   1      29.387  17.743   6.598  0.00  0.00    -0.344 N 
HETATM   68  C   UNK N   1      30.236  17.438   7.619  0.00  0.00     0.255 C 
HETATM   69  O   UNK N   1      29.814  17.288   8.756  0.00  0.00    -0.268 OA
HETATM   70  H   UNK N   1      29.792  18.047   5.753  0.00  0.00     0.163 HD
BRANCH  68  71
HETATM   71  C   UNK N   1      31.684  17.278   7.353  0.00  0.00     0.067 A 
HETATM   72  C   UNK N   1      32.571  17.166   8.432  0.00  0.00     0.049 A 
HETATM   73  C   UNK N   1      33.954  17.100   8.216  0.00  0.00     0.035 A 
HETATM   74  C   UNK N   1      34.436  17.037   6.909  0.00  0.00     0.032 A 
HETATM   75  C   UNK N   1      33.570  17.124   5.828  0.00  0.00     0.040 A 
HETATM   76  C   UNK N   1      32.193  17.301   6.036  0.00  0.00     0.084 A 
BRANCH  73  77
HETATM   77  N   UNK N   1      34.913  17.388   9.223  0.00  0.00    -0.325 N 
HETATM   78  C   UNK N   1      35.319  16.683  10.318  0.00  0.00     0.244 C 
HETATM   79  O   UNK N   1      35.986  17.274  11.149  0.00  0.00    -0.271 OA
HETATM   80  H   UNK N   1      35.368  18.253   9.110  0.00  0.00     0.169 HD
BRANCH  78  81
HETATM   81  C   UNK N   1      35.006  15.235  10.609  0.00  0.00     0.167 C 
BRANCH  81  82
HETATM   82  C   UNK N   1      35.639  14.221   9.666  0.00  0.00     0.034 C 
BRANCH  82  83
HETATM   83  C   UNK N   1      34.542  13.403   8.976  0.00  0.00     0.004 C 
BRANCH  83  84
HETATM   84  C   UNK N   1      34.743  13.331   7.468  0.00  0.00     0.019 C 
BRANCH  84  85
HETATM   85  C   UNK N   1      33.415  13.525   6.759  0.00  0.00     0.111 C 
BRANCH  85  86
HETATM   86  N   UNK N   1      32.345  13.622   7.737  0.00  0.00    -0.430 N 
HETATM   87  H   UNK N   1      31.422  13.983   7.498  0.00  0.00     0.149 HD
HETATM   88  H   UNK N   1      32.525  13.321   8.696  0.00  0.00     0.149 HD
ENDBRANCH  85  86
ENDBRANCH  84  85
ENDBRANCH  83  84
ENDBRANCH  82  83
ENDBRANCH  81  82
BRANCH  81  89
HETATM   89  N   UNK N   1      33.660  14.915  11.055  0.00  0.00    -0.418 N 
HETATM   90  H   UNK N   1      32.869  14.668  10.460  0.00  0.00     0.150 HD
HETATM   91  H   UNK N   1      33.490  14.940  12.060  0.00  0.00     0.150 HD
ENDBRANCH  81  89
ENDBRANCH  78  81
ENDBRANCH  73  77
BRANCH  76  92
HETATM   92  O   UNK N   1      31.357  17.474   4.986  0.00  0.00    -0.355 OA
HETATM   93  C   UNK N   1      31.756  17.301   3.683  0.00  0.00     0.210 C 
ENDBRANCH  76  92
ENDBRANCH  68  71
ENDBRANCH  66  67
BRANCH  66  94
HETATM   94  C   UNK N   1      27.323  16.386   6.130  0.00  0.00     0.035 C 
BRANCH  94  95
HETATM   95  C   UNK N   1      26.445  15.783   7.194  0.00  0.00     0.004 C 
BRANCH  95  96
HETATM   96  C   UNK N   1      25.253  15.137   6.525  0.00  0.00     0.019 C 
BRANCH  96  97
HETATM   97  C   UNK N   1      24.962  13.790   7.169  0.00  0.00     0.111 C 
BRANCH  97  98
HETATM   98  N   UNK N   1      25.510  12.719   6.354  0.00  0.00    -0.430 N 
HETATM   99  H   UNK N   1      26.165  12.134   5.835  0.00  0.00     0.149 HD
HETATM  100  H   UNK N   1      24.653  12.193   6.182  0.00  0.00     0.149 HD
ENDBRANCH  97  98
ENDBRANCH  96  97
ENDBRANCH  95  96
ENDBRANCH  94  95
ENDBRANCH  66  94
ENDBRANCH  63  66
ENDBRANCH  58  62
ENDBRANCH   1  54
TORSDOF 40
ENDMDL
MODEL 6
REMARK VINA RESULT:      -7.3      2.478      5.632
REMARK WARNING: 32 MAX_TORS EXCEEDED!!!
REMARK  40 active torsions:
REMARK  status: ('A' for Active; 'I' for Inactive)
REMARK    1  A    between atoms: O_2  and  C_3 
REMARK    2  A    between atoms: C_6  and  N_72 
REMARK    3  A    between atoms: C_8  and  C_9 
REMARK       I    between atoms: C_9  and  N_11 
REMARK    4  A    between atoms: C_12  and  N_11 
REMARK    5  A    between atoms: C_12  and  C_13 
REMARK    6  A    between atoms: C_12  and  C_18 
REMARK    7  A    between atoms: C_13  and  C_14 
REMARK    8  A    between atoms: C_14  and  C_15 
REMARK    9  A    between atoms: C_15  and  C_16 
REMARK   10  A    between atoms: C_16  and  N_17 
REMARK       I    between atoms: C_18  and  N_20 
REMARK   11  A    between atoms: N_20  and  C_21 
REMARK   12  A    between atoms: C_24  and  O_70 
REMARK   13  A    between atoms: C_25  and  C_27 
REMARK       I    between atoms: C_27  and  N_29 
REMARK   14  A    between atoms: C_30  and  N_29 
REMARK   15  A    between atoms: C_30  and  C_31 
REMARK   16  A    between atoms: C_30  and  C_36 
REMARK   17  A    between atoms: C_31  and  C_32 
REMARK   18  A    between atoms: C_32  and  C_33 
REMARK   19  A    between atoms: C_33  and  C_34 
REMARK   20  A    between atoms: C_34  and  N_35 
REMARK       I    between atoms: C_36  and  N_38 
REMARK   21  A    between atoms: N_38  and  C_39 
REMARK   22  A    between atoms: C_42  and  O_68 
REMARK   23  A    between atoms: C_43  and  C_45 
REMARK       I    between atoms: C_45  and  N_47 
REMARK   24  A    between atoms: C_48  and  N_47 
REMARK   25  A    between atoms: C_48  and  C_49 
REMARK   26  A    between atoms: C_48  and  C_54 
REMARK   27  A    between atoms: C_49  and  C_50 
REMARK   28  A    between atoms: C_50  and  C_51 
REMARK   29  A    between atoms: C_51  and  C_52 
REMARK   30  A    between atoms: C_52  and  N_53 
REMARK       I    between atoms: C_54  and  N_56 
REMARK   31  A    between atoms: N_56  and  C_57 
REMARK   32  A    between atoms: C_60  and  O_66 
REMARK   33  A    between atoms: C_61  and  C_63 
REMARK       I    between atoms: C_63  and  N_65 
REMARK       I    between atoms: N_72  and  C_73 
REMARK   34  A    between atoms: C_73  and  C_75 
REMARK   35  A    between atoms: C_75  and  C_76 
REMARK   36  A    between atoms: C_75  and  N_81 
REMARK   37  A    between atoms: C_76  and  C_77 
REMARK   38  A    between atoms: C_77  and  C_78 
REMARK   39  A    between atoms: C_78  and  C_79 
REMARK   40  A    between atoms: C_79  and  N_80 
ROOT
HETATM    1  C   UNK N   1      21.374  15.843   7.219  0.00  0.00     0.255 C 
HETATM    2  O   UNK N   1      21.713  17.035   7.159  0.00  0.00    -0.268 OA
HETATM    3  N   UNK N   1      20.076  15.527   7.251  0.00  0.00    -0.344 N 
HETATM    4  H   UNK N   1      19.757  14.686   7.652  0.00  0.00     0.163 HD
ENDROOT
BRANCH   3   5
HETATM    5  C   UNK N   1      19.181  16.464   6.679  0.00  0.00     0.177 C 
BRANCH   5   6
HETATM    6  C   UNK N   1      18.026  16.815   7.607  0.00  0.00     0.035 C 
BRANCH   6   7
HETATM    7  C   UNK N   1      18.523  17.380   8.936  0.00  0.00     0.004 C 
BRANCH   7   8
HETATM    8  C   UNK N   1      17.372  17.728   9.877  0.00  0.00     0.019 C 
BRANCH   8   9
HETATM    9  C   UNK N   1      17.811  18.718  10.938  0.00  0.00     0.111 C 
BRANCH   9  10
HETATM   10  N   UNK N   1      18.946  19.477  10.446  0.00  0.00    -0.430 N 
HETATM   11  H   UNK N   1      19.337  20.215   9.861  0.00  0.00     0.149 HD
HETATM   12  H   UNK N   1      19.752  19.070  10.919  0.00  0.00     0.149 HD
ENDBRANCH   9  10
ENDBRANCH   8   9
ENDBRANCH   7   8
ENDBRANCH   6   7
ENDBRANCH   5   6
BRANCH   5  13
HETATM   13  C   UNK N   1      18.951  15.833   5.335  0.00  0.00     0.241 C 
HETATM   14  O   UNK N   1      18.275  14.821   5.283  0.00  0.00    -0.271 OA
HETATM   15  N   UNK N   1      19.174  16.539   4.187  0.00  0.00    -0.348 N 
HETATM   16  H   UNK N   1      18.494  16.483   3.478  0.00  0.00     0.163 HD
BRANCH  15  17
HETATM   17  C   UNK N   1      20.325  17.357   3.936  0.00  0.00     0.132 C 
HETATM   18  C   UNK N   1      20.096  18.091   2.780  0.00  0.00     0.005 C 
HETATM   19  C   UNK N   1      19.923  17.304   1.631  0.00  0.00     0.036 C 
HETATM   20  C   UNK N   1      20.362  15.946   1.675  0.00  0.00     0.083 C 
HETATM   21  C   UNK N   1      21.254  15.556   2.760  0.00  0.00     0.063 C 
HETATM   22  C   UNK N   1      21.417  16.516   3.774  0.00  0.00     0.022 C 
BRANCH  20  23
HETATM   23  O   UNK N   1      19.899  15.069   0.758  0.00  0.00    -0.355 OA
HETATM   24  C   UNK N   1      18.906  14.152   1.026  0.00  0.00     0.210 C 
ENDBRANCH  20  23
BRANCH  21  25
HETATM   25  C   UNK N   1      21.863  14.203   3.060  0.00  0.00     0.254 C 
HETATM   26  O   UNK N   1      21.399  13.555   3.982  0.00  0.00    -0.268 OA
HETATM   27  N   UNK N   1      22.897  13.653   2.401  0.00  0.00    -0.344 N 
HETATM   28  H   UNK N   1      23.122  12.714   2.598  0.00  0.00     0.163 HD
BRANCH  27  29
HETATM   29  C   UNK N   1      23.685  14.335   1.442  0.00  0.00     0.177 C 
BRANCH  29  30
HETATM   30  C   UNK N   1      23.734  13.579   0.113  0.00  0.00     0.035 C 
BRANCH  30  31
HETATM   31  C   UNK N   1      22.932  12.280   0.101  0.00  0.00     0.004 C 
BRANCH  31  32
HETATM   32  C   UNK N   1      23.841  11.065   0.102  0.00  0.00     0.019 C 
BRANCH  32  33
HETATM   33  C   UNK N   1      23.271  10.016   1.029  0.00  0.00     0.111 C 
BRANCH  33  34
HETATM   34  N   UNK N   1      21.950  10.424   1.466  0.00  0.00    -0.430 N 
HETATM   35  H   UNK N   1      21.406  11.115   1.983  0.00  0.00     0.149 HD
HETATM   36  H   UNK N   1      21.291   9.733   1.107  0.00  0.00     0.149 HD
ENDBRANCH  33  34
ENDBRANCH  32  33
ENDBRANCH  31  32
ENDBRANCH  30  31
ENDBRANCH  29  30
BRANCH  29  37
HETATM   37  C   UNK N   1      25.041  14.637   1.982  0.00  0.00     0.245 C 
HETATM   38  O   UNK N   1      25.206  15.423   2.909  0.00  0.00    -0.271 OA
HETATM   39  N   UNK N   1      26.058  13.909   1.491  0.00  0.00    -0.325 N 
HETATM   40  H   UNK N   1      26.235  13.931   0.523  0.00  0.00     0.169 HD
BRANCH  39  41
HETATM   41  C   UNK N   1      26.870  13.123   2.310  0.00  0.00     0.035 A 
HETATM   42  C   UNK N   1      28.195  13.489   2.498  0.00  0.00     0.032 A 
HETATM   43  C   UNK N   1      29.065  12.613   3.135  0.00  0.00     0.040 A 
HETATM   44  C   UNK N   1      28.623  11.342   3.557  0.00  0.00     0.084 A 
HETATM   45  C   UNK N   1      27.278  10.961   3.330  0.00  0.00     0.067 A 
HETATM   46  C   UNK N   1      26.429  11.859   2.701  0.00  0.00     0.049 A 
BRANCH  44  47
HETATM   47  O   UNK N   1      29.476  10.495   4.176  0.00  0.00    -0.355 OA
HETATM   48  C   UNK N   1      30.566   9.937   3.547  0.00  0.00     0.210 C 
ENDBRANCH  44  47
BRANCH  45  49
HETATM   49  C   UNK N   1      26.717   9.645   3.726  0.00  0.00     0.252 C 
HETATM   50  O   UNK N   1      26.028   9.014   2.937  0.00  0.00    -0.268 OA
HETATM   51  N   UNK N   1      26.943   9.134   4.952  0.00  0.00    -0.366 N 
HETATM   52  H   UNK N   1      26.631   8.227   5.175  0.00  0.00     0.159 HD
HETATM   53  H   UNK N   1      27.422   9.668   5.626  0.00  0.00     0.159 HD
ENDBRANCH  45  49
ENDBRANCH  39  41
ENDBRANCH  29  37
ENDBRANCH  27  29
ENDBRANCH  21  25
ENDBRANCH  15  17
ENDBRANCH   5  13
ENDBRANCH   3   5
BRANCH   1  54
HETATM   54  C   UNK N   1      22.394  14.829   7.299  0.00  0.00     0.067 C 
HETATM   55  C   UNK N   1      22.424  13.745   8.196  0.00  0.00     0.084 C 
HETATM   56  C   UNK N   1      23.602  12.960   8.245  0.00  0.00     0.040 C 
HETATM   57  C   UNK N   1      24.751  13.385   7.545  0.00  0.00     0.032 C 
HETATM   58  C   UNK N   1      24.669  14.505   6.700  0.00  0.00     0.035 C 
HETATM   59  C   UNK N   1      23.457  15.095   6.540  0.00  0.00     0.049 C 
BRANCH  55  60
HETATM   60  O   UNK N   1      21.350  13.483   8.976  0.00  0.00    -0.355 OA
HETATM   61  C   UNK N   1      21.435  12.828  10.183  0.00  0.00     0.210 C 
ENDBRANCH  55  60
BRANCH  58  62
HETATM   62  N   UNK N   1      25.777  15.396   6.626  0.00  0.00    -0.325 N 
HETATM   63  C   UNK N   1      26.926  15.054   5.939  0.00  0.00     0.245 C 
HETATM   64  O   UNK N   1      27.226  13.885   5.724  0.00  0.00    -0.271 OA
HETATM   65  H   UNK N   1      25.723  16.273   7.073  0.00  0.00     0.169 HD
BRANCH  63  66
HETATM   66  C   UNK N   1      27.653  16.092   5.187  0.00  0.00     0.177 C 
BRANCH  66  67
HETATM   67  N   UNK N   1      29.085  15.804   5.252  0.00  0.00    -0.344 N 
HETATM   68  C   UNK N   1      30.026  16.247   4.372  0.00  0.00     0.255 C 
HETATM   69  O   UNK N   1      29.697  16.742   3.305  0.00  0.00    -0.268 OA
HETATM   70  H   UNK N   1      29.396  15.240   5.996  0.00  0.00     0.163 HD
BRANCH  68  71
HETATM   71  C   UNK N   1      31.464  16.138   4.712  0.00  0.00     0.067 A 
HETATM   72  C   UNK N   1      31.993  16.949   5.725  0.00  0.00     0.049 A 
HETATM   73  C   UNK N   1      33.364  16.932   6.010  0.00  0.00     0.035 A 
HETATM   74  C   UNK N   1      34.185  16.020   5.350  0.00  0.00     0.032 A 
HETATM   75  C   UNK N   1      33.675  15.193   4.359  0.00  0.00     0.040 A 
HETATM   76  C   UNK N   1      32.324  15.281   3.989  0.00  0.00     0.084 A 
BRANCH  73  77
HETATM   77  N   UNK N   1      34.026  17.976   6.711  0.00  0.00    -0.325 N 
HETATM   78  C   UNK N   1      34.432  18.083   8.009  0.00  0.00     0.244 C 
HETATM   79  O   UNK N   1      34.760  19.188   8.403  0.00  0.00    -0.271 OA
HETATM   80  H   UNK N   1      34.229  18.765   6.159  0.00  0.00     0.169 HD
BRANCH  78  81
HETATM   81  C   UNK N   1      34.499  16.958   9.015  0.00  0.00     0.167 C 
BRANCH  81  82
HETATM   82  C   UNK N   1      33.292  16.031   9.048  0.00  0.00     0.034 C 
BRANCH  82  83
HETATM   83  C   UNK N   1      33.530  14.910  10.065  0.00  0.00     0.004 C 
BRANCH  83  84
HETATM   84  C   UNK N   1      33.599  13.540   9.404  0.00  0.00     0.019 C 
BRANCH  84  85
HETATM   85  C   UNK N   1      33.760  13.699   7.902  0.00  0.00     0.111 C 
BRANCH  85  86
HETATM   86  N   UNK N   1      32.679  13.015   7.216  0.00  0.00    -0.430 N 
HETATM   87  H   UNK N   1      32.585  11.999   7.228  0.00  0.00     0.149 HD
HETATM   88  H   UNK N   1      31.990  13.568   6.705  0.00  0.00     0.149 HD
ENDBRANCH  85  86
ENDBRANCH  84  85
ENDBRANCH  83  84
ENDBRANCH  82  83
ENDBRANCH  81  82
BRANCH  81  89
HETATM   89  N   UNK N   1      35.097  17.248  10.308  0.00  0.00    -0.418 N 
HETATM   90  H   UNK N   1      35.233  18.172  10.718  0.00  0.00     0.150 HD
HETATM   91  H   UNK N   1      35.411  16.449  10.858  0.00  0.00     0.150 HD
ENDBRANCH  81  89
ENDBRANCH  78  81
ENDBRANCH  73  77
BRANCH  76  92
HETATM   92  O   UNK N   1      31.841  14.540   2.965  0.00  0.00    -0.355 OA
HETATM   93  C   UNK N   1      32.554  13.515   2.391  0.00  0.00     0.210 C 
ENDBRANCH  76  92
ENDBRANCH  68  71
ENDBRANCH  66  67
BRANCH  66  94
HETATM   94  C   UNK N   1      27.231  17.451   5.666  0.00  0.00     0.035 C 
BRANCH  94  95
HETATM   95  C   UNK N   1      26.843  18.299   4.485  0.00  0.00     0.004 C 
BRANCH  95  96
HETATM   96  C   UNK N   1      25.399  18.718   4.645  0.00  0.00     0.019 C 
BRANCH  96  97
HETATM   97  C   UNK N   1      25.228  20.170   4.229  0.00  0.00     0.111 C 
BRANCH  97  98
HETATM   98  N   UNK N   1      24.454  20.250   3.002  0.00  0.00    -0.430 N 
HETATM   99  H   UNK N   1      23.970  19.990   2.143  0.00  0.00     0.149 HD
HETATM  100  H   UNK N   1      24.265  21.253   2.996  0.00  0.00     0.149 HD
ENDBRANCH  97  98
ENDBRANCH  96  97
ENDBRANCH  95  96
ENDBRANCH  94  95
ENDBRANCH  66  94
ENDBRANCH  63  66
ENDBRANCH  58  62
ENDBRANCH   1  54
TORSDOF 40
ENDMDL
MODEL 7
REMARK VINA RESULT:      -7.3      2.864     11.341
REMARK WARNING: 32 MAX_TORS EXCEEDED!!!
REMARK  40 active torsions:
REMARK  status: ('A' for Active; 'I' for Inactive)
REMARK    1  A    between atoms: O_2  and  C_3 
REMARK    2  A    between atoms: C_6  and  N_72 
REMARK    3  A    between atoms: C_8  and  C_9 
REMARK       I    between atoms: C_9  and  N_11 
REMARK    4  A    between atoms: C_12  and  N_11 
REMARK    5  A    between atoms: C_12  and  C_13 
REMARK    6  A    between atoms: C_12  and  C_18 
REMARK    7  A    between atoms: C_13  and  C_14 
REMARK    8  A    between atoms: C_14  and  C_15 
REMARK    9  A    between atoms: C_15  and  C_16 
REMARK   10  A    between atoms: C_16  and  N_17 
REMARK       I    between atoms: C_18  and  N_20 
REMARK   11  A    between atoms: N_20  and  C_21 
REMARK   12  A    between atoms: C_24  and  O_70 
REMARK   13  A    between atoms: C_25  and  C_27 
REMARK       I    between atoms: C_27  and  N_29 
REMARK   14  A    between atoms: C_30  and  N_29 
REMARK   15  A    between atoms: C_30  and  C_31 
REMARK   16  A    between atoms: C_30  and  C_36 
REMARK   17  A    between atoms: C_31  and  C_32 
REMARK   18  A    between atoms: C_32  and  C_33 
REMARK   19  A    between atoms: C_33  and  C_34 
REMARK   20  A    between atoms: C_34  and  N_35 
REMARK       I    between atoms: C_36  and  N_38 
REMARK   21  A    between atoms: N_38  and  C_39 
REMARK   22  A    between atoms: C_42  and  O_68 
REMARK   23  A    between atoms: C_43  and  C_45 
REMARK       I    between atoms: C_45  and  N_47 
REMARK   24  A    between atoms: C_48  and  N_47 
REMARK   25  A    between atoms: C_48  and  C_49 
REMARK   26  A    between atoms: C_48  and  C_54 
REMARK   27  A    between atoms: C_49  and  C_50 
REMARK   28  A    between atoms: C_50  and  C_51 
REMARK   29  A    between atoms: C_51  and  C_52 
REMARK   30  A    between atoms: C_52  and  N_53 
REMARK       I    between atoms: C_54  and  N_56 
REMARK   31  A    between atoms: N_56  and  C_57 
REMARK   32  A    between atoms: C_60  and  O_66 
REMARK   33  A    between atoms: C_61  and  C_63 
REMARK       I    between atoms: C_63  and  N_65 
REMARK       I    between atoms: N_72  and  C_73 
REMARK   34  A    between atoms: C_73  and  C_75 
REMARK   35  A    between atoms: C_75  and  C_76 
REMARK   36  A    between atoms: C_75  and  N_81 
REMARK   37  A    between atoms: C_76  and  C_77 
REMARK   38  A    between atoms: C_77  and  C_78 
REMARK   39  A    between atoms: C_78  and  C_79 
REMARK   40  A    between atoms: C_79  and  N_80 
ROOT
HETATM    1  C   UNK N   1      28.739  16.907   3.963  0.00  0.00     0.255 C 
HETATM    2  O   UNK N   1      29.110  17.128   2.799  0.00  0.00    -0.268 OA
HETATM    3  N   UNK N   1      28.682  15.648   4.409  0.00  0.00    -0.344 N 
HETATM    4  H   UNK N   1      28.081  15.385   5.142  0.00  0.00     0.163 HD
ENDROOT
BRANCH   3   5
HETATM    5  C   UNK N   1      29.532  14.711   3.772  0.00  0.00     0.177 C 
BRANCH   5   6
HETATM    6  C   UNK N   1      28.761  13.636   3.019  0.00  0.00     0.035 C 
BRANCH   6   7
HETATM    7  C   UNK N   1      29.365  13.370   1.642  0.00  0.00     0.004 C 
BRANCH   7   8
HETATM    8  C   UNK N   1      30.604  12.481   1.722  0.00  0.00     0.019 C 
BRANCH   8   9
HETATM    9  C   UNK N   1      30.354  11.270   2.599  0.00  0.00     0.111 C 
BRANCH   9  10
HETATM   10  N   UNK N   1      29.626  10.269   1.840  0.00  0.00    -0.430 N 
HETATM   11  H   UNK N   1      29.595   9.385   1.333  0.00  0.00     0.149 HD
HETATM   12  H   UNK N   1      28.673  10.629   1.787  0.00  0.00     0.149 HD
ENDBRANCH   9  10
ENDBRANCH   8   9
ENDBRANCH   7   8
ENDBRANCH   6   7
ENDBRANCH   5   6
BRANCH   5  13
HETATM   13  C   UNK N   1      30.458  14.371   4.907  0.00  0.00     0.241 C 
HETATM   14  O   UNK N   1      30.083  13.553   5.729  0.00  0.00    -0.271 OA
HETATM   15  N   UNK N   1      31.787  14.677   4.837  0.00  0.00    -0.348 N 
HETATM   16  H   UNK N   1      32.429  13.986   5.115  0.00  0.00     0.163 HD
BRANCH  15  17
HETATM   17  C   UNK N   1      32.319  15.931   4.389  0.00  0.00     0.132 C 
HETATM   18  C   UNK N   1      32.487  15.867   3.013  0.00  0.00     0.005 C 
HETATM   19  C   UNK N   1      33.402  14.889   2.596  0.00  0.00     0.036 C 
HETATM   20  C   UNK N   1      34.308  14.361   3.565  0.00  0.00     0.083 C 
HETATM   21  C   UNK N   1      34.463  15.090   4.818  0.00  0.00     0.063 C 
HETATM   22  C   UNK N   1      33.537  16.128   5.023  0.00  0.00     0.022 C 
BRANCH  20  23
HETATM   23  O   UNK N   1      34.939  13.192   3.317  0.00  0.00    -0.355 OA
HETATM   24  C   UNK N   1      34.427  12.221   2.482  0.00  0.00     0.210 C 
ENDBRANCH  20  23
BRANCH  21  25
HETATM   25  C   UNK N   1      35.332  14.766   6.014  0.00  0.00     0.254 C 
HETATM   26  O   UNK N   1      36.507  15.084   5.973  0.00  0.00    -0.268 OA
HETATM   27  N   UNK N   1      34.920  14.134   7.126  0.00  0.00    -0.344 N 
HETATM   28  H   UNK N   1      35.539  14.095   7.891  0.00  0.00     0.163 HD
BRANCH  27  29
HETATM   29  C   UNK N   1      33.652  13.519   7.270  0.00  0.00     0.177 C 
BRANCH  29  30
HETATM   30  C   UNK N   1      32.723  14.346   8.158  0.00  0.00     0.035 C 
BRANCH  30  31
HETATM   31  C   UNK N   1      33.353  15.622   8.710  0.00  0.00     0.004 C 
BRANCH  31  32
HETATM   32  C   UNK N   1      33.884  15.417  10.117  0.00  0.00     0.019 C 
BRANCH  32  33
HETATM   33  C   UNK N   1      35.143  16.233  10.300  0.00  0.00     0.111 C 
BRANCH  33  34
HETATM   34  N   UNK N   1      36.299  15.364  10.204  0.00  0.00    -0.430 N 
HETATM   35  H   UNK N   1      37.292  15.251  10.410  0.00  0.00     0.149 HD
HETATM   36  H   UNK N   1      35.993  14.510   9.738  0.00  0.00     0.149 HD
ENDBRANCH  33  34
ENDBRANCH  32  33
ENDBRANCH  31  32
ENDBRANCH  30  31
ENDBRANCH  29  30
BRANCH  29  37
HETATM   37  C   UNK N   1      33.793  12.110   7.739  0.00  0.00     0.245 C 
HETATM   38  O   UNK N   1      34.559  11.323   7.194  0.00  0.00    -0.271 OA
HETATM   39  N   UNK N   1      33.137  11.785   8.865  0.00  0.00    -0.325 N 
HETATM   40  H   UNK N   1      32.159  11.893   8.895  0.00  0.00     0.169 HD
BRANCH  39  41
HETATM   41  C   UNK N   1      33.799  11.299   9.994  0.00  0.00     0.035 A 
HETATM   42  C   UNK N   1      33.357  10.122  10.580  0.00  0.00     0.032 A 
HETATM   43  C   UNK N   1      33.866   9.738  11.814  0.00  0.00     0.040 A 
HETATM   44  C   UNK N   1      34.798  10.551  12.492  0.00  0.00     0.084 A 
HETATM   45  C   UNK N   1      35.218  11.768  11.904  0.00  0.00     0.067 A 
HETATM   46  C   UNK N   1      34.701  12.123  10.666  0.00  0.00     0.049 A 
BRANCH  44  47
HETATM   47  O   UNK N   1      35.289  10.169  13.693  0.00  0.00    -0.355 OA
HETATM   48  C   UNK N   1      34.566  10.260  14.861  0.00  0.00     0.210 C 
ENDBRANCH  44  47
BRANCH  45  49
HETATM   49  C   UNK N   1      36.186  12.699  12.537  0.00  0.00     0.252 C 
HETATM   50  O   UNK N   1      35.830  13.826  12.853  0.00  0.00    -0.268 OA
HETATM   51  N   UNK N   1      37.461  12.327  12.762  0.00  0.00    -0.366 N 
HETATM   52  H   UNK N   1      38.071  12.925  13.253  0.00  0.00     0.159 HD
HETATM   53  H   UNK N   1      37.784  11.457  12.435  0.00  0.00     0.159 HD
ENDBRANCH  45  49
ENDBRANCH  39  41
ENDBRANCH  29  37
ENDBRANCH  27  29
ENDBRANCH  21  25
ENDBRANCH  15  17
ENDBRANCH   5  13
ENDBRANCH   3   5
BRANCH   1  54
HETATM   54  C   UNK N   1      28.335  18.014   4.791  0.00  0.00     0.067 C 
HETATM   55  C   UNK N   1      28.674  18.213   6.142  0.00  0.00     0.084 C 
HETATM   56  C   UNK N   1      28.028  19.264   6.837  0.00  0.00     0.040 C 
HETATM   57  C   UNK N   1      26.957  19.948   6.225  0.00  0.00     0.032 C 
HETATM   58  C   UNK N   1      26.635  19.670   4.886  0.00  0.00     0.035 C 
HETATM   59  C   UNK N   1      27.423  18.795   4.210  0.00  0.00     0.049 C 
BRANCH  55  60
HETATM   60  O   UNK N   1      29.589  17.412   6.735  0.00  0.00    -0.355 OA
HETATM   61  C   UNK N   1      30.010  17.578   8.033  0.00  0.00     0.210 C 
ENDBRANCH  55  60
BRANCH  58  62
HETATM   62  N   UNK N   1      25.268  19.664   4.490  0.00  0.00    -0.325 N 
HETATM   63  C   UNK N   1      24.571  18.479   4.343  0.00  0.00     0.245 C 
HETATM   64  O   UNK N   1      25.143  17.414   4.137  0.00  0.00    -0.271 OA
HETATM   65  H   UNK N   1      24.810  20.519   4.318  0.00  0.00     0.169 HD
BRANCH  63  66
HETATM   66  C   UNK N   1      23.152  18.424   4.736  0.00  0.00     0.177 C 
BRANCH  66  67
HETATM   67  N   UNK N   1      22.901  17.153   5.413  0.00  0.00    -0.344 N 
HETATM   68  C   UNK N   1      21.971  16.940   6.387  0.00  0.00     0.255 C 
HETATM   69  O   UNK N   1      21.423  17.881   6.940  0.00  0.00    -0.268 OA
HETATM   70  H   UNK N   1      23.451  16.383   5.143  0.00  0.00     0.163 HD
BRANCH  68  71
HETATM   71  C   UNK N   1      21.612  15.557   6.776  0.00  0.00     0.067 A 
HETATM   72  C   UNK N   1      21.493  15.236   8.135  0.00  0.00     0.049 A 
HETATM   73  C   UNK N   1      21.240  13.918   8.538  0.00  0.00     0.035 A 
HETATM   74  C   UNK N   1      21.000  12.945   7.569  0.00  0.00     0.032 A 
HETATM   75  C   UNK N   1      21.092  13.249   6.218  0.00  0.00     0.040 A 
HETATM   76  C   UNK N   1      21.454  14.542   5.807  0.00  0.00     0.084 A 
BRANCH  73  77
HETATM   77  N   UNK N   1      21.500  13.443   9.851  0.00  0.00    -0.325 N 
HETATM   78  C   UNK N   1      22.613  12.886  10.411  0.00  0.00     0.244 C 
HETATM   79  O   UNK N   1      22.482  12.346  11.495  0.00  0.00    -0.271 OA
HETATM   80  H   UNK N   1      20.740  13.532  10.469  0.00  0.00     0.169 HD
BRANCH  78  81
HETATM   81  C   UNK N   1      23.996  12.861   9.805  0.00  0.00     0.167 C 
BRANCH  81  82
HETATM   82  C   UNK N   1      24.203  11.860   8.678  0.00  0.00     0.034 C 
BRANCH  82  83
HETATM   83  C   UNK N   1      24.622  12.598   7.402  0.00  0.00     0.004 C 
BRANCH  83  84
HETATM   84  C   UNK N   1      24.914  14.070   7.660  0.00  0.00     0.019 C 
BRANCH  84  85
HETATM   85  C   UNK N   1      25.456  14.718   6.398  0.00  0.00     0.111 C 
BRANCH  85  86
HETATM   86  N   UNK N   1      25.957  16.046   6.703  0.00  0.00    -0.430 N 
HETATM   87  H   UNK N   1      25.740  16.520   7.580  0.00  0.00     0.149 HD
HETATM   88  H   UNK N   1      26.545  16.521   6.017  0.00  0.00     0.149 HD
ENDBRANCH  85  86
ENDBRANCH  84  85
ENDBRANCH  83  84
ENDBRANCH  82  83
ENDBRANCH  81  82
BRANCH  81  89
HETATM   89  N   UNK N   1      25.126  13.030  10.703  0.00  0.00    -0.418 N 
HETATM   90  H   UNK N   1      25.754  13.833  10.741  0.00  0.00     0.150 HD
HETATM   91  H   UNK N   1      25.309  12.270  11.359  0.00  0.00     0.150 HD
ENDBRANCH  81  89
ENDBRANCH  78  81
ENDBRANCH  73  77
BRANCH  76  92
HETATM   92  O   UNK N   1      21.630  14.821   4.495  0.00  0.00    -0.355 OA
HETATM   93  C   UNK N   1      22.411  14.047   3.670  0.00  0.00     0.210 C 
ENDBRANCH  76  92
ENDBRANCH  68  71
ENDBRANCH  66  67
BRANCH  66  94
HETATM   94  C   UNK N   1      22.287  18.718   3.543  0.00  0.00     0.035 C 
BRANCH  94  95
HETATM   95  C   UNK N   1      20.999  19.345   4.004  0.00  0.00     0.004 C 
BRANCH  95  96
HETATM   96  C   UNK N   1      20.244  19.842   2.792  0.00  0.00     0.019 C 
BRANCH  96  97
HETATM   97  C   UNK N   1      21.212  20.442   1.785  0.00  0.00     0.111 C 
BRANCH  97  98
HETATM   98  N   UNK N   1      20.559  20.595   0.496  0.00  0.00    -0.430 N 
HETATM   99  H   UNK N   1      20.053  20.999  -0.292  0.00  0.00     0.149 HD
HETATM  100  H   UNK N   1      20.708  19.656   0.126  0.00  0.00     0.149 HD
ENDBRANCH  97  98
ENDBRANCH  96  97
ENDBRANCH  95  96
ENDBRANCH  94  95
ENDBRANCH  66  94
ENDBRANCH  63  66
ENDBRANCH  58  62
ENDBRANCH   1  54
TORSDOF 40
ENDMDL
MODEL 8
REMARK VINA RESULT:      -7.3      3.036      7.320
REMARK WARNING: 32 MAX_TORS EXCEEDED!!!
REMARK  40 active torsions:
REMARK  status: ('A' for Active; 'I' for Inactive)
REMARK    1  A    between atoms: O_2  and  C_3 
REMARK    2  A    between atoms: C_6  and  N_72 
REMARK    3  A    between atoms: C_8  and  C_9 
REMARK       I    between atoms: C_9  and  N_11 
REMARK    4  A    between atoms: C_12  and  N_11 
REMARK    5  A    between atoms: C_12  and  C_13 
REMARK    6  A    between atoms: C_12  and  C_18 
REMARK    7  A    between atoms: C_13  and  C_14 
REMARK    8  A    between atoms: C_14  and  C_15 
REMARK    9  A    between atoms: C_15  and  C_16 
REMARK   10  A    between atoms: C_16  and  N_17 
REMARK       I    between atoms: C_18  and  N_20 
REMARK   11  A    between atoms: N_20  and  C_21 
REMARK   12  A    between atoms: C_24  and  O_70 
REMARK   13  A    between atoms: C_25  and  C_27 
REMARK       I    between atoms: C_27  and  N_29 
REMARK   14  A    between atoms: C_30  and  N_29 
REMARK   15  A    between atoms: C_30  and  C_31 
REMARK   16  A    between atoms: C_30  and  C_36 
REMARK   17  A    between atoms: C_31  and  C_32 
REMARK   18  A    between atoms: C_32  and  C_33 
REMARK   19  A    between atoms: C_33  and  C_34 
REMARK   20  A    between atoms: C_34  and  N_35 
REMARK       I    between atoms: C_36  and  N_38 
REMARK   21  A    between atoms: N_38  and  C_39 
REMARK   22  A    between atoms: C_42  and  O_68 
REMARK   23  A    between atoms: C_43  and  C_45 
REMARK       I    between atoms: C_45  and  N_47 
REMARK   24  A    between atoms: C_48  and  N_47 
REMARK   25  A    between atoms: C_48  and  C_49 
REMARK   26  A    between atoms: C_48  and  C_54 
REMARK   27  A    between atoms: C_49  and  C_50 
REMARK   28  A    between atoms: C_50  and  C_51 
REMARK   29  A    between atoms: C_51  and  C_52 
REMARK   30  A    between atoms: C_52  and  N_53 
REMARK       I    between atoms: C_54  and  N_56 
REMARK   31  A    between atoms: N_56  and  C_57 
REMARK   32  A    between atoms: C_60  and  O_66 
REMARK   33  A    between atoms: C_61  and  C_63 
REMARK       I    between atoms: C_63  and  N_65 
REMARK       I    between atoms: N_72  and  C_73 
REMARK   34  A    between atoms: C_73  and  C_75 
REMARK   35  A    between atoms: C_75  and  C_76 
REMARK   36  A    between atoms: C_75  and  N_81 
REMARK   37  A    between atoms: C_76  and  C_77 
REMARK   38  A    between atoms: C_77  and  C_78 
REMARK   39  A    between atoms: C_78  and  C_79 
REMARK   40  A    between atoms: C_79  and  N_80 
ROOT
HETATM    1  C   UNK N   1      27.769  16.770   5.342  0.00  0.00     0.255 C 
HETATM    2  O   UNK N   1      28.556  16.056   4.702  0.00  0.00    -0.268 OA
HETATM    3  N   UNK N   1      26.522  16.945   4.892  0.00  0.00    -0.344 N 
HETATM    4  H   UNK N   1      25.994  17.742   5.125  0.00  0.00     0.163 HD
ENDROOT
BRANCH   3   5
HETATM    5  C   UNK N   1      25.999  15.923   4.063  0.00  0.00     0.177 C 
BRANCH   5   6
HETATM    6  C   UNK N   1      25.856  16.360   2.612  0.00  0.00     0.035 C 
BRANCH   6   7
HETATM    7  C   UNK N   1      26.051  15.191   1.649  0.00  0.00     0.004 C 
BRANCH   7   8
HETATM    8  C   UNK N   1      24.720  14.605   1.182  0.00  0.00     0.019 C 
BRANCH   8   9
HETATM    9  C   UNK N   1      24.554  13.174   1.654  0.00  0.00     0.111 C 
BRANCH   9  10
HETATM   10  N   UNK N   1      24.167  12.341   0.531  0.00  0.00    -0.430 N 
HETATM   11  H   UNK N   1      24.222  12.098  -0.458  0.00  0.00     0.149 HD
HETATM   12  H   UNK N   1      23.517  11.661   0.927  0.00  0.00     0.149 HD
ENDBRANCH   9  10
ENDBRANCH   8   9
ENDBRANCH   7   8
ENDBRANCH   6   7
ENDBRANCH   5   6
BRANCH   5  13
HETATM   13  C   UNK N   1      24.812  15.493   4.880  0.00  0.00     0.241 C 
HETATM   14  O   UNK N   1      23.770  16.111   4.749  0.00  0.00    -0.271 OA
HETATM   15  N   UNK N   1      24.781  14.260   5.467  0.00  0.00    -0.348 N 
HETATM   16  H   UNK N   1      23.950  13.739   5.388  0.00  0.00     0.163 HD
BRANCH  15  17
HETATM   17  C   UNK N   1      25.867  13.668   6.191  0.00  0.00     0.132 C 
HETATM   18  C   UNK N   1      26.594  12.874   5.316  0.00  0.00     0.005 C 
HETATM   19  C   UNK N   1      25.863  11.806   4.774  0.00  0.00     0.036 C 
HETATM   20  C   UNK N   1      24.653  11.422   5.427  0.00  0.00     0.083 C 
HETATM   21  C   UNK N   1      24.423  11.918   6.778  0.00  0.00     0.063 C 
HETATM   22  C   UNK N   1      25.328  12.901   7.215  0.00  0.00     0.022 C 
BRANCH  20  23
HETATM   23  O   UNK N   1      23.749  10.671   4.760  0.00  0.00    -0.355 OA
HETATM   24  C   UNK N   1      24.007  10.088   3.538  0.00  0.00     0.210 C 
ENDBRANCH  20  23
BRANCH  21  25
HETATM   25  C   UNK N   1      23.242  11.686   7.696  0.00  0.00     0.254 C 
HETATM   26  O   UNK N   1      23.253  10.698   8.409  0.00  0.00    -0.268 OA
HETATM   27  N   UNK N   1      22.159  12.477   7.784  0.00  0.00    -0.344 N 
HETATM   28  H   UNK N   1      21.516  12.299   8.509  0.00  0.00     0.163 HD
BRANCH  27  29
HETATM   29  C   UNK N   1      21.881  13.549   6.901  0.00  0.00     0.177 C 
BRANCH  29  30
HETATM   30  C   UNK N   1      21.259  14.737   7.636  0.00  0.00     0.035 C 
BRANCH  30  31
HETATM   31  C   UNK N   1      21.733  16.100   7.139  0.00  0.00     0.004 C 
BRANCH  31  32
HETATM   32  C   UNK N   1      20.628  17.137   7.219  0.00  0.00     0.019 C 
BRANCH  32  33
HETATM   33  C   UNK N   1      21.042  18.369   6.449  0.00  0.00     0.111 C 
BRANCH  33  34
HETATM   34  N   UNK N   1      22.407  18.214   5.987  0.00  0.00    -0.430 N 
HETATM   35  H   UNK N   1      23.045  18.282   5.194  0.00  0.00     0.149 HD
HETATM   36  H   UNK N   1      22.960  17.909   6.789  0.00  0.00     0.149 HD
ENDBRANCH  33  34
ENDBRANCH  32  33
ENDBRANCH  31  32
ENDBRANCH  30  31
ENDBRANCH  29  30
BRANCH  29  37
HETATM   37  C   UNK N   1      21.054  13.090   5.748  0.00  0.00     0.245 C 
HETATM   38  O   UNK N   1      19.870  12.800   5.878  0.00  0.00    -0.271 OA
HETATM   39  N   UNK N   1      21.635  13.135   4.538  0.00  0.00    -0.325 N 
HETATM   40  H   UNK N   1      22.462  12.622   4.388  0.00  0.00     0.169 HD
BRANCH  39  41
HETATM   41  C   UNK N   1      21.104  13.885   3.488  0.00  0.00     0.035 A 
HETATM   42  C   UNK N   1      20.994  13.304   2.232  0.00  0.00     0.032 A 
HETATM   43  C   UNK N   1      20.666  14.094   1.138  0.00  0.00     0.040 A 
HETATM   44  C   UNK N   1      20.481  15.484   1.284  0.00  0.00     0.084 A 
HETATM   45  C   UNK N   1      20.629  16.075   2.562  0.00  0.00     0.067 A 
HETATM   46  C   UNK N   1      20.948  15.262   3.640  0.00  0.00     0.049 A 
BRANCH  44  47
HETATM   47  O   UNK N   1      20.161  16.245   0.214  0.00  0.00    -0.355 OA
HETATM   48  C   UNK N   1      18.904  16.261  -0.346  0.00  0.00     0.210 C 
ENDBRANCH  44  47
BRANCH  45  49
HETATM   49  C   UNK N   1      20.465  17.528   2.822  0.00  0.00     0.252 C 
HETATM   50  O   UNK N   1      21.439  18.209   3.111  0.00  0.00    -0.268 OA
HETATM   51  N   UNK N   1      19.253  18.113   2.757  0.00  0.00    -0.366 N 
HETATM   52  H   UNK N   1      19.170  19.089   2.854  0.00  0.00     0.159 HD
HETATM   53  H   UNK N   1      18.450  17.562   2.611  0.00  0.00     0.159 HD
ENDBRANCH  45  49
ENDBRANCH  39  41
ENDBRANCH  29  37
ENDBRANCH  27  29
ENDBRANCH  21  25
ENDBRANCH  15  17
ENDBRANCH   5  13
ENDBRANCH   3   5
BRANCH   1  54
HETATM   54  C   UNK N   1      28.234  17.433   6.534  0.00  0.00     0.067 C 
HETATM   55  C   UNK N   1      27.890  18.731   6.955  0.00  0.00     0.084 C 
HETATM   56  C   UNK N   1      28.595  19.276   8.056  0.00  0.00     0.040 C 
HETATM   57  C   UNK N   1      29.718  18.594   8.571  0.00  0.00     0.032 C 
HETATM   58  C   UNK N   1      30.038  17.320   8.074  0.00  0.00     0.035 C 
HETATM   59  C   UNK N   1      29.204  16.764   7.158  0.00  0.00     0.049 C 
BRANCH  55  60
HETATM   60  O   UNK N   1      26.916  19.415   6.312  0.00  0.00    -0.355 OA
HETATM   61  C   UNK N   1      26.868  20.788   6.256  0.00  0.00     0.210 C 
ENDBRANCH  55  60
BRANCH  58  62
HETATM   62  N   UNK N   1      31.408  16.962   7.922  0.00  0.00    -0.325 N 
HETATM   63  C   UNK N   1      31.948  15.891   8.608  0.00  0.00     0.245 C 
HETATM   64  O   UNK N   1      31.446  15.467   9.643  0.00  0.00    -0.271 OA
HETATM   65  H   UNK N   1      31.981  17.488   7.316  0.00  0.00     0.169 HD
BRANCH  63  66
HETATM   66  C   UNK N   1      32.958  15.046   7.946  0.00  0.00     0.177 C 
BRANCH  66  67
HETATM   67  N   UNK N   1      33.941  14.621   8.941  0.00  0.00    -0.344 N 
HETATM   68  C   UNK N   1      34.060  13.365   9.457  0.00  0.00     0.255 C 
HETATM   69  O   UNK N   1      33.178  12.537   9.287  0.00  0.00    -0.268 OA
HETATM   70  H   UNK N   1      34.572  15.302   9.268  0.00  0.00     0.163 HD
BRANCH  68  71
HETATM   71  C   UNK N   1      35.271  12.993  10.223  0.00  0.00     0.067 A 
HETATM   72  C   UNK N   1      35.420  13.456  11.537  0.00  0.00     0.049 A 
HETATM   73  C   UNK N   1      36.593  13.193  12.258  0.00  0.00     0.035 A 
HETATM   74  C   UNK N   1      37.569  12.373  11.694  0.00  0.00     0.032 A 
HETATM   75  C   UNK N   1      37.428  11.887  10.402  0.00  0.00     0.040 A 
HETATM   76  C   UNK N   1      36.307  12.236   9.632  0.00  0.00     0.084 A 
BRANCH  73  77
HETATM   77  N   UNK N   1      36.987  13.940  13.400  0.00  0.00    -0.325 N 
HETATM   78  C   UNK N   1      36.683  13.804  14.723  0.00  0.00     0.244 C 
HETATM   79  O   UNK N   1      36.966  14.731  15.461  0.00  0.00    -0.271 OA
HETATM   80  H   UNK N   1      37.590  14.692  13.201  0.00  0.00     0.169 HD
BRANCH  78  81
HETATM   81  C   UNK N   1      36.010  12.613  15.362  0.00  0.00     0.167 C 
BRANCH  81  82
HETATM   82  C   UNK N   1      36.562  11.252  14.964  0.00  0.00     0.034 C 
BRANCH  82  83
HETATM   83  C   UNK N   1      35.410  10.254  14.800  0.00  0.00     0.004 C 
BRANCH  83  84
HETATM   84  C   UNK N   1      35.148   9.914  13.339  0.00  0.00     0.019 C 
BRANCH  84  85
HETATM   85  C   UNK N   1      33.751  10.364  12.947  0.00  0.00     0.111 C 
BRANCH  85  86
HETATM   86  N   UNK N   1      33.588  10.262  11.507  0.00  0.00    -0.430 N 
HETATM   87  H   UNK N   1      34.329   9.910  10.900  0.00  0.00     0.149 HD
HETATM   88  H   UNK N   1      32.703  10.552  11.089  0.00  0.00     0.149 HD
ENDBRANCH  85  86
ENDBRANCH  84  85
ENDBRANCH  83  84
ENDBRANCH  82  83
ENDBRANCH  81  82
BRANCH  81  89
HETATM   89  N   UNK N   1      34.569  12.672  15.542  0.00  0.00    -0.418 N 
HETATM   90  H   UNK N   1      33.906  11.915  15.370  0.00  0.00     0.150 HD
HETATM   91  H   UNK N   1      34.182  13.556  15.871  0.00  0.00     0.150 HD
ENDBRANCH  81  89
ENDBRANCH  78  81
ENDBRANCH  73  77
BRANCH  76  92
HETATM   92  O   UNK N   1      36.207  11.837   8.343  0.00  0.00    -0.355 OA
HETATM   93  C   UNK N   1      36.904  12.440   7.324  0.00  0.00     0.210 C 
ENDBRANCH  76  92
ENDBRANCH  68  71
ENDBRANCH  66  67
BRANCH  66  94
HETATM   94  C   UNK N   1      33.504  15.761   6.743  0.00  0.00     0.035 C 
BRANCH  94  95
HETATM   95  C   UNK N   1      33.266  14.924   5.515  0.00  0.00     0.004 C 
BRANCH  95  96
HETATM   96  C   UNK N   1      32.137  15.542   4.721  0.00  0.00     0.019 C 
BRANCH  96  97
HETATM   97  C   UNK N   1      32.417  17.016   4.479  0.00  0.00     0.111 C 
BRANCH  97  98
HETATM   98  N   UNK N   1      31.185  17.708   4.140  0.00  0.00    -0.430 N 
HETATM   99  H   UNK N   1      30.447  18.170   3.608  0.00  0.00     0.149 HD
HETATM  100  H   UNK N   1      30.783  17.789   5.075  0.00  0.00     0.149 HD
ENDBRANCH  97  98
ENDBRANCH  96  97
ENDBRANCH  95  96
ENDBRANCH  94  95
ENDBRANCH  66  94
ENDBRANCH  63  66
ENDBRANCH  58  62
ENDBRANCH   1  54
TORSDOF 40
ENDMDL
MODEL 9
REMARK VINA RESULT:      -7.3      3.215      8.066
REMARK WARNING: 32 MAX_TORS EXCEEDED!!!
REMARK  40 active torsions:
REMARK  status: ('A' for Active; 'I' for Inactive)
REMARK    1  A    between atoms: O_2  and  C_3 
REMARK    2  A    between atoms: C_6  and  N_72 
REMARK    3  A    between atoms: C_8  and  C_9 
REMARK       I    between atoms: C_9  and  N_11 
REMARK    4  A    between atoms: C_12  and  N_11 
REMARK    5  A    between atoms: C_12  and  C_13 
REMARK    6  A    between atoms: C_12  and  C_18 
REMARK    7  A    between atoms: C_13  and  C_14 
REMARK    8  A    between atoms: C_14  and  C_15 
REMARK    9  A    between atoms: C_15  and  C_16 
REMARK   10  A    between atoms: C_16  and  N_17 
REMARK       I    between atoms: C_18  and  N_20 
REMARK   11  A    between atoms: N_20  and  C_21 
REMARK   12  A    between atoms: C_24  and  O_70 
REMARK   13  A    between atoms: C_25  and  C_27 
REMARK       I    between atoms: C_27  and  N_29 
REMARK   14  A    between atoms: C_30  and  N_29 
REMARK   15  A    between atoms: C_30  and  C_31 
REMARK   16  A    between atoms: C_30  and  C_36 
REMARK   17  A    between atoms: C_31  and  C_32 
REMARK   18  A    between atoms: C_32  and  C_33 
REMARK   19  A    between atoms: C_33  and  C_34 
REMARK   20  A    between atoms: C_34  and  N_35 
REMARK       I    between atoms: C_36  and  N_38 
REMARK   21  A    between atoms: N_38  and  C_39 
REMARK   22  A    between atoms: C_42  and  O_68 
REMARK   23  A    between atoms: C_43  and  C_45 
REMARK       I    between atoms: C_45  and  N_47 
REMARK   24  A    between atoms: C_48  and  N_47 
REMARK   25  A    between atoms: C_48  and  C_49 
REMARK   26  A    between atoms: C_48  and  C_54 
REMARK   27  A    between atoms: C_49  and  C_50 
REMARK   28  A    between atoms: C_50  and  C_51 
REMARK   29  A    between atoms: C_51  and  C_52 
REMARK   30  A    between atoms: C_52  and  N_53 
REMARK       I    between atoms: C_54  and  N_56 
REMARK   31  A    between atoms: N_56  and  C_57 
REMARK   32  A    between atoms: C_60  and  O_66 
REMARK   33  A    between atoms: C_61  and  C_63 
REMARK       I    between atoms: C_63  and  N_65 
REMARK       I    between atoms: N_72  and  C_73 
REMARK   34  A    between atoms: C_73  and  C_75 
REMARK   35  A    between atoms: C_75  and  C_76 
REMARK   36  A    between atoms: C_75  and  N_81 
REMARK   37  A    between atoms: C_76  and  C_77 
REMARK   38  A    between atoms: C_77  and  C_78 
REMARK   39  A    between atoms: C_78  and  C_79 
REMARK   40  A    between atoms: C_79  and  N_80 
ROOT
HETATM    1  C   UNK N   1      28.826  16.479   5.772  0.00  0.00     0.255 C 
HETATM    2  O   UNK N   1      29.671  15.655   5.390  0.00  0.00    -0.268 OA
HETATM    3  N   UNK N   1      27.756  16.727   5.011  0.00  0.00    -0.344 N 
HETATM    4  H   UNK N   1      27.270  17.582   5.062  0.00  0.00     0.163 HD
ENDROOT
BRANCH   3   5
HETATM    5  C   UNK N   1      27.354  15.696   4.127  0.00  0.00     0.177 C 
BRANCH   5   6
HETATM    6  C   UNK N   1      27.756  15.971   2.684  0.00  0.00     0.035 C 
BRANCH   6   7
HETATM    7  C   UNK N   1      28.920  15.086   2.246  0.00  0.00     0.004 C 
BRANCH   7   8
HETATM    8  C   UNK N   1      28.792  13.662   2.782  0.00  0.00     0.019 C 
BRANCH   8   9
HETATM    9  C   UNK N   1      28.540  12.674   1.660  0.00  0.00     0.111 C 
BRANCH   9  10
HETATM   10  N   UNK N   1      29.668  12.688   0.746  0.00  0.00    -0.430 N 
HETATM   11  H   UNK N   1      30.260  13.172   0.071  0.00  0.00     0.149 HD
HETATM   12  H   UNK N   1      30.062  11.750   0.808  0.00  0.00     0.149 HD
ENDBRANCH   9  10
ENDBRANCH   8   9
ENDBRANCH   7   8
ENDBRANCH   6   7
ENDBRANCH   5   6
BRANCH   5  13
HETATM   13  C   UNK N   1      25.915  15.538   4.531  0.00  0.00     0.241 C 
HETATM   14  O   UNK N   1      25.485  16.254   5.418  0.00  0.00    -0.271 OA
HETATM   15  N   UNK N   1      25.030  14.892   3.714  0.00  0.00    -0.348 N 
HETATM   16  H   UNK N   1      24.150  15.310   3.576  0.00  0.00     0.163 HD
BRANCH  15  17
HETATM   17  C   UNK N   1      25.286  13.651   3.045  0.00  0.00     0.132 C 
HETATM   18  C   UNK N   1      25.061  13.832   1.687  0.00  0.00     0.005 C 
HETATM   19  C   UNK N   1      23.739  14.177   1.370  0.00  0.00     0.036 C 
HETATM   20  C   UNK N   1      22.729  13.935   2.350  0.00  0.00     0.083 C 
HETATM   21  C   UNK N   1      23.059  13.053   3.462  0.00  0.00     0.063 C 
HETATM   22  C   UNK N   1      24.416  12.701   3.562  0.00  0.00     0.022 C 
BRANCH  20  23
HETATM   23  O   UNK N   1      21.539  14.567   2.246  0.00  0.00    -0.355 OA
HETATM   24  C   UNK N   1      21.148  15.259   1.120  0.00  0.00     0.210 C 
ENDBRANCH  20  23
BRANCH  21  25
HETATM   25  C   UNK N   1      22.203  12.630   4.637  0.00  0.00     0.254 C 
HETATM   26  O   UNK N   1      21.510  11.636   4.514  0.00  0.00    -0.268 OA
HETATM   27  N   UNK N   1      22.126  13.274   5.814  0.00  0.00    -0.344 N 
HETATM   28  H   UNK N   1      21.639  12.834   6.549  0.00  0.00     0.163 HD
BRANCH  27  29
HETATM   29  C   UNK N   1      22.700  14.543   6.068  0.00  0.00     0.177 C 
BRANCH  29  30
HETATM   30  C   UNK N   1      23.544  14.535   7.343  0.00  0.00     0.035 C 
BRANCH  30  31
HETATM   31  C   UNK N   1      23.214  13.398   8.306  0.00  0.00     0.004 C 
BRANCH  31  32
HETATM   32  C   UNK N   1      24.429  12.984   9.115  0.00  0.00     0.019 C 
BRANCH  32  33
HETATM   33  C   UNK N   1      23.985  12.149  10.293  0.00  0.00     0.111 C 
BRANCH  33  34
HETATM   34  N   UNK N   1      24.942  12.291  11.373  0.00  0.00    -0.430 N 
HETATM   35  H   UNK N   1      25.298  12.895  12.114  0.00  0.00     0.149 HD
HETATM   36  H   UNK N   1      25.483  11.427  11.407  0.00  0.00     0.149 HD
ENDBRANCH  33  34
ENDBRANCH  32  33
ENDBRANCH  31  32
ENDBRANCH  30  31
ENDBRANCH  29  30
BRANCH  29  37
HETATM   37  C   UNK N   1      21.656  15.608   6.076  0.00  0.00     0.245 C 
HETATM   38  O   UNK N   1      21.386  16.239   7.092  0.00  0.00    -0.271 OA
HETATM   39  N   UNK N   1      21.120  15.931   4.888  0.00  0.00    -0.325 N 
HETATM   40  H   UNK N   1      20.665  15.231   4.364  0.00  0.00     0.169 HD
BRANCH  39  41
HETATM   41  C   UNK N   1      21.185  17.226   4.371  0.00  0.00     0.035 A 
HETATM   42  C   UNK N   1      20.087  17.740   3.698  0.00  0.00     0.032 A 
HETATM   43  C   UNK N   1      20.207  18.937   3.002  0.00  0.00     0.040 A 
HETATM   44  C   UNK N   1      21.444  19.613   2.944  0.00  0.00     0.084 A 
HETATM   45  C   UNK N   1      22.570  19.063   3.604  0.00  0.00     0.067 A 
HETATM   46  C   UNK N   1      22.418  17.872   4.300  0.00  0.00     0.049 A 
BRANCH  44  47
HETATM   47  O   UNK N   1      21.553  20.777   2.265  0.00  0.00    -0.355 OA
HETATM   48  C   UNK N   1      20.768  21.086   1.178  0.00  0.00     0.210 C 
ENDBRANCH  44  47
BRANCH  45  49
HETATM   49  C   UNK N   1      23.916  19.690   3.597  0.00  0.00     0.252 C 
HETATM   50  O   UNK N   1      24.707  19.442   4.496  0.00  0.00    -0.268 OA
HETATM   51  N   UNK N   1      24.281  20.541   2.618  0.00  0.00    -0.366 N 
HETATM   52  H   UNK N   1      25.201  20.888   2.583  0.00  0.00     0.159 HD
HETATM   53  H   UNK N   1      23.625  20.816   1.938  0.00  0.00     0.159 HD
ENDBRANCH  45  49
ENDBRANCH  39  41
ENDBRANCH  29  37
ENDBRANCH  27  29
ENDBRANCH  21  25
ENDBRANCH  15  17
ENDBRANCH   5  13
ENDBRANCH   3   5
BRANCH   1  54
HETATM   54  C   UNK N   1      29.045  17.185   7.009  0.00  0.00     0.067 C 
HETATM   55  C   UNK N   1      28.488  18.425   7.372  0.00  0.00     0.084 C 
HETATM   56  C   UNK N   1      28.969  19.045   8.552  0.00  0.00     0.040 C 
HETATM   57  C   UNK N   1      30.092  18.506   9.213  0.00  0.00     0.032 C 
HETATM   58  C   UNK N   1      30.633  17.287   8.772  0.00  0.00     0.035 C 
HETATM   59  C   UNK N   1      30.002  16.638   7.760  0.00  0.00     0.049 C 
BRANCH  55  60
HETATM   60  O   UNK N   1      27.527  18.986   6.603  0.00  0.00    -0.355 OA
HETATM   61  C   UNK N   1      27.544  20.305   6.214  0.00  0.00     0.210 C 
ENDBRANCH  55  60
BRANCH  58  62
HETATM   62  N   UNK N   1      32.045  17.107   8.801  0.00  0.00    -0.325 N 
HETATM   63  C   UNK N   1      32.604  15.846   8.890  0.00  0.00     0.245 C 
HETATM   64  O   UNK N   1      31.982  14.894   9.349  0.00  0.00    -0.271 OA
HETATM   65  H   UNK N   1      32.635  17.895   8.758  0.00  0.00     0.169 HD
BRANCH  63  66
HETATM   66  C   UNK N   1      33.847  15.555   8.155  0.00  0.00     0.177 C 
BRANCH  66  67
HETATM   67  N   UNK N   1      34.758  14.830   9.040  0.00  0.00    -0.344 N 
HETATM   68  C   UNK N   1      35.236  15.283  10.233  0.00  0.00     0.255 C 
HETATM   69  O   UNK N   1      35.115  16.457  10.547  0.00  0.00    -0.268 OA
HETATM   70  H   UNK N   1      35.052  13.937   8.748  0.00  0.00     0.163 HD
BRANCH  68  71
HETATM   71  C   UNK N   1      35.903  14.345  11.165  0.00  0.00     0.067 A 
HETATM   72  C   UNK N   1      35.532  14.341  12.516  0.00  0.00     0.049 A 
HETATM   73  C   UNK N   1      36.203  13.528  13.439  0.00  0.00     0.035 A 
HETATM   74  C   UNK N   1      37.175  12.640  12.982  0.00  0.00     0.032 A 
HETATM   75  C   UNK N   1      37.541  12.614  11.644  0.00  0.00     0.040 A 
HETATM   76  C   UNK N   1      36.951  13.503  10.731  0.00  0.00     0.084 A 
BRANCH  73  77
HETATM   77  N   UNK N   1      36.170  13.753  14.841  0.00  0.00    -0.325 N 
HETATM   78  C   UNK N   1      35.566  13.070  15.856  0.00  0.00     0.244 C 
HETATM   79  O   UNK N   1      35.501  13.622  16.941  0.00  0.00    -0.271 OA
HETATM   80  H   UNK N   1      36.677  14.544  15.134  0.00  0.00     0.169 HD
BRANCH  78  81
HETATM   81  C   UNK N   1      34.950  11.695  15.760  0.00  0.00     0.167 C 
BRANCH  81  82
HETATM   82  C   UNK N   1      35.931  10.531  15.780  0.00  0.00     0.034 C 
BRANCH  82  83
HETATM   83  C   UNK N   1      35.343   9.346  15.007  0.00  0.00     0.004 C 
BRANCH  83  84
HETATM   84  C   UNK N   1      36.093   9.078  13.708  0.00  0.00     0.019 C 
BRANCH  84  85
HETATM   85  C   UNK N   1      35.104   8.885  12.572  0.00  0.00     0.111 C 
BRANCH  85  86
HETATM   86  N   UNK N   1      35.609   9.522  11.368  0.00  0.00    -0.430 N 
HETATM   87  H   UNK N   1      36.569   9.391  11.046  0.00  0.00     0.149 HD
HETATM   88  H   UNK N   1      34.984  10.119  10.826  0.00  0.00     0.149 HD
ENDBRANCH  85  86
ENDBRANCH  84  85
ENDBRANCH  83  84
ENDBRANCH  82  83
ENDBRANCH  81  82
BRANCH  81  89
HETATM   89  N   UNK N   1      33.808  11.530  14.876  0.00  0.00    -0.418 N 
HETATM   90  H   UNK N   1      33.825  11.541  13.857  0.00  0.00     0.150 HD
HETATM   91  H   UNK N   1      32.900  11.390  15.320  0.00  0.00     0.150 HD
ENDBRANCH  81  89
ENDBRANCH  78  81
ENDBRANCH  73  77
BRANCH  76  92
HETATM   92  O   UNK N   1      37.366  13.542   9.444  0.00  0.00    -0.355 OA
HETATM   93  C   UNK N   1      38.688  13.676   9.094  0.00  0.00     0.210 C 
ENDBRANCH  76  92
ENDBRANCH  68  71
ENDBRANCH  66  67
BRANCH  66  94
HETATM   94  C   UNK N   1      34.383  16.820   7.549  0.00  0.00     0.035 C 
BRANCH  94  95
HETATM   95  C   UNK N   1      34.319  16.722   6.049  0.00  0.00     0.004 C 
BRANCH  95  96
HETATM   96  C   UNK N   1      33.114  17.497   5.567  0.00  0.00     0.019 C 
BRANCH  96  97
HETATM   97  C   UNK N   1      32.790  17.118   4.130  0.00  0.00     0.111 C 
BRANCH  97  98
HETATM   98  N   UNK N   1      31.497  17.661   3.750  0.00  0.00    -0.430 N 
HETATM   99  H   UNK N   1      30.526  17.972   3.791  0.00  0.00     0.149 HD
HETATM  100  H   UNK N   1      31.695  17.879   2.773  0.00  0.00     0.149 HD
ENDBRANCH  97  98
ENDBRANCH  96  97
ENDBRANCH  95  96
ENDBRANCH  94  95
ENDBRANCH  66  94
ENDBRANCH  63  66
ENDBRANCH  58  62
ENDBRANCH   1  54
TORSDOF 40
ENDMDL
