MODEL 1
REMARK VINA RESULT:      -8.6      0.000      0.000
REMARK  7 active torsions:
REMARK  status: ('A' for Active; 'I' for Inactive)
REMARK    1  A    between atoms: C_10  and  N_11 
REMARK    2  A    between atoms: N_14  and  C_17 
REMARK    3  A    between atoms: C_17  and  C_18 
REMARK    4  A    between atoms: C_18  and  C_19 
REMARK    5  A    between atoms: C_19  and  C_20 
REMARK    6  A    between atoms: C_20  and  O_21 
REMARK    7  A    between atoms: O_21  and  C_22 
ROOT
HETATM    1  C   UNK N   1      35.310  13.161  11.108  0.00  0.00     0.272 C 
ENDROOT
BRANCH   1   2
HETATM    2  N   UNK N   1      35.907  11.997  11.744  0.00  0.00     0.091 N 
HETATM    3  C   UNK N   1      37.026  12.366  12.627  0.00  0.00     0.292 C 
HETATM    4  C   UNK N   1      36.570  12.849  14.006  0.00  0.00     0.153 C 
HETATM    5  N   UNK N   1      35.622  11.898  14.532  0.00  0.00    -0.377 N 
HETATM    6  C   UNK N   1      34.439  11.689  13.738  0.00  0.00     0.153 C 
HETATM    7  C   UNK N   1      34.875  11.157  12.375  0.00  0.00     0.292 C 
BRANCH   5   8
HETATM    8  C   UNK N   1      35.942  11.114  15.700  0.00  0.00     0.041 A 
HETATM    9  C   UNK N   1      36.448   9.814  15.515  0.00  0.00     0.030 A 
HETATM   10  C   UNK N   1      36.756   8.989  16.596  0.00  0.00     0.003 A 
HETATM   11  C   UNK N   1      36.560   9.438  17.897  0.00  0.00     0.012 A 
HETATM   12  C   UNK N   1      36.059  10.717  18.129  0.00  0.00    -0.024 A 
HETATM   13  C   UNK N   1      35.744  11.576  17.040  0.00  0.00     0.001 A 
HETATM   14  C   UNK N   1      35.863  11.142  19.446  0.00  0.00     0.012 A 
HETATM   15  C   UNK N   1      35.236  12.853  17.331  0.00  0.00     0.014 A 
HETATM   16  C   UNK N   1      35.043  13.270  18.649  0.00  0.00     0.001 A 
HETATM   17  C   UNK N   1      35.356  12.416  19.706  0.00  0.00     0.001 A 
ENDBRANCH   5   8
ENDBRANCH   1   2
BRANCH   1  18
HETATM   18  C   UNK N   1      36.437  13.991  10.514  0.00  0.00     0.032 C 
BRANCH  18  19
HETATM   19  C   UNK N   1      35.928  15.146   9.668  0.00  0.00     0.028 C 
BRANCH  19  20
HETATM   20  C   UNK N   1      35.464  16.333  10.505  0.00  0.00     0.177 C 
BRANCH  20  21
HETATM   21  O   UNK N   1      35.175  17.441   9.736  0.00  0.00    -0.336 OA
BRANCH  21  22
HETATM   22  C   UNK N   1      34.188  17.431   8.812  0.00  0.00     0.143 A 
HETATM   23  C   UNK N   1      34.512  17.475   7.454  0.00  0.00     0.057 A 
HETATM   24  C   UNK N   1      33.491  17.416   6.505  0.00  0.00     0.015 A 
HETATM   25  C   UNK N   1      32.160  17.333   6.916  0.00  0.00    -0.013 A 
HETATM   26  C   UNK N   1      31.867  17.322   8.287  0.00  0.00     0.116 A 
HETATM   27  C   UNK N   1      31.077  17.264   5.881  0.00  0.00     0.051 A 
HETATM   28  N   UNK N   1      32.882  17.361   9.194  0.00  0.00    -0.323 N 
HETATM   29  N   UNK N   1      30.532  17.275   8.745  0.00  0.00    -0.313 N 
ATOM     30  HN  UNK N   1      32.658  17.336  10.189  1.00  0.00     0.169 HD
HETATM   31  C   UNK N   1      29.471  17.215   7.907  0.00  0.00     0.223 A 
HETATM   32  H   UNK N   1      30.367  17.287   9.715  0.00  0.00     0.170 HD
HETATM   33  O   UNK N   1      28.344  17.190   8.373  0.00  0.00    -0.273 OA
HETATM   34  C   UNK N   1      29.641  17.169   6.412  0.00  0.00     0.108 A 
ENDBRANCH  21  22
ENDBRANCH  20  21
ENDBRANCH  19  20
ENDBRANCH  18  19
ENDBRANCH   1  18
TORSDOF 7
ENDMDL
MODEL 2
REMARK VINA RESULT:      -8.3      2.016      3.601
REMARK  7 active torsions:
REMARK  status: ('A' for Active; 'I' for Inactive)
REMARK    1  A    between atoms: C_10  and  N_11 
REMARK    2  A    between atoms: N_14  and  C_17 
REMARK    3  A    between atoms: C_17  and  C_18 
REMARK    4  A    between atoms: C_18  and  C_19 
REMARK    5  A    between atoms: C_19  and  C_20 
REMARK    6  A    between atoms: C_20  and  O_21 
REMARK    7  A    between atoms: O_21  and  C_22 
ROOT
HETATM    1  C   UNK N   1      35.125  14.502   8.217  0.00  0.00     0.272 C 
ENDROOT
BRANCH   1   2
HETATM    2  N   UNK N   1      35.968  14.855   9.349  0.00  0.00     0.091 N 
HETATM    3  C   UNK N   1      35.229  15.620  10.367  0.00  0.00     0.292 C 
HETATM    4  C   UNK N   1      34.398  14.735  11.298  0.00  0.00     0.153 C 
HETATM    5  N   UNK N   1      35.237  13.667  11.781  0.00  0.00    -0.377 N 
HETATM    6  C   UNK N   1      35.803  12.812  10.771  0.00  0.00     0.153 C 
HETATM    7  C   UNK N   1      36.679  13.672   9.863  0.00  0.00     0.292 C 
BRANCH   5   8
HETATM    8  C   UNK N   1      35.586  13.584  13.179  0.00  0.00     0.041 A 
HETATM    9  C   UNK N   1      36.434  14.570  13.716  0.00  0.00     0.030 A 
HETATM   10  C   UNK N   1      36.835  14.541  15.051  0.00  0.00     0.003 A 
HETATM   11  C   UNK N   1      36.404  13.518  15.889  0.00  0.00     0.012 A 
HETATM   12  C   UNK N   1      35.565  12.519  15.401  0.00  0.00    -0.024 A 
HETATM   13  C   UNK N   1      35.141  12.534  14.044  0.00  0.00     0.001 A 
HETATM   14  C   UNK N   1      35.153  11.496  16.261  0.00  0.00     0.012 A 
HETATM   15  C   UNK N   1      34.301  11.498  13.602  0.00  0.00     0.014 A 
HETATM   16  C   UNK N   1      33.893  10.480  14.467  0.00  0.00     0.001 A 
HETATM   17  C   UNK N   1      34.319  10.480  15.795  0.00  0.00     0.001 A 
ENDBRANCH   5   8
ENDBRANCH   1   2
BRANCH   1  18
HETATM   18  C   UNK N   1      35.901  14.816   6.948  0.00  0.00     0.032 C 
BRANCH  18  19
HETATM   19  C   UNK N   1      35.146  14.424   5.689  0.00  0.00     0.028 C 
BRANCH  19  20
HETATM   20  C   UNK N   1      34.362  15.583   5.083  0.00  0.00     0.177 C 
BRANCH  20  21
HETATM   21  O   UNK N   1      34.463  16.737   5.832  0.00  0.00    -0.336 OA
BRANCH  21  22
HETATM   22  C   UNK N   1      33.462  17.151   6.642  0.00  0.00     0.143 A 
HETATM   23  C   UNK N   1      33.755  17.968   7.737  0.00  0.00     0.057 A 
HETATM   24  C   UNK N   1      32.713  18.432   8.541  0.00  0.00     0.015 A 
HETATM   25  C   UNK N   1      31.397  18.063   8.260  0.00  0.00    -0.013 A 
HETATM   26  C   UNK N   1      31.142  17.217   7.172  0.00  0.00     0.116 A 
HETATM   27  C   UNK N   1      30.290  18.576   9.132  0.00  0.00     0.051 A 
HETATM   28  N   UNK N   1      32.173  16.794   6.390  0.00  0.00    -0.323 N 
HETATM   29  N   UNK N   1      29.828  16.792   6.874  0.00  0.00    -0.313 N 
ATOM     30  HN  UNK N   1      31.973  16.191   5.591  1.00  0.00     0.169 HD
HETATM   31  C   UNK N   1      28.749  17.185   7.591  0.00  0.00     0.223 A 
HETATM   32  H   UNK N   1      29.692  16.184   6.112  0.00  0.00     0.170 HD
HETATM   33  O   UNK N   1      27.646  16.767   7.284  0.00  0.00    -0.273 OA
HETATM   34  C   UNK N   1      28.872  18.132   8.755  0.00  0.00     0.108 A 
ENDBRANCH  21  22
ENDBRANCH  20  21
ENDBRANCH  19  20
ENDBRANCH  18  19
ENDBRANCH   1  18
TORSDOF 7
ENDMDL
MODEL 3
REMARK VINA RESULT:      -8.1     10.885     13.852
REMARK  7 active torsions:
REMARK  status: ('A' for Active; 'I' for Inactive)
REMARK    1  A    between atoms: C_10  and  N_11 
REMARK    2  A    between atoms: N_14  and  C_17 
REMARK    3  A    between atoms: C_17  and  C_18 
REMARK    4  A    between atoms: C_18  and  C_19 
REMARK    5  A    between atoms: C_19  and  C_20 
REMARK    6  A    between atoms: C_20  and  O_21 
REMARK    7  A    between atoms: O_21  and  C_22 
ROOT
HETATM    1  C   UNK N   1      20.562  15.045   3.480  0.00  0.00     0.272 C 
ENDROOT
BRANCH   1   2
HETATM    2  N   UNK N   1      21.781  14.406   3.948  0.00  0.00     0.091 N 
HETATM    3  C   UNK N   1      22.629  15.334   4.713  0.00  0.00     0.292 C 
HETATM    4  C   UNK N   1      22.187  15.491   6.170  0.00  0.00     0.153 C 
HETATM    5  N   UNK N   1      22.000  14.177   6.734  0.00  0.00    -0.377 N 
HETATM    6  C   UNK N   1      21.024  13.348   6.076  0.00  0.00     0.153 C 
HETATM    7  C   UNK N   1      21.479  13.138   4.634  0.00  0.00     0.292 C 
BRANCH   5   8
HETATM    8  C   UNK N   1      22.860  13.705   7.791  0.00  0.00     0.041 A 
HETATM    9  C   UNK N   1      24.248  13.666   7.558  0.00  0.00     0.030 A 
HETATM   10  C   UNK N   1      25.138  13.197   8.523  0.00  0.00     0.003 A 
HETATM   11  C   UNK N   1      24.666  12.746   9.750  0.00  0.00     0.012 A 
HETATM   12  C   UNK N   1      23.301  12.764  10.026  0.00  0.00    -0.024 A 
HETATM   13  C   UNK N   1      22.376  13.243   9.057  0.00  0.00     0.001 A 
HETATM   14  C   UNK N   1      22.849  12.296  11.264  0.00  0.00     0.012 A 
HETATM   15  C   UNK N   1      21.010  13.231   9.383  0.00  0.00     0.014 A 
HETATM   16  C   UNK N   1      20.568  12.763  10.623  0.00  0.00     0.001 A 
HETATM   17  C   UNK N   1      21.486  12.296  11.561  0.00  0.00     0.001 A 
ENDBRANCH   5   8
ENDBRANCH   1   2
BRANCH   1  18
HETATM   18  C   UNK N   1      20.958  16.322   2.754  0.00  0.00     0.032 C 
BRANCH  18  19
HETATM   19  C   UNK N   1      20.037  17.486   3.074  0.00  0.00     0.028 C 
BRANCH  19  20
HETATM   20  C   UNK N   1      20.627  18.835   2.676  0.00  0.00     0.177 C 
BRANCH  20  21
HETATM   21  O   UNK N   1      21.336  19.424   3.702  0.00  0.00    -0.336 OA
BRANCH  21  22
HETATM   22  C   UNK N   1      22.683  19.543   3.661  0.00  0.00     0.143 A 
HETATM   23  C   UNK N   1      23.269  20.446   2.771  0.00  0.00     0.057 A 
HETATM   24  C   UNK N   1      24.656  20.599   2.768  0.00  0.00     0.015 A 
HETATM   25  C   UNK N   1      25.445  19.841   3.634  0.00  0.00    -0.013 A 
HETATM   26  C   UNK N   1      24.826  18.921   4.492  0.00  0.00     0.116 A 
HETATM   27  C   UNK N   1      26.932  20.024   3.620  0.00  0.00     0.051 A 
HETATM   28  N   UNK N   1      23.470  18.803   4.492  0.00  0.00    -0.323 N 
HETATM   29  N   UNK N   1      25.590  18.108   5.359  0.00  0.00    -0.313 N 
ATOM     30  HN  UNK N   1      23.030  18.142   5.132  1.00  0.00     0.169 HD
HETATM   31  C   UNK N   1      26.940  18.180   5.432  0.00  0.00     0.223 A 
HETATM   32  H   UNK N   1      25.120  17.462   5.934  0.00  0.00     0.170 HD
HETATM   33  O   UNK N   1      27.535  17.437   6.194  0.00  0.00    -0.273 OA
HETATM   34  C   UNK N   1      27.729  19.158   4.603  0.00  0.00     0.108 A 
ENDBRANCH  21  22
ENDBRANCH  20  21
ENDBRANCH  19  20
ENDBRANCH  18  19
ENDBRANCH   1  18
TORSDOF 7
ENDMDL
MODEL 4
REMARK VINA RESULT:      -8.1      8.558     12.399
REMARK  7 active torsions:
REMARK  status: ('A' for Active; 'I' for Inactive)
REMARK    1  A    between atoms: C_10  and  N_11 
REMARK    2  A    between atoms: N_14  and  C_17 
REMARK    3  A    between atoms: C_17  and  C_18 
REMARK    4  A    between atoms: C_18  and  C_19 
REMARK    5  A    between atoms: C_19  and  C_20 
REMARK    6  A    between atoms: C_20  and  O_21 
REMARK    7  A    between atoms: O_21  and  C_22 
ROOT
HETATM    1  C   UNK N   1      25.655  17.448   3.853  0.00  0.00     0.272 C 
ENDROOT
BRANCH   1   2
HETATM    2  N   UNK N   1      27.103  17.473   3.725  0.00  0.00     0.091 N 
HETATM    3  C   UNK N   1      27.685  18.692   4.310  0.00  0.00     0.292 C 
HETATM    4  C   UNK N   1      27.850  18.612   5.829  0.00  0.00     0.153 C 
HETATM    5  N   UNK N   1      28.505  17.368   6.151  0.00  0.00    -0.377 N 
HETATM    6  C   UNK N   1      27.821  16.174   5.730  0.00  0.00     0.153 C 
HETATM    7  C   UNK N   1      27.695  16.214   4.209  0.00  0.00     0.292 C 
BRANCH   5   8
HETATM    8  C   UNK N   1      29.830  17.364   6.722  0.00  0.00     0.041 A 
HETATM    9  C   UNK N   1      29.954  17.382   8.125  0.00  0.00     0.030 A 
HETATM   10  C   UNK N   1      31.201  17.406   8.747  0.00  0.00     0.003 A 
HETATM   11  C   UNK N   1      32.364  17.419   7.985  0.00  0.00     0.012 A 
HETATM   12  C   UNK N   1      32.290  17.404   6.594  0.00  0.00    -0.024 A 
HETATM   13  C   UNK N   1      31.028  17.374   5.939  0.00  0.00     0.001 A 
HETATM   14  C   UNK N   1      33.473  17.427   5.849  0.00  0.00     0.012 A 
HETATM   15  C   UNK N   1      31.011  17.368   4.535  0.00  0.00     0.014 A 
HETATM   16  C   UNK N   1      32.197  17.391   3.798  0.00  0.00     0.001 A 
HETATM   17  C   UNK N   1      33.427  17.420   4.455  0.00  0.00     0.001 A 
ENDBRANCH   5   8
ENDBRANCH   1   2
BRANCH   1  18
HETATM   18  C   UNK N   1      25.147  16.217   3.118  0.00  0.00     0.032 C 
BRANCH  18  19
HETATM   19  C   UNK N   1      24.079  15.469   3.898  0.00  0.00     0.028 C 
BRANCH  19  20
HETATM   20  C   UNK N   1      23.946  15.956   5.337  0.00  0.00     0.177 C 
BRANCH  20  21
HETATM   21  O   UNK N   1      22.974  15.274   6.038  0.00  0.00    -0.336 OA
BRANCH  21  22
HETATM   22  C   UNK N   1      23.271  14.517   7.118  0.00  0.00     0.143 A 
HETATM   23  C   UNK N   1      24.593  14.126   7.344  0.00  0.00     0.057 A 
HETATM   24  C   UNK N   1      24.901  13.386   8.487  0.00  0.00     0.015 A 
HETATM   25  C   UNK N   1      23.890  13.027   9.379  0.00  0.00    -0.013 A 
HETATM   26  C   UNK N   1      22.569  13.409   9.106  0.00  0.00     0.116 A 
HETATM   27  C   UNK N   1      24.241  12.236  10.604  0.00  0.00     0.051 A 
HETATM   28  N   UNK N   1      22.296  14.148   7.995  0.00  0.00    -0.323 N 
HETATM   29  N   UNK N   1      21.512  13.035   9.964  0.00  0.00    -0.313 N 
ATOM     30  HN  UNK N   1      21.334  14.433   7.815  1.00  0.00     0.169 HD
HETATM   31  C   UNK N   1      21.704  12.319  11.097  0.00  0.00     0.223 A 
HETATM   32  H   UNK N   1      20.596  13.308   9.729  0.00  0.00     0.170 HD
HETATM   33  O   UNK N   1      20.742  12.020  11.784  0.00  0.00    -0.273 OA
HETATM   34  C   UNK N   1      23.077  11.885  11.538  0.00  0.00     0.108 A 
ENDBRANCH  21  22
ENDBRANCH  20  21
ENDBRANCH  19  20
ENDBRANCH  18  19
ENDBRANCH   1  18
TORSDOF 7
ENDMDL
MODEL 5
REMARK VINA RESULT:      -8.1     11.821     15.544
REMARK  7 active torsions:
REMARK  status: ('A' for Active; 'I' for Inactive)
REMARK    1  A    between atoms: C_10  and  N_11 
REMARK    2  A    between atoms: N_14  and  C_17 
REMARK    3  A    between atoms: C_17  and  C_18 
REMARK    4  A    between atoms: C_18  and  C_19 
REMARK    5  A    between atoms: C_19  and  C_20 
REMARK    6  A    between atoms: C_20  and  O_21 
REMARK    7  A    between atoms: O_21  and  C_22 
ROOT
HETATM    1  C   UNK N   1      23.499  13.756   0.862  0.00  0.00     0.272 C 
ENDROOT
BRANCH   1   2
HETATM    2  N   UNK N   1      24.254  13.616   2.098  0.00  0.00     0.091 N 
HETATM    3  C   UNK N   1      25.676  13.949   1.914  0.00  0.00     0.292 C 
HETATM    4  C   UNK N   1      25.951  15.454   1.950  0.00  0.00     0.153 C 
HETATM    5  N   UNK N   1      25.306  16.008   3.115  0.00  0.00    -0.377 N 
HETATM    6  C   UNK N   1      23.879  15.831   3.183  0.00  0.00     0.153 C 
HETATM    7  C   UNK N   1      23.590  14.332   3.201  0.00  0.00     0.292 C 
BRANCH   5   8
HETATM    8  C   UNK N   1      26.090  16.560   4.193  0.00  0.00     0.041 A 
HETATM    9  C   UNK N   1      26.623  15.678   5.153  0.00  0.00     0.030 A 
HETATM   10  C   UNK N   1      27.368  16.141   6.236  0.00  0.00     0.003 A 
HETATM   11  C   UNK N   1      27.598  17.503   6.396  0.00  0.00     0.012 A 
HETATM   12  C   UNK N   1      27.089  18.413   5.474  0.00  0.00    -0.024 A 
HETATM   13  C   UNK N   1      26.331  17.961   4.358  0.00  0.00     0.001 A 
HETATM   14  C   UNK N   1      27.326  19.778   5.662  0.00  0.00     0.012 A 
HETATM   15  C   UNK N   1      25.834  18.922   3.462  0.00  0.00     0.014 A 
HETATM   16  C   UNK N   1      26.076  20.284   3.657  0.00  0.00     0.001 A 
HETATM   17  C   UNK N   1      26.821  20.711   4.755  0.00  0.00     0.001 A 
ENDBRANCH   5   8
ENDBRANCH   1   2
BRANCH   1  18
HETATM   18  C   UNK N   1      22.315  12.804   0.933  0.00  0.00     0.032 C 
BRANCH  18  19
HETATM   19  C   UNK N   1      20.981  13.522   0.825  0.00  0.00     0.028 C 
BRANCH  19  20
HETATM   20  C   UNK N   1      20.134  13.390   2.086  0.00  0.00     0.177 C 
BRANCH  20  21
HETATM   21  O   UNK N   1      19.289  14.465   2.270  0.00  0.00    -0.336 OA
BRANCH  21  22
HETATM   22  C   UNK N   1      19.757  15.694   2.588  0.00  0.00     0.143 A 
HETATM   23  C   UNK N   1      20.147  15.965   3.902  0.00  0.00     0.057 A 
HETATM   24  C   UNK N   1      20.674  17.219   4.213  0.00  0.00     0.015 A 
HETATM   25  C   UNK N   1      20.789  18.194   3.221  0.00  0.00    -0.013 A 
HETATM   26  C   UNK N   1      20.359  17.899   1.920  0.00  0.00     0.116 A 
HETATM   27  C   UNK N   1      21.363  19.533   3.573  0.00  0.00     0.051 A 
HETATM   28  N   UNK N   1      19.866  16.661   1.636  0.00  0.00    -0.323 N 
HETATM   29  N   UNK N   1      20.424  18.868   0.895  0.00  0.00    -0.313 N 
ATOM     30  HN  UNK N   1      19.571  16.453   0.682  1.00  0.00     0.169 HD
HETATM   31  C   UNK N   1      20.919  20.113   1.093  0.00  0.00     0.223 A 
HETATM   32  H   UNK N   1      20.096  18.629  -0.002  0.00  0.00     0.170 HD
HETATM   33  O   UNK N   1      20.931  20.903   0.165  0.00  0.00    -0.273 OA
HETATM   34  C   UNK N   1      21.461  20.548   2.428  0.00  0.00     0.108 A 
ENDBRANCH  21  22
ENDBRANCH  20  21
ENDBRANCH  19  20
ENDBRANCH  18  19
ENDBRANCH   1  18
TORSDOF 7
ENDMDL
MODEL 6
REMARK VINA RESULT:      -8.0      9.083     13.097
REMARK  7 active torsions:
REMARK  status: ('A' for Active; 'I' for Inactive)
REMARK    1  A    between atoms: C_10  and  N_11 
REMARK    2  A    between atoms: N_14  and  C_17 
REMARK    3  A    between atoms: C_17  and  C_18 
REMARK    4  A    between atoms: C_18  and  C_19 
REMARK    5  A    between atoms: C_19  and  C_20 
REMARK    6  A    between atoms: C_20  and  O_21 
REMARK    7  A    between atoms: O_21  and  C_22 
ROOT
HETATM    1  C   UNK N   1      24.084  17.657   3.822  0.00  0.00     0.272 C 
ENDROOT
BRANCH   1   2
HETATM    2  N   UNK N   1      24.901  17.706   5.024  0.00  0.00     0.091 N 
HETATM    3  C   UNK N   1      25.555  16.416   5.296  0.00  0.00     0.292 C 
HETATM    4  C   UNK N   1      26.828  16.202   4.475  0.00  0.00     0.153 C 
HETATM    5  N   UNK N   1      27.652  17.379   4.596  0.00  0.00    -0.377 N 
HETATM    6  C   UNK N   1      27.055  18.609   4.148  0.00  0.00     0.153 C 
HETATM    7  C   UNK N   1      25.810  18.864   4.994  0.00  0.00     0.292 C 
BRANCH   5   8
HETATM    8  C   UNK N   1      28.927  17.314   5.268  0.00  0.00     0.041 A 
HETATM    9  C   UNK N   1      30.064  16.965   4.514  0.00  0.00     0.030 A 
HETATM   10  C   UNK N   1      31.324  16.857   5.099  0.00  0.00     0.003 A 
HETATM   11  C   UNK N   1      31.486  17.090   6.460  0.00  0.00     0.012 A 
HETATM   12  C   UNK N   1      30.390  17.436   7.247  0.00  0.00    -0.024 A 
HETATM   13  C   UNK N   1      29.097  17.556   6.668  0.00  0.00     0.001 A 
HETATM   14  C   UNK N   1      30.576  17.655   8.615  0.00  0.00     0.012 A 
HETATM   15  C   UNK N   1      28.025  17.900   7.509  0.00  0.00     0.014 A 
HETATM   16  C   UNK N   1      28.220  18.119   8.874  0.00  0.00     0.001 A 
HETATM   17  C   UNK N   1      29.493  17.996   9.427  0.00  0.00     0.001 A 
ENDBRANCH   5   8
ENDBRANCH   1   2
BRANCH   1  18
HETATM   18  C   UNK N   1      22.653  17.363   4.246  0.00  0.00     0.032 C 
BRANCH  18  19
HETATM   19  C   UNK N   1      22.311  17.958   5.601  0.00  0.00     0.028 C 
BRANCH  19  20
HETATM   20  C   UNK N   1      21.487  17.014   6.471  0.00  0.00     0.177 C 
BRANCH  20  21
HETATM   21  O   UNK N   1      22.072  15.772   6.604  0.00  0.00    -0.336 OA
BRANCH  21  22
HETATM   22  C   UNK N   1      21.877  15.006   7.701  0.00  0.00     0.143 A 
HETATM   23  C   UNK N   1      20.579  14.785   8.167  0.00  0.00     0.057 A 
HETATM   24  C   UNK N   1      20.381  13.954   9.271  0.00  0.00     0.015 A 
HETATM   25  C   UNK N   1      21.475  13.369   9.909  0.00  0.00    -0.013 A 
HETATM   26  C   UNK N   1      22.767  13.637   9.434  0.00  0.00     0.116 A 
HETATM   27  C   UNK N   1      21.242  12.475  11.090  0.00  0.00     0.051 A 
HETATM   28  N   UNK N   1      22.934  14.435   8.344  0.00  0.00    -0.323 N 
HETATM   29  N   UNK N   1      23.903  13.094  10.073  0.00  0.00    -0.313 N 
ATOM     30  HN  UNK N   1      23.877  14.610   7.998  1.00  0.00     0.169 HD
HETATM   31  C   UNK N   1      23.820  12.276  11.149  0.00  0.00     0.223 A 
HETATM   32  H   UNK N   1      24.795  13.319   9.721  0.00  0.00     0.170 HD
HETATM   33  O   UNK N   1      24.844  11.855  11.658  0.00  0.00    -0.273 OA
HETATM   34  C   UNK N   1      22.494  11.866  11.733  0.00  0.00     0.108 A 
ENDBRANCH  21  22
ENDBRANCH  20  21
ENDBRANCH  19  20
ENDBRANCH  18  19
ENDBRANCH   1  18
TORSDOF 7
ENDMDL
MODEL 7
REMARK VINA RESULT:      -7.9      1.011      2.195
REMARK  7 active torsions:
REMARK  status: ('A' for Active; 'I' for Inactive)
REMARK    1  A    between atoms: C_10  and  N_11 
REMARK    2  A    between atoms: N_14  and  C_17 
REMARK    3  A    between atoms: C_17  and  C_18 
REMARK    4  A    between atoms: C_18  and  C_19 
REMARK    5  A    between atoms: C_19  and  C_20 
REMARK    6  A    between atoms: C_20  and  O_21 
REMARK    7  A    between atoms: O_21  and  C_22 
ROOT
HETATM    1  C   UNK N   1      36.301  12.653  11.790  0.00  0.00     0.272 C 
ENDROOT
BRANCH   1   2
HETATM    2  N   UNK N   1      36.326  13.377  13.051  0.00  0.00     0.091 N 
HETATM    3  C   UNK N   1      34.982  13.508  13.637  0.00  0.00     0.292 C 
HETATM    4  C   UNK N   1      34.532  12.259  14.396  0.00  0.00     0.153 C 
HETATM    5  N   UNK N   1      35.590  11.866  15.295  0.00  0.00    -0.377 N 
HETATM    6  C   UNK N   1      36.853  11.560  14.677  0.00  0.00     0.153 C 
HETATM    7  C   UNK N   1      37.342  12.815  13.958  0.00  0.00     0.292 C 
BRANCH   5   8
HETATM    8  C   UNK N   1      35.400  11.934  16.723  0.00  0.00     0.041 A 
HETATM    9  C   UNK N   1      35.417  13.199  17.341  0.00  0.00     0.030 A 
HETATM   10  C   UNK N   1      35.266  13.341  18.719  0.00  0.00     0.003 A 
HETATM   11  C   UNK N   1      35.101  12.220  19.525  0.00  0.00     0.012 A 
HETATM   12  C   UNK N   1      35.079  10.947  18.959  0.00  0.00    -0.024 A 
HETATM   13  C   UNK N   1      35.226  10.781  17.554  0.00  0.00     0.001 A 
HETATM   14  C   UNK N   1      34.921   9.835  19.790  0.00  0.00     0.012 A 
HETATM   15  C   UNK N   1      35.205   9.475  17.036  0.00  0.00     0.014 A 
HETATM   16  C   UNK N   1      35.045   8.369  17.874  0.00  0.00     0.001 A 
HETATM   17  C   UNK N   1      34.903   8.549  19.249  0.00  0.00     0.001 A 
ENDBRANCH   5   8
ENDBRANCH   1   2
BRANCH   1  18
HETATM   18  C   UNK N   1      35.259  13.312  10.899  0.00  0.00     0.032 C 
BRANCH  18  19
HETATM   19  C   UNK N   1      35.826  14.469  10.094  0.00  0.00     0.028 C 
BRANCH  19  20
HETATM   20  C   UNK N   1      35.443  15.831  10.664  0.00  0.00     0.177 C 
BRANCH  20  21
HETATM   21  O   UNK N   1      35.391  16.812   9.696  0.00  0.00    -0.336 OA
BRANCH  21  22
HETATM   22  C   UNK N   1      34.333  16.936   8.862  0.00  0.00     0.143 A 
HETATM   23  C   UNK N   1      34.539  16.929   7.480  0.00  0.00     0.057 A 
HETATM   24  C   UNK N   1      33.439  17.009   6.625  0.00  0.00     0.015 A 
HETATM   25  C   UNK N   1      32.152  17.116   7.152  0.00  0.00    -0.013 A 
HETATM   26  C   UNK N   1      31.983  17.152   8.543  0.00  0.00     0.116 A 
HETATM   27  C   UNK N   1      30.982  17.195   6.217  0.00  0.00     0.051 A 
HETATM   28  N   UNK N   1      33.070  17.052   9.358  0.00  0.00    -0.323 N 
HETATM   29  N   UNK N   1      30.701  17.295   9.117  0.00  0.00    -0.313 N 
ATOM     30  HN  UNK N   1      32.934  17.064  10.368  1.00  0.00     0.169 HD
HETATM   31  C   UNK N   1      29.571  17.380   8.376  0.00  0.00     0.223 A 
HETATM   32  H   UNK N   1      30.625  17.334  10.098  0.00  0.00     0.170 HD
HETATM   33  O   UNK N   1      28.498  17.516   8.939  0.00  0.00    -0.273 OA
HETATM   34  C   UNK N   1      29.600  17.305   6.873  0.00  0.00     0.108 A 
ENDBRANCH  21  22
ENDBRANCH  20  21
ENDBRANCH  19  20
ENDBRANCH  18  19
ENDBRANCH   1  18
TORSDOF 7
ENDMDL
MODEL 8
REMARK VINA RESULT:      -7.9      8.395     12.174
REMARK  7 active torsions:
REMARK  status: ('A' for Active; 'I' for Inactive)
REMARK    1  A    between atoms: C_10  and  N_11 
REMARK    2  A    between atoms: N_14  and  C_17 
REMARK    3  A    between atoms: C_17  and  C_18 
REMARK    4  A    between atoms: C_18  and  C_19 
REMARK    5  A    between atoms: C_19  and  C_20 
REMARK    6  A    between atoms: C_20  and  O_21 
REMARK    7  A    between atoms: O_21  and  C_22 
ROOT
HETATM    1  C   UNK N   1      26.059  14.866   4.044  0.00  0.00     0.272 C 
ENDROOT
BRANCH   1   2
HETATM    2  N   UNK N   1      27.292  15.174   3.337  0.00  0.00     0.091 N 
HETATM    3  C   UNK N   1      27.597  16.614   3.368  0.00  0.00     0.292 C 
HETATM    4  C   UNK N   1      28.266  17.059   4.670  0.00  0.00     0.153 C 
HETATM    5  N   UNK N   1      29.362  16.164   4.949  0.00  0.00    -0.377 N 
HETATM    6  C   UNK N   1      29.011  14.776   5.100  0.00  0.00     0.153 C 
HETATM    7  C   UNK N   1      28.388  14.302   3.789  0.00  0.00     0.292 C 
BRANCH   5   8
HETATM    8  C   UNK N   1      30.723  16.640   4.921  0.00  0.00     0.041 A 
HETATM    9  C   UNK N   1      31.389  16.686   3.681  0.00  0.00     0.030 A 
HETATM   10  C   UNK N   1      32.713  17.110   3.579  0.00  0.00     0.003 A 
HETATM   11  C   UNK N   1      33.414  17.495   4.716  0.00  0.00     0.012 A 
HETATM   12  C   UNK N   1      32.797  17.464   5.964  0.00  0.00    -0.024 A 
HETATM   13  C   UNK N   1      31.446  17.040   6.089  0.00  0.00     0.001 A 
HETATM   14  C   UNK N   1      33.526  17.847   7.094  0.00  0.00     0.012 A 
HETATM   15  C   UNK N   1      30.874  17.020   7.373  0.00  0.00     0.014 A 
HETATM   16  C   UNK N   1      31.609  17.405   8.496  0.00  0.00     0.001 A 
HETATM   17  C   UNK N   1      32.933  17.818   8.357  0.00  0.00     0.001 A 
ENDBRANCH   5   8
ENDBRANCH   1   2
BRANCH   1  18
HETATM   18  C   UNK N   1      25.655  13.447   3.671  0.00  0.00     0.032 C 
BRANCH  18  19
HETATM   19  C   UNK N   1      25.094  12.670   4.850  0.00  0.00     0.028 C 
BRANCH  19  20
HETATM   20  C   UNK N   1      25.649  13.144   6.189  0.00  0.00     0.177 C 
BRANCH  20  21
HETATM   21  O   UNK N   1      24.809  14.035   6.823  0.00  0.00    -0.336 OA
BRANCH  21  22
HETATM   22  C   UNK N   1      23.957  13.644   7.798  0.00  0.00     0.143 A 
HETATM   23  C   UNK N   1      22.588  13.572   7.529  0.00  0.00     0.057 A 
HETATM   24  C   UNK N   1      21.720  13.121   8.524  0.00  0.00     0.015 A 
HETATM   25  C   UNK N   1      22.218  12.765   9.778  0.00  0.00    -0.013 A 
HETATM   26  C   UNK N   1      23.594  12.879  10.023  0.00  0.00     0.116 A 
HETATM   27  C   UNK N   1      21.271  12.278  10.832  0.00  0.00     0.051 A 
HETATM   28  N   UNK N   1      24.424  13.303   9.031  0.00  0.00    -0.323 N 
HETATM   29  N   UNK N   1      24.135  12.563  11.289  0.00  0.00    -0.313 N 
ATOM     30  HN  UNK N   1      25.425  13.366   9.216  1.00  0.00     0.169 HD
HETATM   31  C   UNK N   1      23.379  12.117  12.320  0.00  0.00     0.223 A 
HETATM   32  H   UNK N   1      25.104  12.673  11.428  0.00  0.00     0.170 HD
HETATM   33  O   UNK N   1      23.912  11.877  13.389  0.00  0.00    -0.273 OA
HETATM   34  C   UNK N   1      21.896  11.901  12.181  0.00  0.00     0.108 A 
ENDBRANCH  21  22
ENDBRANCH  20  21
ENDBRANCH  19  20
ENDBRANCH  18  19
ENDBRANCH   1  18
TORSDOF 7
ENDMDL
MODEL 9
REMARK VINA RESULT:      -7.9      2.722     11.364
REMARK  7 active torsions:
REMARK  status: ('A' for Active; 'I' for Inactive)
REMARK    1  A    between atoms: C_10  and  N_11 
REMARK    2  A    between atoms: N_14  and  C_17 
REMARK    3  A    between atoms: C_17  and  C_18 
REMARK    4  A    between atoms: C_18  and  C_19 
REMARK    5  A    between atoms: C_19  and  C_20 
REMARK    6  A    between atoms: C_20  and  O_21 
REMARK    7  A    between atoms: O_21  and  C_22 
ROOT
HETATM    1  C   UNK N   1      34.578  15.263  10.891  0.00  0.00     0.272 C 
ENDROOT
BRANCH   1   2
HETATM    2  N   UNK N   1      34.681  15.248   9.440  0.00  0.00     0.091 N 
HETATM    3  C   UNK N   1      33.601  14.462   8.821  0.00  0.00     0.292 C 
HETATM    4  C   UNK N   1      32.289  15.238   8.691  0.00  0.00     0.153 C 
HETATM    5  N   UNK N   1      32.574  16.520   8.095  0.00  0.00    -0.377 N 
HETATM    6  C   UNK N   1      33.497  17.354   8.818  0.00  0.00     0.153 C 
HETATM    7  C   UNK N   1      34.829  16.614   8.911  0.00  0.00     0.292 C 
BRANCH   5   8
HETATM    8  C   UNK N   1      32.070  16.846   6.783  0.00  0.00     0.041 A 
HETATM    9  C   UNK N   1      32.973  16.859   5.703  0.00  0.00     0.030 A 
HETATM   10  C   UNK N   1      32.563  17.190   4.412  0.00  0.00     0.003 A 
HETATM   11  C   UNK N   1      31.237  17.524   4.163  0.00  0.00     0.012 A 
HETATM   12  C   UNK N   1      30.307  17.527   5.201  0.00  0.00    -0.024 A 
HETATM   13  C   UNK N   1      30.704  17.187   6.524  0.00  0.00     0.001 A 
HETATM   14  C   UNK N   1      28.982  17.876   4.927  0.00  0.00     0.012 A 
HETATM   15  C   UNK N   1      29.729  17.213   7.534  0.00  0.00     0.014 A 
HETATM   16  C   UNK N   1      28.406  17.562   7.252  0.00  0.00     0.001 A 
HETATM   17  C   UNK N   1      28.033  17.894   5.951  0.00  0.00     0.001 A 
ENDBRANCH   5   8
ENDBRANCH   1   2
BRANCH   1  18
HETATM   18  C   UNK N   1      35.987  15.175  11.455  0.00  0.00     0.032 C 
BRANCH  18  19
HETATM   19  C   UNK N   1      36.015  14.657  12.883  0.00  0.00     0.028 C 
BRANCH  19  20
HETATM   20  C   UNK N   1      36.686  13.294  13.005  0.00  0.00     0.177 C 
BRANCH  20  21
HETATM   21  O   UNK N   1      35.812  12.311  13.423  0.00  0.00    -0.336 OA
BRANCH  21  22
HETATM   22  C   UNK N   1      35.794  11.868  14.700  0.00  0.00     0.143 A 
HETATM   23  C   UNK N   1      36.132  10.541  14.975  0.00  0.00     0.057 A 
HETATM   24  C   UNK N   1      36.158  10.103  16.300  0.00  0.00     0.015 A 
HETATM   25  C   UNK N   1      35.829  10.982  17.333  0.00  0.00    -0.013 A 
HETATM   26  C   UNK N   1      35.464  12.298  17.019  0.00  0.00     0.116 A 
HETATM   27  C   UNK N   1      35.868  10.494  18.750  0.00  0.00     0.051 A 
HETATM   28  N   UNK N   1      35.465  12.708  15.720  0.00  0.00    -0.323 N 
HETATM   29  N   UNK N   1      35.089  13.210  18.031  0.00  0.00    -0.313 N 
ATOM     30  HN  UNK N   1      35.213  13.673  15.506  1.00  0.00     0.169 HD
HETATM   31  C   UNK N   1      35.082  12.885  19.345  0.00  0.00     0.223 A 
HETATM   32  H   UNK N   1      34.822  14.121  17.769  0.00  0.00     0.170 HD
HETATM   33  O   UNK N   1      34.734  13.719  20.163  0.00  0.00    -0.273 OA
HETATM   34  C   UNK N   1      35.499  11.521  19.828  0.00  0.00     0.108 A 
ENDBRANCH  21  22
ENDBRANCH  20  21
ENDBRANCH  19  20
ENDBRANCH  18  19
ENDBRANCH   1  18
TORSDOF 7
ENDMDL
