MODEL 1
REMARK VINA RESULT:      -9.2      0.000      0.000
REMARK  8 active torsions:
REMARK  status: ('A' for Active; 'I' for Inactive)
REMARK    1  A    between atoms: C_2  and  C_17 
REMARK    2  A    between atoms: C_7  and  C_5 
REMARK    3  A    between atoms: C_10  and  C_13 
REMARK    4  A    between atoms: C_13  and  C_14 
REMARK    5  A    between atoms: C_14  and  O_16 
REMARK    6  A    between atoms: C_21  and  N_24 
REMARK    7  A    between atoms: N_24  and  C_25 
REMARK    8  A    between atoms: C_29  and  C_32 
ROOT
HETATM    1  C   UNK N   1      32.824  16.671   8.165  0.00  0.00     0.042 A 
HETATM    2  N   UNK N   1      33.425  17.068   9.329  0.00  0.00    -0.363 N 
ATOM      3  HN  UNK N   1      33.025  17.845   9.856  1.00  0.00     0.165 HD
HETATM    4  C   UNK N   1      34.542  16.449   9.802  0.00  0.00     0.117 A 
HETATM    5  C   UNK N   1      35.119  15.410   9.070  0.00  0.00     0.048 A 
HETATM    6  C   UNK N   1      34.547  15.042   7.846  0.00  0.00     0.033 A 
HETATM    7  C   UNK N   1      33.412  15.676   7.388  0.00  0.00     0.033 A 
ENDROOT
BRANCH   1   8
HETATM    8  C   UNK N   1      31.540  17.250   7.749  0.00  0.00    -0.009 A 
HETATM    9  C   UNK N   1      31.055  17.021   6.462  0.00  0.00     0.014 A 
HETATM   10  C   UNK N   1      29.811  17.520   6.089  0.00  0.00     0.008 A 
HETATM   11  C   UNK N   1      29.049  18.283   6.989  0.00  0.00    -0.054 A 
HETATM   12  C   UNK N   1      29.554  18.554   8.262  0.00  0.00     0.008 A 
HETATM   13  C   UNK N   1      30.797  18.046   8.639  0.00  0.00     0.014 A 
BRANCH  11  14
HETATM   14  C   UNK N   1      27.614  18.601   6.692  0.00  0.00     0.018 C 
HETATM   15  C   UNK N   1      27.197  20.076   6.750  0.00  0.00     0.010 C 
HETATM   16  C   UNK N   1      27.395  20.787   5.411  0.00  0.00     0.006 C 
HETATM   17  C   UNK N   1      26.781  20.006   4.243  0.00  0.00    -0.005 C 
HETATM   18  C   UNK N   1      27.366  18.595   4.179  0.00  0.00     0.006 C 
HETATM   19  C   UNK N   1      27.067  17.851   5.479  0.00  0.00     0.010 C 
BRANCH  17  20
HETATM   20  C   UNK N   1      25.238  20.097   4.173  0.00  0.00     0.114 C 
BRANCH  20  21
HETATM   21  C   UNK N   1      24.658  20.731   2.936  0.00  0.00     0.139 C 
HETATM   22  O   UNK N   1      25.348  20.868   1.940  0.00  0.00    -0.650 OA
BRANCH  21  23
HETATM   23  O   UNK N   1      23.370  21.128   2.917  0.00  0.00    -0.776 OA
HETATM   24  H   UNK N   1      22.982  21.519   3.674  0.00  0.00     0.167 HD
ENDBRANCH  21  23
ENDBRANCH  20  21
ENDBRANCH  17  20
ENDBRANCH  11  14
ENDBRANCH   1   8
BRANCH   5  25
HETATM   25  N   UNK N   1      35.951  14.464   9.713  0.00  0.00    -0.354 N 
HETATM   26  H   UNK N   1      36.618  13.928   9.226  0.00  0.00     0.166 HD
BRANCH  25  27
HETATM   27  C   UNK N   1      35.751  14.348  11.115  0.00  0.00     0.048 A 
HETATM   28  C   UNK N   1      36.337  15.245  12.007  0.00  0.00     0.117 A 
HETATM   29  N   UNK N   1      36.369  14.947  13.339  0.00  0.00    -0.360 N 
HETATM   30  C   UNK N   1      35.850  13.781  13.829  0.00  0.00     0.116 A 
ATOM     31  HN  UNK N   1      36.793  15.612  13.986  1.00  0.00     0.165 HD
HETATM   32  C   UNK N   1      35.214  12.890  12.969  0.00  0.00     0.036 A 
HETATM   33  C   UNK N   1      35.174  13.170  11.619  0.00  0.00     0.033 A 
BRANCH  30  34
HETATM   34  C   UNK N   1      36.013  13.425  15.273  0.00  0.00     0.432 C 
HETATM   35  F   UNK N   1      34.772  13.451  15.882  0.00  0.00    -0.165 F 
HETATM   36  F   UNK N   1      36.839  14.334  15.919  0.00  0.00    -0.165 F 
HETATM   37  F   UNK N   1      36.557  12.163  15.385  0.00  0.00    -0.165 F 
ENDBRANCH  30  34
ENDBRANCH  25  27
ENDBRANCH   5  25
TORSDOF 8
ENDMDL
MODEL 2
REMARK VINA RESULT:      -9.0      8.244     13.988
REMARK  8 active torsions:
REMARK  status: ('A' for Active; 'I' for Inactive)
REMARK    1  A    between atoms: C_2  and  C_17 
REMARK    2  A    between atoms: C_7  and  C_5 
REMARK    3  A    between atoms: C_10  and  C_13 
REMARK    4  A    between atoms: C_13  and  C_14 
REMARK    5  A    between atoms: C_14  and  O_16 
REMARK    6  A    between atoms: C_21  and  N_24 
REMARK    7  A    between atoms: N_24  and  C_25 
REMARK    8  A    between atoms: C_29  and  C_32 
ROOT
HETATM    1  C   UNK N   1      35.431  12.689  14.782  0.00  0.00     0.042 A 
HETATM    2  N   UNK N   1      36.137  13.859  14.871  0.00  0.00    -0.363 N 
ATOM      3  HN  UNK N   1      36.402  14.211  15.790  1.00  0.00     0.165 HD
HETATM    4  C   UNK N   1      36.495  14.561  13.760  0.00  0.00     0.117 A 
HETATM    5  C   UNK N   1      36.105  14.107  12.498  0.00  0.00     0.048 A 
HETATM    6  C   UNK N   1      35.328  12.946  12.406  0.00  0.00     0.033 A 
HETATM    7  C   UNK N   1      34.980  12.245  13.541  0.00  0.00     0.033 A 
ENDROOT
BRANCH   1   8
HETATM    8  C   UNK N   1      35.183  11.871  15.976  0.00  0.00    -0.009 A 
HETATM    9  C   UNK N   1      34.728  10.560  15.843  0.00  0.00     0.014 A 
HETATM   10  C   UNK N   1      34.551   9.767  16.972  0.00  0.00     0.008 A 
HETATM   11  C   UNK N   1      34.796  10.286  18.254  0.00  0.00    -0.054 A 
HETATM   12  C   UNK N   1      35.205  11.614  18.393  0.00  0.00     0.008 A 
HETATM   13  C   UNK N   1      35.392  12.405  17.260  0.00  0.00     0.014 A 
BRANCH  11  14
HETATM   14  C   UNK N   1      34.859   9.377  19.444  0.00  0.00     0.018 C 
HETATM   15  C   UNK N   1      34.948  10.036  20.827  0.00  0.00     0.010 C 
HETATM   16  C   UNK N   1      33.569  10.338  21.415  0.00  0.00     0.006 C 
HETATM   17  C   UNK N   1      32.636   9.121  21.358  0.00  0.00    -0.005 C 
HETATM   18  C   UNK N   1      32.495   8.624  19.919  0.00  0.00     0.006 C 
HETATM   19  C   UNK N   1      33.864   8.220  19.375  0.00  0.00     0.010 C 
BRANCH  17  20
HETATM   20  C   UNK N   1      32.957   8.038  22.415  0.00  0.00     0.114 C 
BRANCH  20  21
HETATM   21  C   UNK N   1      32.029   7.958  23.598  0.00  0.00     0.139 C 
HETATM   22  O   UNK N   1      31.580   6.880  23.950  0.00  0.00    -0.650 OA
BRANCH  21  23
HETATM   23  O   UNK N   1      31.706   9.072  24.285  0.00  0.00    -0.776 OA
HETATM   24  H   UNK N   1      30.981   9.072  24.877  0.00  0.00     0.167 HD
ENDBRANCH  21  23
ENDBRANCH  20  21
ENDBRANCH  17  20
ENDBRANCH  11  14
ENDBRANCH   1   8
BRANCH   5  25
HETATM   25  N   UNK N   1      36.818  14.510  11.346  0.00  0.00    -0.354 N 
HETATM   26  H   UNK N   1      37.742  14.225  11.168  0.00  0.00     0.166 HD
BRANCH  25  27
HETATM   27  C   UNK N   1      36.095  15.359  10.463  0.00  0.00     0.048 A 
HETATM   28  C   UNK N   1      35.576  16.578  10.896  0.00  0.00     0.117 A 
HETATM   29  N   UNK N   1      34.654  17.229  10.127  0.00  0.00    -0.360 N 
HETATM   30  C   UNK N   1      34.212  16.711   8.941  0.00  0.00     0.116 A 
ATOM     31  HN  UNK N   1      34.284  18.124  10.447  1.00  0.00     0.165 HD
HETATM   32  C   UNK N   1      34.750  15.521   8.460  0.00  0.00     0.036 A 
HETATM   33  C   UNK N   1      35.680  14.846   9.224  0.00  0.00     0.033 A 
BRANCH  30  34
HETATM   34  C   UNK N   1      33.110  17.383   8.184  0.00  0.00     0.432 C 
HETATM   35  F   UNK N   1      33.306  18.751   8.231  0.00  0.00    -0.165 F 
HETATM   36  F   UNK N   1      31.874  17.096   8.746  0.00  0.00    -0.165 F 
HETATM   37  F   UNK N   1      33.118  16.960   6.871  0.00  0.00    -0.165 F 
ENDBRANCH  30  34
ENDBRANCH  25  27
ENDBRANCH   5  25
TORSDOF 8
ENDMDL
MODEL 3
REMARK VINA RESULT:      -8.7      1.329      1.758
REMARK  8 active torsions:
REMARK  status: ('A' for Active; 'I' for Inactive)
REMARK    1  A    between atoms: C_2  and  C_17 
REMARK    2  A    between atoms: C_7  and  C_5 
REMARK    3  A    between atoms: C_10  and  C_13 
REMARK    4  A    between atoms: C_13  and  C_14 
REMARK    5  A    between atoms: C_14  and  O_16 
REMARK    6  A    between atoms: C_21  and  N_24 
REMARK    7  A    between atoms: N_24  and  C_25 
REMARK    8  A    between atoms: C_29  and  C_32 
ROOT
HETATM    1  C   UNK N   1      32.579  16.209   8.656  0.00  0.00     0.042 A 
HETATM    2  N   UNK N   1      32.550  15.592   9.878  0.00  0.00    -0.363 N 
ATOM      3  HN  UNK N   1      31.712  15.667  10.454  1.00  0.00     0.165 HD
HETATM    4  C   UNK N   1      33.614  14.879  10.341  0.00  0.00     0.117 A 
HETATM    5  C   UNK N   1      34.781  14.801   9.578  0.00  0.00     0.048 A 
HETATM    6  C   UNK N   1      34.839  15.484   8.357  0.00  0.00     0.033 A 
HETATM    7  C   UNK N   1      33.750  16.195   7.901  0.00  0.00     0.033 A 
ENDROOT
BRANCH   1   8
HETATM    8  C   UNK N   1      31.375  16.846   8.110  0.00  0.00    -0.009 A 
HETATM    9  C   UNK N   1      30.793  16.356   6.941  0.00  0.00     0.014 A 
HETATM   10  C   UNK N   1      29.618  16.923   6.459  0.00  0.00     0.008 A 
HETATM   11  C   UNK N   1      29.026  18.011   7.121  0.00  0.00    -0.054 A 
HETATM   12  C   UNK N   1      29.633  18.535   8.264  0.00  0.00     0.008 A 
HETATM   13  C   UNK N   1      30.805  17.961   8.753  0.00  0.00     0.014 A 
BRANCH  11  14
HETATM   14  C   UNK N   1      27.640  18.457   6.763  0.00  0.00     0.018 C 
HETATM   15  C   UNK N   1      27.320  19.949   6.923  0.00  0.00     0.010 C 
HETATM   16  C   UNK N   1      27.658  20.752   5.666  0.00  0.00     0.006 C 
HETATM   17  C   UNK N   1      27.074  20.117   4.398  0.00  0.00    -0.005 C 
HETATM   18  C   UNK N   1      27.566  18.678   4.248  0.00  0.00     0.006 C 
HETATM   19  C   UNK N   1      27.128  17.852   5.457  0.00  0.00     0.010 C 
BRANCH  17  20
HETATM   20  C   UNK N   1      25.550  20.327   4.240  0.00  0.00     0.114 C 
BRANCH  20  21
HETATM   21  C   UNK N   1      25.064  20.714   2.867  0.00  0.00     0.139 C 
HETATM   22  O   UNK N   1      25.865  21.026   2.002  0.00  0.00    -0.650 OA
BRANCH  21  23
HETATM   23  O   UNK N   1      23.747  20.696   2.583  0.00  0.00    -0.776 OA
HETATM   24  H   UNK N   1      23.257  19.901   2.649  0.00  0.00     0.167 HD
ENDBRANCH  21  23
ENDBRANCH  20  21
ENDBRANCH  17  20
ENDBRANCH  11  14
ENDBRANCH   1   8
BRANCH   5  25
HETATM   25  N   UNK N   1      35.691  13.737   9.776  0.00  0.00    -0.354 N 
HETATM   26  H   UNK N   1      36.375  13.495   9.112  0.00  0.00     0.166 HD
BRANCH  25  27
HETATM   27  C   UNK N   1      35.540  13.044  11.008  0.00  0.00     0.048 A 
HETATM   28  C   UNK N   1      34.778  11.879  11.095  0.00  0.00     0.117 A 
HETATM   29  N   UNK N   1      34.415  11.402  12.322  0.00  0.00    -0.360 N 
HETATM   30  C   UNK N   1      34.768  12.043  13.477  0.00  0.00     0.116 A 
ATOM     31  HN  UNK N   1      33.863  10.546  12.378  1.00  0.00     0.165 HD
HETATM   32  C   UNK N   1      35.570  13.179  13.423  0.00  0.00     0.036 A 
HETATM   33  C   UNK N   1      35.945  13.679  12.193  0.00  0.00     0.033 A 
BRANCH  30  34
HETATM   34  C   UNK N   1      34.248  11.567  14.797  0.00  0.00     0.432 C 
HETATM   35  F   UNK N   1      35.163  10.688  15.347  0.00  0.00    -0.165 F 
HETATM   36  F   UNK N   1      33.038  10.905  14.646  0.00  0.00    -0.165 F 
HETATM   37  F   UNK N   1      34.072  12.641  15.645  0.00  0.00    -0.165 F 
ENDBRANCH  30  34
ENDBRANCH  25  27
ENDBRANCH   5  25
TORSDOF 8
ENDMDL
MODEL 4
REMARK VINA RESULT:      -8.7      1.298      2.114
REMARK  8 active torsions:
REMARK  status: ('A' for Active; 'I' for Inactive)
REMARK    1  A    between atoms: C_2  and  C_17 
REMARK    2  A    between atoms: C_7  and  C_5 
REMARK    3  A    between atoms: C_10  and  C_13 
REMARK    4  A    between atoms: C_13  and  C_14 
REMARK    5  A    between atoms: C_14  and  O_16 
REMARK    6  A    between atoms: C_21  and  N_24 
REMARK    7  A    between atoms: N_24  and  C_25 
REMARK    8  A    between atoms: C_29  and  C_32 
ROOT
HETATM    1  C   UNK N   1      31.635  15.868   7.854  0.00  0.00     0.042 A 
HETATM    2  N   UNK N   1      31.856  14.520   7.949  0.00  0.00    -0.363 N 
ATOM      3  HN  UNK N   1      31.239  13.878   7.451  1.00  0.00     0.165 HD
HETATM    4  C   UNK N   1      32.880  14.016   8.691  0.00  0.00     0.117 A 
HETATM    5  C   UNK N   1      33.708  14.883   9.407  0.00  0.00     0.048 A 
HETATM    6  C   UNK N   1      33.447  16.258   9.366  0.00  0.00     0.033 A 
HETATM    7  C   UNK N   1      32.409  16.750   8.603  0.00  0.00     0.033 A 
ENDROOT
BRANCH   1   8
HETATM    8  C   UNK N   1      30.622  16.398   6.933  0.00  0.00    -0.009 A 
HETATM    9  C   UNK N   1      29.844  17.494   7.305  0.00  0.00     0.014 A 
HETATM   10  C   UNK N   1      28.927  18.033   6.409  0.00  0.00     0.008 A 
HETATM   11  C   UNK N   1      28.750  17.461   5.138  0.00  0.00    -0.054 A 
HETATM   12  C   UNK N   1      29.493  16.334   4.781  0.00  0.00     0.008 A 
HETATM   13  C   UNK N   1      30.419  15.800   5.676  0.00  0.00     0.014 A 
BRANCH  11  14
HETATM   14  C   UNK N   1      27.964  18.179   4.083  0.00  0.00     0.018 C 
HETATM   15  C   UNK N   1      26.735  17.459   3.513  0.00  0.00     0.010 C 
HETATM   16  C   UNK N   1      25.470  17.739   4.325  0.00  0.00     0.006 C 
HETATM   17  C   UNK N   1      25.261  19.238   4.573  0.00  0.00    -0.005 C 
HETATM   18  C   UNK N   1      26.478  19.837   5.276  0.00  0.00     0.006 C 
HETATM   19  C   UNK N   1      27.721  19.652   4.407  0.00  0.00     0.010 C 
BRANCH  17  20
HETATM   20  C   UNK N   1      24.752  20.010   3.333  0.00  0.00     0.114 C 
BRANCH  20  21
HETATM   21  C   UNK N   1      23.260  20.181   3.212  0.00  0.00     0.139 C 
HETATM   22  O   UNK N   1      22.513  19.288   3.576  0.00  0.00    -0.650 OA
BRANCH  21  23
HETATM   23  O   UNK N   1      22.745  21.325   2.722  0.00  0.00    -0.776 OA
HETATM   24  H   UNK N   1      23.126  21.736   1.971  0.00  0.00     0.167 HD
ENDBRANCH  21  23
ENDBRANCH  20  21
ENDBRANCH  17  20
ENDBRANCH  11  14
ENDBRANCH   1   8
BRANCH   5  25
HETATM   25  N   UNK N   1      35.007  14.475   9.787  0.00  0.00    -0.354 N 
HETATM   26  H   UNK N   1      35.702  14.243   9.130  0.00  0.00     0.166 HD
BRANCH  25  27
HETATM   27  C   UNK N   1      35.232  14.425  11.189  0.00  0.00     0.048 A 
HETATM   28  C   UNK N   1      36.015  15.384  11.831  0.00  0.00     0.117 A 
HETATM   29  N   UNK N   1      36.449  15.156  13.106  0.00  0.00    -0.360 N 
HETATM   30  C   UNK N   1      36.146  14.002  13.774  0.00  0.00     0.116 A 
ATOM     31  HN  UNK N   1      37.016  15.865  13.571  1.00  0.00     0.165 HD
HETATM   32  C   UNK N   1      35.325  13.050  13.177  0.00  0.00     0.036 A 
HETATM   33  C   UNK N   1      34.879  13.260  11.888  0.00  0.00     0.033 A 
BRANCH  30  34
HETATM   34  C   UNK N   1      36.740  13.726  15.119  0.00  0.00     0.432 C 
HETATM   35  F   UNK N   1      35.717  13.510  16.024  0.00  0.00    -0.165 F 
HETATM   36  F   UNK N   1      37.497  14.803  15.559  0.00  0.00    -0.165 F 
HETATM   37  F   UNK N   1      37.545  12.607  15.054  0.00  0.00    -0.165 F 
ENDBRANCH  30  34
ENDBRANCH  25  27
ENDBRANCH   5  25
TORSDOF 8
ENDMDL
MODEL 5
REMARK VINA RESULT:      -8.2      3.105      4.774
REMARK  8 active torsions:
REMARK  status: ('A' for Active; 'I' for Inactive)
REMARK    1  A    between atoms: C_2  and  C_17 
REMARK    2  A    between atoms: C_7  and  C_5 
REMARK    3  A    between atoms: C_10  and  C_13 
REMARK    4  A    between atoms: C_13  and  C_14 
REMARK    5  A    between atoms: C_14  and  O_16 
REMARK    6  A    between atoms: C_21  and  N_24 
REMARK    7  A    between atoms: N_24  and  C_25 
REMARK    8  A    between atoms: C_29  and  C_32 
ROOT
HETATM    1  C   UNK N   1      34.891  15.187  10.369  0.00  0.00     0.042 A 
HETATM    2  N   UNK N   1      34.719  13.853  10.626  0.00  0.00    -0.363 N 
ATOM      3  HN  UNK N   1      34.179  13.286   9.973  1.00  0.00     0.165 HD
HETATM    4  C   UNK N   1      35.253  13.266  11.733  0.00  0.00     0.117 A 
HETATM    5  C   UNK N   1      35.962  14.041  12.653  0.00  0.00     0.048 A 
HETATM    6  C   UNK N   1      36.086  15.417  12.428  0.00  0.00     0.033 A 
HETATM    7  C   UNK N   1      35.544  15.992  11.299  0.00  0.00     0.033 A 
ENDROOT
BRANCH   1   8
HETATM    8  C   UNK N   1      34.436  15.770   9.101  0.00  0.00    -0.009 A 
HETATM    9  C   UNK N   1      34.707  15.122   7.896  0.00  0.00     0.014 A 
HETATM   10  C   UNK N   1      34.223  15.645   6.701  0.00  0.00     0.008 A 
HETATM   11  C   UNK N   1      33.489  16.843   6.691  0.00  0.00    -0.054 A 
HETATM   12  C   UNK N   1      33.258  17.519   7.891  0.00  0.00     0.008 A 
HETATM   13  C   UNK N   1      33.734  16.990   9.089  0.00  0.00     0.014 A 
BRANCH  11  14
HETATM   14  C   UNK N   1      32.751  17.272   5.459  0.00  0.00     0.018 C 
HETATM   15  C   UNK N   1      33.119  16.576   4.142  0.00  0.00     0.010 C 
HETATM   16  C   UNK N   1      32.303  15.303   3.912  0.00  0.00     0.006 C 
HETATM   17  C   UNK N   1      30.799  15.538   4.099  0.00  0.00    -0.005 C 
HETATM   18  C   UNK N   1      30.516  16.097   5.494  0.00  0.00     0.006 C 
HETATM   19  C   UNK N   1      31.247  17.426   5.677  0.00  0.00     0.010 C 
BRANCH  17  20
HETATM   20  C   UNK N   1      30.134  16.293   2.925  0.00  0.00     0.114 C 
BRANCH  20  21
HETATM   21  C   UNK N   1      28.689  16.678   3.105  0.00  0.00     0.139 C 
HETATM   22  O   UNK N   1      27.810  15.855   2.911  0.00  0.00    -0.650 OA
BRANCH  21  23
HETATM   23  O   UNK N   1      28.362  17.924   3.501  0.00  0.00    -0.776 OA
HETATM   24  H   UNK N   1      28.137  18.580   2.871  0.00  0.00     0.167 HD
ENDBRANCH  21  23
ENDBRANCH  20  21
ENDBRANCH  17  20
ENDBRANCH  11  14
ENDBRANCH   1   8
BRANCH   5  25
HETATM   25  N   UNK N   1      36.897  13.434  13.523  0.00  0.00    -0.354 N 
HETATM   26  H   UNK N   1      37.869  13.503  13.388  0.00  0.00     0.166 HD
BRANCH  25  27
HETATM   27  C   UNK N   1      36.324  12.716  14.608  0.00  0.00     0.048 A 
HETATM   28  C   UNK N   1      35.453  13.334  15.505  0.00  0.00     0.117 A 
HETATM   29  N   UNK N   1      35.151  12.715  16.685  0.00  0.00    -0.360 N 
HETATM   30  C   UNK N   1      35.689  11.504  17.021  0.00  0.00     0.116 A 
ATOM     31  HN  UNK N   1      34.509  13.170  17.333  1.00  0.00     0.165 HD
HETATM   32  C   UNK N   1      36.521  10.841  16.123  0.00  0.00     0.036 A 
HETATM   33  C   UNK N   1      36.842  11.450  14.928  0.00  0.00     0.033 A 
BRANCH  30  34
HETATM   34  C   UNK N   1      35.440  10.912  18.372  0.00  0.00     0.432 C 
HETATM   35  F   UNK N   1      36.611  10.340  18.833  0.00  0.00    -0.165 F 
HETATM   36  F   UNK N   1      34.464   9.927  18.312  0.00  0.00    -0.165 F 
HETATM   37  F   UNK N   1      35.031  11.898  19.247  0.00  0.00    -0.165 F 
ENDBRANCH  30  34
ENDBRANCH  25  27
ENDBRANCH   5  25
TORSDOF 8
ENDMDL
MODEL 6
REMARK VINA RESULT:      -8.0      3.043      5.456
REMARK  8 active torsions:
REMARK  status: ('A' for Active; 'I' for Inactive)
REMARK    1  A    between atoms: C_2  and  C_17 
REMARK    2  A    between atoms: C_7  and  C_5 
REMARK    3  A    between atoms: C_10  and  C_13 
REMARK    4  A    between atoms: C_13  and  C_14 
REMARK    5  A    between atoms: C_14  and  O_16 
REMARK    6  A    between atoms: C_21  and  N_24 
REMARK    7  A    between atoms: N_24  and  C_25 
REMARK    8  A    between atoms: C_29  and  C_32 
ROOT
HETATM    1  C   UNK N   1      34.958  14.048  11.688  0.00  0.00     0.042 A 
HETATM    2  N   UNK N   1      34.579  12.745  11.863  0.00  0.00    -0.363 N 
ATOM      3  HN  UNK N   1      33.848  12.355  11.267  1.00  0.00     0.165 HD
HETATM    4  C   UNK N   1      35.154  11.956  12.812  0.00  0.00     0.117 A 
HETATM    5  C   UNK N   1      36.129  12.490  13.658  0.00  0.00     0.048 A 
HETATM    6  C   UNK N   1      36.475  13.841  13.527  0.00  0.00     0.033 A 
HETATM    7  C   UNK N   1      35.885  14.622  12.555  0.00  0.00     0.033 A 
ENDROOT
BRANCH   1   8
HETATM    8  C   UNK N   1      34.434  14.838  10.566  0.00  0.00    -0.009 A 
HETATM    9  C   UNK N   1      33.588  14.245   9.629  0.00  0.00     0.014 A 
HETATM   10  C   UNK N   1      33.045  15.009   8.602  0.00  0.00     0.008 A 
HETATM   11  C   UNK N   1      33.367  16.371   8.478  0.00  0.00    -0.054 A 
HETATM   12  C   UNK N   1      34.252  16.955   9.386  0.00  0.00     0.008 A 
HETATM   13  C   UNK N   1      34.789  16.191  10.421  0.00  0.00     0.014 A 
BRANCH  11  14
HETATM   14  C   UNK N   1      32.595  17.253   7.543  0.00  0.00     0.018 C 
HETATM   15  C   UNK N   1      32.068  16.615   6.251  0.00  0.00     0.010 C 
HETATM   16  C   UNK N   1      30.686  15.987   6.436  0.00  0.00     0.006 C 
HETATM   17  C   UNK N   1      29.699  16.948   7.110  0.00  0.00    -0.005 C 
HETATM   18  C   UNK N   1      30.247  17.417   8.458  0.00  0.00     0.006 C 
HETATM   19  C   UNK N   1      31.576  18.142   8.253  0.00  0.00     0.010 C 
BRANCH  17  20
HETATM   20  C   UNK N   1      29.174  18.062   6.174  0.00  0.00     0.114 C 
BRANCH  20  21
HETATM   21  C   UNK N   1      27.826  18.643   6.511  0.00  0.00     0.139 C 
HETATM   22  O   UNK N   1      27.751  19.670   7.165  0.00  0.00    -0.650 OA
BRANCH  21  23
HETATM   23  O   UNK N   1      26.700  18.044   6.075  0.00  0.00    -0.776 OA
HETATM   24  H   UNK N   1      26.436  18.121   5.180  0.00  0.00     0.167 HD
ENDBRANCH  21  23
ENDBRANCH  20  21
ENDBRANCH  17  20
ENDBRANCH  11  14
ENDBRANCH   1   8
BRANCH   5  25
HETATM   25  N   UNK N   1      37.053  11.638  14.305  0.00  0.00    -0.354 N 
HETATM   26  H   UNK N   1      37.870  11.312  13.865  0.00  0.00     0.166 HD
BRANCH  25  27
HETATM   27  C   UNK N   1      36.712  11.291  15.640  0.00  0.00     0.048 A 
HETATM   28  C   UNK N   1      36.960  10.014  16.142  0.00  0.00     0.117 A 
HETATM   29  N   UNK N   1      36.370   9.622  17.309  0.00  0.00    -0.360 N 
HETATM   30  C   UNK N   1      35.527  10.446  18.002  0.00  0.00     0.116 A 
ATOM     31  HN  UNK N   1      36.562   8.689  17.673  1.00  0.00     0.165 HD
HETATM   32  C   UNK N   1      35.300  11.743  17.551  0.00  0.00     0.036 A 
HETATM   33  C   UNK N   1      35.884  12.158  16.372  0.00  0.00     0.033 A 
BRANCH  30  34
HETATM   34  C   UNK N   1      34.797   9.945  19.208  0.00  0.00     0.432 C 
HETATM   35  F   UNK N   1      35.589   9.013  19.853  0.00  0.00    -0.165 F 
HETATM   36  F   UNK N   1      33.604   9.334  18.849  0.00  0.00    -0.165 F 
HETATM   37  F   UNK N   1      34.528  10.994  20.062  0.00  0.00    -0.165 F 
ENDBRANCH  30  34
ENDBRANCH  25  27
ENDBRANCH   5  25
TORSDOF 8
ENDMDL
MODEL 7
REMARK VINA RESULT:      -8.0      7.835     13.289
REMARK  8 active torsions:
REMARK  status: ('A' for Active; 'I' for Inactive)
REMARK    1  A    between atoms: C_2  and  C_17 
REMARK    2  A    between atoms: C_7  and  C_5 
REMARK    3  A    between atoms: C_10  and  C_13 
REMARK    4  A    between atoms: C_13  and  C_14 
REMARK    5  A    between atoms: C_14  and  O_16 
REMARK    6  A    between atoms: C_21  and  N_24 
REMARK    7  A    between atoms: N_24  and  C_25 
REMARK    8  A    between atoms: C_29  and  C_32 
ROOT
HETATM    1  C   UNK N   1      35.217  14.392  12.084  0.00  0.00     0.042 A 
HETATM    2  N   UNK N   1      34.164  14.150  11.244  0.00  0.00    -0.363 N 
ATOM      3  HN  UNK N   1      33.634  13.285  11.346  1.00  0.00     0.165 HD
HETATM    4  C   UNK N   1      33.806  15.039  10.275  0.00  0.00     0.117 A 
HETATM    5  C   UNK N   1      34.549  16.209  10.101  0.00  0.00     0.048 A 
HETATM    6  C   UNK N   1      35.666  16.430  10.915  0.00  0.00     0.033 A 
HETATM    7  C   UNK N   1      36.009  15.522  11.894  0.00  0.00     0.033 A 
ENDROOT
BRANCH   1   8
HETATM    8  C   UNK N   1      35.495  13.496  13.214  0.00  0.00    -0.009 A 
HETATM    9  C   UNK N   1      34.909  12.232  13.265  0.00  0.00     0.014 A 
HETATM   10  C   UNK N   1      35.221  11.363  14.305  0.00  0.00     0.008 A 
HETATM   11  C   UNK N   1      36.099  11.758  15.327  0.00  0.00    -0.054 A 
HETATM   12  C   UNK N   1      36.650  13.041  15.304  0.00  0.00     0.008 A 
HETATM   13  C   UNK N   1      36.345  13.909  14.257  0.00  0.00     0.014 A 
BRANCH  11  14
HETATM   14  C   UNK N   1      36.637  10.752  16.299  0.00  0.00     0.018 C 
HETATM   15  C   UNK N   1      35.929  10.638  17.655  0.00  0.00     0.010 C 
HETATM   16  C   UNK N   1      34.766   9.645  17.620  0.00  0.00     0.006 C 
HETATM   17  C   UNK N   1      35.173   8.299  17.009  0.00  0.00    -0.005 C 
HETATM   18  C   UNK N   1      35.733   8.499  15.601  0.00  0.00     0.006 C 
HETATM   19  C   UNK N   1      36.962   9.404  15.657  0.00  0.00     0.010 C 
BRANCH  17  20
HETATM   20  C   UNK N   1      36.024   7.417  17.952  0.00  0.00     0.114 C 
BRANCH  20  21
HETATM   21  C   UNK N   1      35.601   7.373  19.397  0.00  0.00     0.139 C 
HETATM   22  O   UNK N   1      36.297   7.892  20.252  0.00  0.00    -0.650 OA
BRANCH  21  23
HETATM   23  O   UNK N   1      34.442   6.780  19.747  0.00  0.00    -0.776 OA
HETATM   24  H   UNK N   1      34.328   6.431  20.609  0.00  0.00     0.167 HD
ENDBRANCH  21  23
ENDBRANCH  20  21
ENDBRANCH  17  20
ENDBRANCH  11  14
ENDBRANCH   1   8
BRANCH   5  25
HETATM   25  N   UNK N   1      33.968  17.332   9.468  0.00  0.00    -0.354 N 
HETATM   26  H   UNK N   1      33.985  18.231   9.865  0.00  0.00     0.166 HD
BRANCH  25  27
HETATM   27  C   UNK N   1      33.358  17.060   8.213  0.00  0.00     0.048 A 
HETATM   28  C   UNK N   1      34.110  17.005   7.040  0.00  0.00     0.117 A 
HETATM   29  N   UNK N   1      33.475  17.033   5.831  0.00  0.00    -0.360 N 
HETATM   30  C   UNK N   1      32.114  17.124   5.735  0.00  0.00     0.116 A 
ATOM     31  HN  UNK N   1      34.030  16.986   4.977  1.00  0.00     0.165 HD
HETATM   32  C   UNK N   1      31.335  17.130   6.889  0.00  0.00     0.036 A 
HETATM   33  C   UNK N   1      31.958  17.107   8.120  0.00  0.00     0.033 A 
BRANCH  30  34
HETATM   34  C   UNK N   1      31.457  17.280   4.400  0.00  0.00     0.432 C 
HETATM   35  F   UNK N   1      31.073  16.033   3.942  0.00  0.00    -0.165 F 
HETATM   36  F   UNK N   1      32.331  17.838   3.477  0.00  0.00    -0.165 F 
HETATM   37  F   UNK N   1      30.347  18.091   4.516  0.00  0.00    -0.165 F 
ENDBRANCH  30  34
ENDBRANCH  25  27
ENDBRANCH   5  25
TORSDOF 8
ENDMDL
MODEL 8
REMARK VINA RESULT:      -7.9      8.201     14.193
REMARK  8 active torsions:
REMARK  status: ('A' for Active; 'I' for Inactive)
REMARK    1  A    between atoms: C_2  and  C_17 
REMARK    2  A    between atoms: C_7  and  C_5 
REMARK    3  A    between atoms: C_10  and  C_13 
REMARK    4  A    between atoms: C_13  and  C_14 
REMARK    5  A    between atoms: C_14  and  O_16 
REMARK    6  A    between atoms: C_21  and  N_24 
REMARK    7  A    between atoms: N_24  and  C_25 
REMARK    8  A    between atoms: C_29  and  C_32 
ROOT
HETATM    1  C   UNK N   1      35.421  12.850  14.597  0.00  0.00     0.042 A 
HETATM    2  N   UNK N   1      36.080  14.048  14.671  0.00  0.00    -0.363 N 
ATOM      3  HN  UNK N   1      36.331  14.422  15.585  1.00  0.00     0.165 HD
HETATM    4  C   UNK N   1      36.409  14.749  13.551  0.00  0.00     0.117 A 
HETATM    5  C   UNK N   1      36.037  14.264  12.296  0.00  0.00     0.048 A 
HETATM    6  C   UNK N   1      35.307  13.072  12.218  0.00  0.00     0.033 A 
HETATM    7  C   UNK N   1      34.988  12.372  13.363  0.00  0.00     0.033 A 
ENDROOT
BRANCH   1   8
HETATM    8  C   UNK N   1      35.207  12.038  15.802  0.00  0.00    -0.009 A 
HETATM    9  C   UNK N   1      34.803  10.708  15.686  0.00  0.00     0.014 A 
HETATM   10  C   UNK N   1      34.659   9.923  16.825  0.00  0.00     0.008 A 
HETATM   11  C   UNK N   1      34.884  10.468  18.101  0.00  0.00    -0.054 A 
HETATM   12  C   UNK N   1      35.241  11.812  18.222  0.00  0.00     0.008 A 
HETATM   13  C   UNK N   1      35.395  12.596  17.079  0.00  0.00     0.014 A 
BRANCH  11  14
HETATM   14  C   UNK N   1      34.983   9.576  19.302  0.00  0.00     0.018 C 
HETATM   15  C   UNK N   1      34.037   8.370  19.361  0.00  0.00     0.010 C 
HETATM   16  C   UNK N   1      34.628   7.136  18.678  0.00  0.00     0.006 C 
HETATM   17  C   UNK N   1      36.054   6.838  19.155  0.00  0.00    -0.005 C 
HETATM   18  C   UNK N   1      36.959   8.049  18.922  0.00  0.00     0.006 C 
HETATM   19  C   UNK N   1      36.423   9.251  19.697  0.00  0.00     0.010 C 
BRANCH  17  20
HETATM   20  C   UNK N   1      36.123   6.210  20.566  0.00  0.00     0.114 C 
BRANCH  20  21
HETATM   21  C   UNK N   1      35.009   5.266  20.937  0.00  0.00     0.139 C 
HETATM   22  O   UNK N   1      34.993   4.134  20.484  0.00  0.00    -0.650 OA
BRANCH  21  23
HETATM   23  O   UNK N   1      34.038   5.660  21.785  0.00  0.00    -0.776 OA
HETATM   24  H   UNK N   1      34.165   6.404  22.339  0.00  0.00     0.167 HD
ENDBRANCH  21  23
ENDBRANCH  20  21
ENDBRANCH  17  20
ENDBRANCH  11  14
ENDBRANCH   1   8
BRANCH   5  25
HETATM   25  N   UNK N   1      36.733  14.681  11.137  0.00  0.00    -0.354 N 
HETATM   26  H   UNK N   1      37.669  14.435  10.965  0.00  0.00     0.166 HD
BRANCH  25  27
HETATM   27  C   UNK N   1      35.974  15.482  10.241  0.00  0.00     0.048 A 
HETATM   28  C   UNK N   1      35.382  16.674  10.660  0.00  0.00     0.117 A 
HETATM   29  N   UNK N   1      34.434  17.267   9.876  0.00  0.00    -0.360 N 
HETATM   30  C   UNK N   1      34.036  16.718   8.688  0.00  0.00     0.116 A 
ATOM     31  HN  UNK N   1      34.011  18.141  10.185  1.00  0.00     0.165 HD
HETATM   32  C   UNK N   1      34.645  15.556   8.222  0.00  0.00     0.036 A 
HETATM   33  C   UNK N   1      35.603  14.940   9.000  0.00  0.00     0.033 A 
BRANCH  30  34
HETATM   34  C   UNK N   1      32.907  17.322   7.915  0.00  0.00     0.432 C 
HETATM   35  F   UNK N   1      33.424  18.005   6.829  0.00  0.00    -0.165 F 
HETATM   36  F   UNK N   1      32.191  18.217   8.697  0.00  0.00    -0.165 F 
HETATM   37  F   UNK N   1      32.057  16.329   7.474  0.00  0.00    -0.165 F 
ENDBRANCH  30  34
ENDBRANCH  25  27
ENDBRANCH   5  25
TORSDOF 8
ENDMDL
MODEL 9
REMARK VINA RESULT:      -7.8      8.470     14.027
REMARK  8 active torsions:
REMARK  status: ('A' for Active; 'I' for Inactive)
REMARK    1  A    between atoms: C_2  and  C_17 
REMARK    2  A    between atoms: C_7  and  C_5 
REMARK    3  A    between atoms: C_10  and  C_13 
REMARK    4  A    between atoms: C_13  and  C_14 
REMARK    5  A    between atoms: C_14  and  O_16 
REMARK    6  A    between atoms: C_21  and  N_24 
REMARK    7  A    between atoms: N_24  and  C_25 
REMARK    8  A    between atoms: C_29  and  C_32 
ROOT
HETATM    1  C   UNK N   1      35.770  11.790  14.397  0.00  0.00     0.042 A 
HETATM    2  N   UNK N   1      34.927  12.688  13.800  0.00  0.00    -0.363 N 
ATOM      3  HN  UNK N   1      34.027  12.891  14.234  1.00  0.00     0.165 HD
HETATM    4  C   UNK N   1      35.263  13.319  12.640  0.00  0.00     0.117 A 
HETATM    5  C   UNK N   1      36.477  13.022  12.017  0.00  0.00     0.048 A 
HETATM    6  C   UNK N   1      37.314  12.056  12.589  0.00  0.00     0.033 A 
HETATM    7  C   UNK N   1      36.960  11.433  13.766  0.00  0.00     0.033 A 
ENDROOT
BRANCH   1   8
HETATM    8  C   UNK N   1      35.457  11.233  15.719  0.00  0.00    -0.009 A 
HETATM    9  C   UNK N   1      35.079   9.897  15.843  0.00  0.00     0.014 A 
HETATM   10  C   UNK N   1      34.841   9.356  17.102  0.00  0.00     0.008 A 
HETATM   11  C   UNK N   1      34.947  10.153  18.253  0.00  0.00    -0.054 A 
HETATM   12  C   UNK N   1      35.279  11.503  18.128  0.00  0.00     0.008 A 
HETATM   13  C   UNK N   1      35.526  12.044  16.867  0.00  0.00     0.014 A 
BRANCH  11  14
HETATM   14  C   UNK N   1      34.948   9.526  19.615  0.00  0.00     0.018 C 
HETATM   15  C   UNK N   1      34.917  10.472  20.823  0.00  0.00     0.010 C 
HETATM   16  C   UNK N   1      33.491  10.834  21.239  0.00  0.00     0.006 C 
HETATM   17  C   UNK N   1      32.599   9.595  21.389  0.00  0.00    -0.005 C 
HETATM   18  C   UNK N   1      32.577   8.793  20.088  0.00  0.00     0.006 C 
HETATM   19  C   UNK N   1      33.993   8.340  19.736  0.00  0.00     0.010 C 
BRANCH  17  20
HETATM   20  C   UNK N   1      32.872   8.782  22.676  0.00  0.00     0.114 C 
BRANCH  20  21
HETATM   21  C   UNK N   1      34.021   9.245  23.534  0.00  0.00     0.139 C 
HETATM   22  O   UNK N   1      35.072   8.627  23.531  0.00  0.00    -0.650 OA
BRANCH  21  23
HETATM   23  O   UNK N   1      33.899  10.354  24.290  0.00  0.00    -0.776 OA
HETATM   24  H   UNK N   1      34.117  10.335  25.201  0.00  0.00     0.167 HD
ENDBRANCH  21  23
ENDBRANCH  20  21
ENDBRANCH  17  20
ENDBRANCH  11  14
ENDBRANCH   1   8
BRANCH   5  25
HETATM   25  N   UNK N   1      37.061  13.946  11.121  0.00  0.00    -0.354 N 
HETATM   26  H   UNK N   1      38.030  13.979  10.952  0.00  0.00     0.166 HD
BRANCH  25  27
HETATM   27  C   UNK N   1      36.142  14.822  10.482  0.00  0.00     0.048 A 
HETATM   28  C   UNK N   1      35.646  14.547   9.208  0.00  0.00     0.117 A 
HETATM   29  N   UNK N   1      35.005  15.530   8.509  0.00  0.00    -0.360 N 
HETATM   30  C   UNK N   1      34.841  16.787   9.020  0.00  0.00     0.116 A 
ATOM     31  HN  UNK N   1      34.639  15.320   7.580  1.00  0.00     0.165 HD
HETATM   32  C   UNK N   1      35.280  17.075  10.309  0.00  0.00     0.036 A 
HETATM   33  C   UNK N   1      35.934  16.098  11.030  0.00  0.00     0.033 A 
BRANCH  30  34
HETATM   34  C   UNK N   1      34.248  17.875   8.181  0.00  0.00     0.432 C 
HETATM   35  F   UNK N   1      34.947  19.046   8.409  0.00  0.00    -0.165 F 
HETATM   36  F   UNK N   1      32.916  18.087   8.510  0.00  0.00    -0.165 F 
HETATM   37  F   UNK N   1      34.333  17.537   6.847  0.00  0.00    -0.165 F 
ENDBRANCH  30  34
ENDBRANCH  25  27
ENDBRANCH   5  25
TORSDOF 8
ENDMDL
