MODEL 1
REMARK VINA RESULT:      -5.3      0.000      0.000
REMARK  1 active torsions:
REMARK  status: ('A' for Active; 'I' for Inactive)
REMARK    1  A    between atoms: C_3  and  N_11 
ROOT
HETATM    1  C   UNK N   1      32.428  17.091   3.228  0.00  0.00     0.005 A 
HETATM    2  C   UNK N   1      31.115  16.989   3.689  0.00  0.00     0.032 A 
HETATM    3  C   UNK N   1      30.810  17.127   5.056  0.00  0.00     0.067 A 
HETATM    4  C   UNK N   1      31.882  17.379   5.963  0.00  0.00     0.128 A 
HETATM    5  C   UNK N   1      33.195  17.477   5.486  0.00  0.00     0.104 A 
HETATM    6  C   UNK N   1      33.465  17.333   4.126  0.00  0.00     0.040 A 
HETATM    7  O   UNK N   1      34.211  17.715   6.342  0.00  0.00    -0.346 OA
HETATM    8  C   UNK N   1      34.065  17.876   7.708  0.00  0.00     0.202 A 
HETATM    9  C   UNK N   1      32.624  17.781   8.239  0.00  0.00     0.202 A 
HETATM   10  O   UNK N   1      31.654  17.529   7.284  0.00  0.00    -0.344 OA
ENDROOT
BRANCH   3  11
HETATM   11  N   UNK N   1      29.439  17.014   5.492  0.00  0.00    -0.376 N 
HETATM   12  C   UNK N   1      28.646  18.211   5.741  0.00  0.00     0.142 C 
HETATM   13  C   UNK N   1      27.152  17.937   5.741  0.00  0.00     0.133 C 
HETATM   14  N   UNK N   1      26.873  16.833   6.641  0.00  0.00    -0.418 N 
HETATM   15  C   UNK N   1      27.405  15.643   5.995  0.00  0.00     0.133 C 
HETATM   16  H   UNK N   1      26.401  16.882   7.544  0.00  0.00     0.153 HD
HETATM   17  C   UNK N   1      28.933  15.705   5.905  0.00  0.00     0.142 C 
ENDBRANCH   3  11
TORSDOF 1
ENDMDL
MODEL 2
REMARK VINA RESULT:      -5.3      8.743     10.963
REMARK  1 active torsions:
REMARK  status: ('A' for Active; 'I' for Inactive)
REMARK    1  A    between atoms: C_3  and  N_11 
ROOT
HETATM    1  C   UNK N   1      33.819  10.453  13.336  0.00  0.00     0.005 A 
HETATM    2  C   UNK N   1      34.618  11.159  12.435  0.00  0.00     0.032 A 
HETATM    3  C   UNK N   1      35.428  12.228  12.863  0.00  0.00     0.067 A 
HETATM    4  C   UNK N   1      35.416  12.570  14.247  0.00  0.00     0.128 A 
HETATM    5  C   UNK N   1      34.608  11.853  15.139  0.00  0.00     0.104 A 
HETATM    6  C   UNK N   1      33.815  10.802  14.685  0.00  0.00     0.040 A 
HETATM    7  O   UNK N   1      34.595  12.176  16.449  0.00  0.00    -0.346 OA
HETATM    8  C   UNK N   1      35.337  13.196  17.015  0.00  0.00     0.202 A 
HETATM    9  C   UNK N   1      36.236  13.982  16.044  0.00  0.00     0.202 A 
HETATM   10  O   UNK N   1      36.176  13.580  14.721  0.00  0.00    -0.344 OA
ENDROOT
BRANCH   3  11
HETATM   11  N   UNK N   1      36.238  12.934  11.900  0.00  0.00    -0.376 N 
HETATM   12  C   UNK N   1      37.637  12.570  11.708  0.00  0.00     0.142 C 
HETATM   13  C   UNK N   1      38.199  13.069  10.388  0.00  0.00     0.133 C 
HETATM   14  N   UNK N   1      37.925  14.489  10.264  0.00  0.00    -0.418 N 
HETATM   15  C   UNK N   1      36.490  14.604  10.051  0.00  0.00     0.133 C 
HETATM   16  H   UNK N   1      38.601  15.251  10.315  0.00  0.00     0.153 HD
HETATM   17  C   UNK N   1      35.714  14.158  11.294  0.00  0.00     0.142 C 
ENDBRANCH   3  11
TORSDOF 1
ENDMDL
MODEL 3
REMARK VINA RESULT:      -5.3      3.155      5.410
REMARK  1 active torsions:
REMARK  status: ('A' for Active; 'I' for Inactive)
REMARK    1  A    between atoms: C_3  and  N_11 
ROOT
HETATM    1  C   UNK N   1      31.198  16.478   5.294  0.00  0.00     0.005 A 
HETATM    2  C   UNK N   1      32.109  16.204   6.315  0.00  0.00     0.032 A 
HETATM    3  C   UNK N   1      31.863  16.613   7.640  0.00  0.00     0.067 A 
HETATM    4  C   UNK N   1      30.651  17.312   7.915  0.00  0.00     0.128 A 
HETATM    5  C   UNK N   1      29.746  17.581   6.879  0.00  0.00     0.104 A 
HETATM    6  C   UNK N   1      30.021  17.167   5.577  0.00  0.00     0.040 A 
HETATM    7  O   UNK N   1      28.600  18.244   7.136  0.00  0.00    -0.346 OA
HETATM    8  C   UNK N   1      28.221  18.703   8.385  0.00  0.00     0.202 A 
HETATM    9  C   UNK N   1      29.203  18.402   9.530  0.00  0.00     0.202 A 
HETATM   10  O   UNK N   1      30.353  17.723   9.165  0.00  0.00    -0.344 OA
ENDROOT
BRANCH   3  11
HETATM   11  N   UNK N   1      32.830  16.311   8.667  0.00  0.00    -0.376 N 
HETATM   12  C   UNK N   1      32.652  15.147   9.527  0.00  0.00     0.142 C 
HETATM   13  C   UNK N   1      33.937  14.721  10.215  0.00  0.00     0.133 C 
HETATM   14  N   UNK N   1      34.524  15.873  10.875  0.00  0.00    -0.418 N 
HETATM   15  C   UNK N   1      35.015  16.738   9.815  0.00  0.00     0.133 C 
HETATM   16  H   UNK N   1      34.580  16.040  11.880  0.00  0.00     0.153 HD
HETATM   17  C   UNK N   1      33.855  17.304   8.989  0.00  0.00     0.142 C 
ENDBRANCH   3  11
TORSDOF 1
ENDMDL
MODEL 4
REMARK VINA RESULT:      -5.2      2.751      5.063
REMARK  1 active torsions:
REMARK  status: ('A' for Active; 'I' for Inactive)
REMARK    1  A    between atoms: C_3  and  N_11 
ROOT
HETATM    1  C   UNK N   1      33.090  17.248   4.344  0.00  0.00     0.005 A 
HETATM    2  C   UNK N   1      33.611  16.885   5.586  0.00  0.00     0.032 A 
HETATM    3  C   UNK N   1      32.787  16.800   6.725  0.00  0.00     0.067 A 
HETATM    4  C   UNK N   1      31.399  17.091   6.575  0.00  0.00     0.128 A 
HETATM    5  C   UNK N   1      30.891  17.456   5.322  0.00  0.00     0.104 A 
HETATM    6  C   UNK N   1      31.732  17.535   4.214  0.00  0.00     0.040 A 
HETATM    7  O   UNK N   1      29.578  17.733   5.178  0.00  0.00    -0.346 OA
HETATM    8  C   UNK N   1      28.649  17.689   6.202  0.00  0.00     0.202 A 
HETATM    9  C   UNK N   1      29.197  17.278   7.580  0.00  0.00     0.202 A 
HETATM   10  O   UNK N   1      30.556  17.020   7.626  0.00  0.00    -0.344 OA
ENDROOT
BRANCH   3  11
HETATM   11  N   UNK N   1      33.365  16.421   7.992  0.00  0.00    -0.376 N 
HETATM   12  C   UNK N   1      33.071  15.118   8.574  0.00  0.00     0.142 C 
HETATM   13  C   UNK N   1      34.080  14.705   9.632  0.00  0.00     0.133 C 
HETATM   14  N   UNK N   1      34.219  15.778  10.598  0.00  0.00    -0.418 N 
HETATM   15  C   UNK N   1      34.917  16.852   9.909  0.00  0.00     0.133 C 
HETATM   16  H   UNK N   1      33.893  15.779  11.565  0.00  0.00     0.153 HD
HETATM   17  C   UNK N   1      34.051  17.438   8.789  0.00  0.00     0.142 C 
ENDBRANCH   3  11
TORSDOF 1
ENDMDL
MODEL 5
REMARK VINA RESULT:      -5.2      7.466      9.451
REMARK  1 active torsions:
REMARK  status: ('A' for Active; 'I' for Inactive)
REMARK    1  A    between atoms: C_3  and  N_11 
ROOT
HETATM    1  C   UNK N   1      20.249  19.934   2.384  0.00  0.00     0.005 A 
HETATM    2  C   UNK N   1      20.277  18.962   3.384  0.00  0.00     0.032 A 
HETATM    3  C   UNK N   1      21.480  18.610   4.025  0.00  0.00     0.067 A 
HETATM    4  C   UNK N   1      22.675  19.280   3.629  0.00  0.00     0.128 A 
HETATM    5  C   UNK N   1      22.632  20.254   2.622  0.00  0.00     0.104 A 
HETATM    6  C   UNK N   1      21.426  20.577   2.004  0.00  0.00     0.040 A 
HETATM    7  O   UNK N   1      23.761  20.888   2.245  0.00  0.00    -0.346 OA
HETATM    8  C   UNK N   1      25.013  20.652   2.785  0.00  0.00     0.202 A 
HETATM    9  C   UNK N   1      25.066  19.592   3.900  0.00  0.00     0.202 A 
HETATM   10  O   UNK N   1      23.858  18.995   4.211  0.00  0.00    -0.344 OA
ENDROOT
BRANCH   3  11
HETATM   11  N   UNK N   1      21.466  17.599   5.054  0.00  0.00    -0.376 N 
HETATM   12  C   UNK N   1      21.317  17.976   6.454  0.00  0.00     0.142 C 
HETATM   13  C   UNK N   1      20.871  16.818   7.331  0.00  0.00     0.133 C 
HETATM   14  N   UNK N   1      21.750  15.686   7.103  0.00  0.00    -0.418 N 
HETATM   15  C   UNK N   1      21.440  15.199   5.768  0.00  0.00     0.133 C 
HETATM   16  H   UNK N   1      22.444  15.309   7.749  0.00  0.00     0.153 HD
HETATM   17  C   UNK N   1      21.835  16.227   4.704  0.00  0.00     0.142 C 
ENDBRANCH   3  11
TORSDOF 1
ENDMDL
MODEL 6
REMARK VINA RESULT:      -5.2      2.767      5.601
REMARK  1 active torsions:
REMARK  status: ('A' for Active; 'I' for Inactive)
REMARK    1  A    between atoms: C_3  and  N_11 
ROOT
HETATM    1  C   UNK N   1      28.786  18.674   8.982  0.00  0.00     0.005 A 
HETATM    2  C   UNK N   1      30.081  18.206   9.204  0.00  0.00     0.032 A 
HETATM    3  C   UNK N   1      30.812  17.574   8.180  0.00  0.00     0.067 A 
HETATM    4  C   UNK N   1      30.194  17.428   6.903  0.00  0.00     0.128 A 
HETATM    5  C   UNK N   1      28.892  17.902   6.696  0.00  0.00     0.104 A 
HETATM    6  C   UNK N   1      28.193  18.520   7.731  0.00  0.00     0.040 A 
HETATM    7  O   UNK N   1      28.306  17.764   5.489  0.00  0.00    -0.346 OA
HETATM    8  C   UNK N   1      28.899  17.168   4.390  0.00  0.00     0.202 A 
HETATM    9  C   UNK N   1      30.334  16.655   4.606  0.00  0.00     0.202 A 
HETATM   10  O   UNK N   1      30.845  16.838   5.879  0.00  0.00    -0.344 OA
ENDROOT
BRANCH   3  11
HETATM   11  N   UNK N   1      32.149  17.103   8.450  0.00  0.00    -0.376 N 
HETATM   12  C   UNK N   1      33.302  17.926   8.108  0.00  0.00     0.142 C 
HETATM   13  C   UNK N   1      34.562  17.511   8.850  0.00  0.00     0.133 C 
HETATM   14  N   UNK N   1      34.767  16.086   8.673  0.00  0.00    -0.418 N 
HETATM   15  C   UNK N   1      33.724  15.430   9.446  0.00  0.00     0.133 C 
HETATM   16  H   UNK N   1      35.495  15.635   8.118  0.00  0.00     0.153 HD
HETATM   17  C   UNK N   1      32.342  15.708   8.848  0.00  0.00     0.142 C 
ENDBRANCH   3  11
TORSDOF 1
ENDMDL
MODEL 7
REMARK VINA RESULT:      -5.1     13.100     14.342
REMARK  1 active torsions:
REMARK  status: ('A' for Active; 'I' for Inactive)
REMARK    1  A    between atoms: C_3  and  N_11 
ROOT
HETATM    1  C   UNK N   1      25.147  25.988  -5.757  0.00  0.00     0.005 A 
HETATM    2  C   UNK N   1      26.182  25.210  -5.235  0.00  0.00     0.032 A 
HETATM    3  C   UNK N   1      27.135  25.760  -4.356  0.00  0.00     0.067 A 
HETATM    4  C   UNK N   1      27.012  27.136  -4.005  0.00  0.00     0.128 A 
HETATM    5  C   UNK N   1      25.968  27.905  -4.537  0.00  0.00     0.104 A 
HETATM    6  C   UNK N   1      25.043  27.332  -5.408  0.00  0.00     0.040 A 
HETATM    7  O   UNK N   1      25.850  29.208  -4.207  0.00  0.00    -0.346 OA
HETATM    8  C   UNK N   1      26.706  29.883  -3.355  0.00  0.00     0.202 A 
HETATM    9  C   UNK N   1      27.848  29.043  -2.758  0.00  0.00     0.202 A 
HETATM   10  O   UNK N   1      27.887  27.720  -3.161  0.00  0.00    -0.344 OA
ENDROOT
BRANCH   3  11
HETATM   11  N   UNK N   1      28.190  24.922  -3.840  0.00  0.00    -0.376 N 
HETATM   12  C   UNK N   1      29.545  25.039  -4.364  0.00  0.00     0.142 C 
HETATM   13  C   UNK N   1      30.589  24.445  -3.434  0.00  0.00     0.133 C 
HETATM   14  N   UNK N   1      30.195  23.094  -3.082  0.00  0.00    -0.418 N 
HETATM   15  C   UNK N   1      29.042  23.226  -2.206  0.00  0.00     0.133 C 
HETATM   16  H   UNK N   1      30.638  22.227  -3.387  0.00  0.00     0.153 HD
HETATM   17  C   UNK N   1      27.842  23.804  -2.964  0.00  0.00     0.142 C 
ENDBRANCH   3  11
TORSDOF 1
ENDMDL
MODEL 8
REMARK VINA RESULT:      -5.0      8.688     10.665
REMARK  1 active torsions:
REMARK  status: ('A' for Active; 'I' for Inactive)
REMARK    1  A    between atoms: C_3  and  N_11 
ROOT
HETATM    1  C   UNK N   1      37.951  10.941  13.334  0.00  0.00     0.005 A 
HETATM    2  C   UNK N   1      37.341  11.925  12.554  0.00  0.00     0.032 A 
HETATM    3  C   UNK N   1      36.321  12.741  13.078  0.00  0.00     0.067 A 
HETATM    4  C   UNK N   1      35.928  12.541  14.434  0.00  0.00     0.128 A 
HETATM    5  C   UNK N   1      36.549  11.549  15.205  0.00  0.00     0.104 A 
HETATM    6  C   UNK N   1      37.553  10.754  14.656  0.00  0.00     0.040 A 
HETATM    7  O   UNK N   1      36.178  11.358  16.488  0.00  0.00    -0.346 OA
HETATM    8  C   UNK N   1      35.196  12.083  17.139  0.00  0.00     0.202 A 
HETATM    9  C   UNK N   1      34.517  13.182  16.303  0.00  0.00     0.202 A 
HETATM   10  O   UNK N   1      34.962  13.297  14.998  0.00  0.00    -0.344 OA
ENDROOT
BRANCH   3  11
HETATM   11  N   UNK N   1      35.715  13.746  12.238  0.00  0.00    -0.376 N 
HETATM   12  C   UNK N   1      36.029  15.156  12.435  0.00  0.00     0.142 C 
HETATM   13  C   UNK N   1      35.689  16.008  11.224  0.00  0.00     0.133 C 
HETATM   14  N   UNK N   1      34.317  15.747  10.832  0.00  0.00    -0.418 N 
HETATM   15  C   UNK N   1      34.306  14.404  10.275  0.00  0.00     0.133 C 
HETATM   16  H   UNK N   1      33.521  16.378  10.928  0.00  0.00     0.153 HD
HETATM   17  C   UNK N   1      34.615  13.361  11.355  0.00  0.00     0.142 C 
ENDBRANCH   3  11
TORSDOF 1
ENDMDL
MODEL 9
REMARK VINA RESULT:      -4.9     14.003     15.015
REMARK  1 active torsions:
REMARK  status: ('A' for Active; 'I' for Inactive)
REMARK    1  A    between atoms: C_3  and  N_11 
ROOT
HETATM    1  C   UNK N   1      25.678  28.387  -4.102  0.00  0.00     0.005 A 
HETATM    2  C   UNK N   1      25.398  27.305  -4.937  0.00  0.00     0.032 A 
HETATM    3  C   UNK N   1      26.400  26.384  -5.297  0.00  0.00     0.067 A 
HETATM    4  C   UNK N   1      27.714  26.582  -4.779  0.00  0.00     0.128 A 
HETATM    5  C   UNK N   1      27.980  27.673  -3.942  0.00  0.00     0.104 A 
HETATM    6  C   UNK N   1      26.967  28.570  -3.607  0.00  0.00     0.040 A 
HETATM    7  O   UNK N   1      29.223  27.863  -3.451  0.00  0.00    -0.346 OA
HETATM    8  C   UNK N   1      30.305  27.042  -3.714  0.00  0.00     0.202 A 
HETATM    9  C   UNK N   1      30.018  25.834  -4.623  0.00  0.00     0.202 A 
HETATM   10  O   UNK N   1      28.716  25.730  -5.080  0.00  0.00    -0.344 OA
ENDROOT
BRANCH   3  11
HETATM   11  N   UNK N   1      26.070  25.279  -6.164  0.00  0.00    -0.376 N 
HETATM   12  C   UNK N   1      25.820  25.505  -7.582  0.00  0.00     0.142 C 
HETATM   13  C   UNK N   1      25.941  24.238  -8.410  0.00  0.00     0.133 C 
HETATM   14  N   UNK N   1      25.118  23.202  -7.813  0.00  0.00    -0.418 N 
HETATM   15  C   UNK N   1      25.782  22.825  -6.575  0.00  0.00     0.133 C 
HETATM   16  H   UNK N   1      24.251  22.817  -8.186  0.00  0.00     0.153 HD
HETATM   17  C   UNK N   1      25.759  23.979  -5.568  0.00  0.00     0.142 C 
ENDBRANCH   3  11
TORSDOF 1
ENDMDL
