MODEL 1
REMARK VINA RESULT:      -7.7      0.000      0.000
REMARK  5 active torsions:
REMARK  status: ('A' for Active; 'I' for Inactive)
REMARK    1  A    between atoms: C_4  and  C_11 
REMARK    2  A    between atoms: C_8  and  N_9 
REMARK    3  A    between atoms: N_18  and  C_26 
REMARK    4  A    between atoms: C_20  and  C_23 
REMARK    5  A    between atoms: C_23  and  O_25 
ROOT
HETATM    1  C   UNK N   1      27.521  18.414   4.801  0.00  0.00    -0.016 A 
HETATM    2  C   UNK N   1      27.613  19.608   4.080  0.00  0.00     0.014 A 
HETATM    3  C   UNK N   1      26.494  20.209   3.530  0.00  0.00     0.019 A 
HETATM    4  C   UNK N   1      25.226  19.642   3.676  0.00  0.00     0.043 A 
HETATM    5  C   UNK N   1      25.059  18.422   4.393  0.00  0.00     0.055 A 
HETATM    6  C   UNK N   1      26.233  17.802   4.958  0.00  0.00    -0.023 A 
HETATM    7  C   UNK N   1      26.133  16.512   5.705  0.00  0.00     0.051 C 
HETATM    8  N   UNK N   1      23.776  17.884   4.502  0.00  0.00    -0.350 N 
HETATM    9  C   UNK N   1      22.714  18.519   3.925  0.00  0.00     0.114 A 
HETATM   10  C   UNK N   1      22.840  19.717   3.235  0.00  0.00     0.104 A 
HETATM   11  C   UNK N   1      24.115  20.286   3.102  0.00  0.00     0.202 A 
HETATM   12  O   UNK N   1      24.261  21.332   2.493  0.00  0.00    -0.286 OA
ENDROOT
BRANCH   1  13
HETATM   13  C   UNK N   1      28.797  17.850   5.378  0.00  0.00    -0.009 A 
HETATM   14  C   UNK N   1      29.102  17.954   6.736  0.00  0.00     0.024 A 
HETATM   15  C   UNK N   1      30.280  17.447   7.267  0.00  0.00    -0.017 A 
HETATM   16  C   UNK N   1      30.497  17.621   8.732  0.00  0.00     0.052 C 
HETATM   17  C   UNK N   1      31.198  16.805   6.402  0.00  0.00     0.106 A 
HETATM   18  N   UNK N   1      30.892  16.711   5.077  0.00  0.00    -0.351 N 
HETATM   19  C   UNK N   1      29.738  17.212   4.554  0.00  0.00     0.102 A 
ATOM     20  HN  UNK N   1      31.552  16.248   4.452  1.00  0.00     0.166 HD
BRANCH  17  21
HETATM   21  N   UNK N   1      32.433  16.249   6.845  0.00  0.00    -0.380 N 
HETATM   22  C   UNK N   1      33.718  16.896   6.747  0.00  0.00     0.147 C 
HETATM   23  H   UNK N   1      32.408  15.352   7.250  0.00  0.00     0.160 HD
ENDBRANCH  17  21
ENDBRANCH   1  13
BRANCH   8  24
HETATM   24  C   UNK N   1      23.479  16.603   5.172  0.00  0.00     0.090 A 
HETATM   25  C   UNK N   1      22.003  16.263   5.002  0.00  0.00     0.028 A 
HETATM   26  C   UNK N   1      23.038  15.494   4.219  0.00  0.00     0.028 A 
ENDBRANCH   8  24
BRANCH  10  27
HETATM   27  C   UNK N   1      21.615  20.343   2.669  0.00  0.00     0.181 C 
HETATM   28  O   UNK N   1      20.766  19.645   2.135  0.00  0.00    -0.646 OA
BRANCH  27  29
HETATM   29  O   UNK N   1      21.418  21.673   2.743  0.00  0.00    -0.772 OA
HETATM   30  H   UNK N   1      22.148  22.261   2.716  0.00  0.00     0.167 HD
ENDBRANCH  27  29
ENDBRANCH  10  27
TORSDOF 5
ENDMDL
MODEL 2
REMARK VINA RESULT:      -7.4      5.258      8.692
REMARK  5 active torsions:
REMARK  status: ('A' for Active; 'I' for Inactive)
REMARK    1  A    between atoms: C_4  and  C_11 
REMARK    2  A    between atoms: C_8  and  N_9 
REMARK    3  A    between atoms: N_18  and  C_26 
REMARK    4  A    between atoms: C_20  and  C_23 
REMARK    5  A    between atoms: C_23  and  O_25 
ROOT
HETATM    1  C   UNK N   1      29.521  16.279   4.393  0.00  0.00    -0.016 A 
HETATM    2  C   UNK N   1      30.743  16.359   3.720  0.00  0.00     0.014 A 
HETATM    3  C   UNK N   1      31.905  16.736   4.373  0.00  0.00     0.019 A 
HETATM    4  C   UNK N   1      31.897  17.050   5.734  0.00  0.00     0.043 A 
HETATM    5  C   UNK N   1      30.685  16.996   6.480  0.00  0.00     0.055 A 
HETATM    6  C   UNK N   1      29.481  16.607   5.789  0.00  0.00    -0.023 A 
HETATM    7  C   UNK N   1      28.171  16.548   6.507  0.00  0.00     0.051 C 
HETATM    8  N   UNK N   1      30.723  17.332   7.835  0.00  0.00    -0.350 N 
HETATM    9  C   UNK N   1      31.899  17.709   8.416  0.00  0.00     0.114 A 
HETATM   10  C   UNK N   1      33.099  17.755   7.721  0.00  0.00     0.104 A 
HETATM   11  C   UNK N   1      33.100  17.427   6.357  0.00  0.00     0.202 A 
HETATM   12  O   UNK N   1      34.136  17.469   5.715  0.00  0.00    -0.286 OA
ENDROOT
BRANCH   1  13
HETATM   13  C   UNK N   1      28.315  15.839   3.597  0.00  0.00    -0.009 A 
HETATM   14  C   UNK N   1      28.173  14.529   3.138  0.00  0.00     0.024 A 
HETATM   15  C   UNK N   1      27.072  14.125   2.394  0.00  0.00    -0.017 A 
HETATM   16  C   UNK N   1      27.033  12.700   1.956  0.00  0.00     0.052 C 
HETATM   17  C   UNK N   1      26.065  15.073   2.096  0.00  0.00     0.106 A 
HETATM   18  N   UNK N   1      26.215  16.351   2.547  0.00  0.00    -0.351 N 
HETATM   19  C   UNK N   1      27.298  16.750   3.273  0.00  0.00     0.102 A 
ATOM     20  HN  UNK N   1      25.490  17.036   2.333  1.00  0.00     0.166 HD
BRANCH  17  21
HETATM   21  N   UNK N   1      24.896  14.762   1.342  0.00  0.00    -0.380 N 
HETATM   22  C   UNK N   1      23.580  14.562   1.895  0.00  0.00     0.147 C 
HETATM   23  H   UNK N   1      24.995  14.677   0.367  0.00  0.00     0.160 HD
ENDBRANCH  17  21
ENDBRANCH   1  13
BRANCH   8  24
HETATM   24  C   UNK N   1      29.530  17.366   8.703  0.00  0.00     0.090 A 
HETATM   25  C   UNK N   1      29.778  18.299   9.883  0.00  0.00     0.028 A 
HETATM   26  C   UNK N   1      28.855  18.734   8.773  0.00  0.00     0.028 A 
ENDBRANCH   8  24
BRANCH  10  27
HETATM   27  C   UNK N   1      34.331  18.150   8.456  0.00  0.00     0.181 C 
HETATM   28  O   UNK N   1      34.619  17.594   9.505  0.00  0.00    -0.646 OA
BRANCH  27  29
HETATM   29  O   UNK N   1      35.147  19.109   7.978  0.00  0.00    -0.772 OA
HETATM   30  H   UNK N   1      35.349  19.145   7.063  0.00  0.00     0.167 HD
ENDBRANCH  27  29
ENDBRANCH  10  27
TORSDOF 5
ENDMDL
MODEL 3
REMARK VINA RESULT:      -7.0      6.306      7.139
REMARK  5 active torsions:
REMARK  status: ('A' for Active; 'I' for Inactive)
REMARK    1  A    between atoms: C_4  and  C_11 
REMARK    2  A    between atoms: C_8  and  N_9 
REMARK    3  A    between atoms: N_18  and  C_26 
REMARK    4  A    between atoms: C_20  and  C_23 
REMARK    5  A    between atoms: C_23  and  O_25 
ROOT
HETATM    1  C   UNK N   1      21.261  16.021   6.390  0.00  0.00    -0.016 A 
HETATM    2  C   UNK N   1      21.687  17.311   6.722  0.00  0.00     0.014 A 
HETATM    3  C   UNK N   1      21.672  18.338   5.794  0.00  0.00     0.019 A 
HETATM    4  C   UNK N   1      21.229  18.123   4.487  0.00  0.00     0.043 A 
HETATM    5  C   UNK N   1      20.788  16.832   4.078  0.00  0.00     0.055 A 
HETATM    6  C   UNK N   1      20.812  15.768   5.052  0.00  0.00    -0.023 A 
HETATM    7  C   UNK N   1      20.381  14.384   4.685  0.00  0.00     0.051 C 
HETATM    8  N   UNK N   1      20.366  16.659   2.758  0.00  0.00    -0.350 N 
HETATM    9  C   UNK N   1      20.388  17.711   1.888  0.00  0.00     0.114 A 
HETATM   10  C   UNK N   1      20.796  18.984   2.259  0.00  0.00     0.104 A 
HETATM   11  C   UNK N   1      21.229  19.195   3.576  0.00  0.00     0.202 A 
HETATM   12  O   UNK N   1      21.604  20.300   3.932  0.00  0.00    -0.286 OA
ENDROOT
BRANCH   1  13
HETATM   13  C   UNK N   1      21.298  14.975   7.478  0.00  0.00    -0.009 A 
HETATM   14  C   UNK N   1      22.099  13.836   7.380  0.00  0.00     0.024 A 
HETATM   15  C   UNK N   1      22.125  12.866   8.372  0.00  0.00    -0.017 A 
HETATM   16  C   UNK N   1      23.017  11.691   8.153  0.00  0.00     0.052 C 
HETATM   17  C   UNK N   1      21.314  13.041   9.518  0.00  0.00     0.106 A 
HETATM   18  N   UNK N   1      20.533  14.155   9.604  0.00  0.00    -0.351 N 
HETATM   19  C   UNK N   1      20.503  15.106   8.628  0.00  0.00     0.102 A 
ATOM     20  HN  UNK N   1      19.948  14.283  10.430  1.00  0.00     0.166 HD
BRANCH  17  21
HETATM   21  N   UNK N   1      21.268  12.107  10.594  0.00  0.00    -0.380 N 
HETATM   22  C   UNK N   1      22.190  12.068  11.701  0.00  0.00     0.147 C 
HETATM   23  H   UNK N   1      20.549  11.434  10.580  0.00  0.00     0.160 HD
ENDBRANCH  17  21
ENDBRANCH   1  13
BRANCH   8  24
HETATM   24  C   UNK N   1      19.936  15.363   2.199  0.00  0.00     0.090 A 
HETATM   25  C   UNK N   1      19.628  15.520   0.714  0.00  0.00     0.028 A 
HETATM   26  C   UNK N   1      20.883  14.802   1.140  0.00  0.00     0.028 A 
ENDBRANCH   8  24
BRANCH  10  27
HETATM   27  C   UNK N   1      20.754  20.069   1.242  0.00  0.00     0.181 C 
HETATM   28  O   UNK N   1      20.675  19.788   0.055  0.00  0.00    -0.646 OA
BRANCH  27  29
HETATM   29  O   UNK N   1      20.791  21.364   1.607  0.00  0.00    -0.772 OA
HETATM   30  H   UNK N   1      21.205  22.000   1.056  0.00  0.00     0.167 HD
ENDBRANCH  27  29
ENDBRANCH  10  27
TORSDOF 5
ENDMDL
MODEL 4
REMARK VINA RESULT:      -6.9      4.223      8.730
REMARK  5 active torsions:
REMARK  status: ('A' for Active; 'I' for Inactive)
REMARK    1  A    between atoms: C_4  and  C_11 
REMARK    2  A    between atoms: C_8  and  N_9 
REMARK    3  A    between atoms: N_18  and  C_26 
REMARK    4  A    between atoms: C_20  and  C_23 
REMARK    5  A    between atoms: C_23  and  O_25 
ROOT
HETATM    1  C   UNK N   1      27.865  17.579   5.781  0.00  0.00    -0.016 A 
HETATM    2  C   UNK N   1      28.014  17.821   7.150  0.00  0.00     0.014 A 
HETATM    3  C   UNK N   1      29.263  17.838   7.748  0.00  0.00     0.019 A 
HETATM    4  C   UNK N   1      30.423  17.615   7.003  0.00  0.00     0.043 A 
HETATM    5  C   UNK N   1      30.344  17.354   5.605  0.00  0.00     0.055 A 
HETATM    6  C   UNK N   1      29.038  17.334   4.992  0.00  0.00    -0.023 A 
HETATM    7  C   UNK N   1      28.881  17.048   3.534  0.00  0.00     0.051 C 
HETATM    8  N   UNK N   1      31.528  17.122   4.904  0.00  0.00    -0.350 N 
HETATM    9  C   UNK N   1      32.727  17.140   5.556  0.00  0.00     0.114 A 
HETATM   10  C   UNK N   1      32.839  17.407   6.913  0.00  0.00     0.104 A 
HETATM   11  C   UNK N   1      31.671  17.642   7.652  0.00  0.00     0.202 A 
HETATM   12  O   UNK N   1      31.734  17.870   8.848  0.00  0.00    -0.286 OA
ENDROOT
BRANCH   1  13
HETATM   13  C   UNK N   1      26.463  17.600   5.219  0.00  0.00    -0.009 A 
HETATM   14  C   UNK N   1      25.945  18.722   4.570  0.00  0.00     0.024 A 
HETATM   15  C   UNK N   1      24.653  18.749   4.065  0.00  0.00    -0.017 A 
HETATM   16  C   UNK N   1      24.210  20.005   3.395  0.00  0.00     0.052 C 
HETATM   17  C   UNK N   1      23.838  17.601   4.213  0.00  0.00     0.106 A 
HETATM   18  N   UNK N   1      24.352  16.512   4.851  0.00  0.00    -0.351 N 
HETATM   19  C   UNK N   1      25.619  16.486   5.352  0.00  0.00     0.102 A 
ATOM     20  HN  UNK N   1      23.766  15.683   4.958  1.00  0.00     0.166 HD
BRANCH  17  21
HETATM   21  N   UNK N   1      22.499  17.524   3.730  0.00  0.00    -0.380 N 
HETATM   22  C   UNK N   1      21.817  16.309   3.362  0.00  0.00     0.147 C 
HETATM   23  H   UNK N   1      22.001  18.369   3.639  0.00  0.00     0.160 HD
ENDBRANCH  17  21
ENDBRANCH   1  13
BRANCH   8  24
HETATM   24  C   UNK N   1      31.577  16.791   3.466  0.00  0.00     0.090 A 
HETATM   25  C   UNK N   1      33.013  16.489   3.056  0.00  0.00     0.028 A 
HETATM   26  C   UNK N   1      32.022  15.359   3.177  0.00  0.00     0.028 A 
ENDBRANCH   8  24
BRANCH  10  27
HETATM   27  C   UNK N   1      34.196  17.433   7.522  0.00  0.00     0.181 C 
HETATM   28  O   UNK N   1      35.014  16.576   7.224  0.00  0.00    -0.646 OA
BRANCH  27  29
HETATM   29  O   UNK N   1      34.547  18.397   8.395  0.00  0.00    -0.772 OA
HETATM   30  H   UNK N   1      33.930  18.708   9.029  0.00  0.00     0.167 HD
ENDBRANCH  27  29
ENDBRANCH  10  27
TORSDOF 5
ENDMDL
MODEL 5
REMARK VINA RESULT:      -6.8     15.102     18.110
REMARK  5 active torsions:
REMARK  status: ('A' for Active; 'I' for Inactive)
REMARK    1  A    between atoms: C_4  and  C_11 
REMARK    2  A    between atoms: C_8  and  N_9 
REMARK    3  A    between atoms: N_18  and  C_26 
REMARK    4  A    between atoms: C_20  and  C_23 
REMARK    5  A    between atoms: C_23  and  O_25 
ROOT
HETATM    1  C   UNK N   1      35.679  11.120  17.691  0.00  0.00    -0.016 A 
HETATM    2  C   UNK N   1      35.233  12.397  17.338  0.00  0.00     0.014 A 
HETATM    3  C   UNK N   1      35.515  12.943  16.097  0.00  0.00     0.019 A 
HETATM    4  C   UNK N   1      36.257  12.234  15.149  0.00  0.00     0.043 A 
HETATM    5  C   UNK N   1      36.749  10.930  15.445  0.00  0.00     0.055 A 
HETATM    6  C   UNK N   1      36.454  10.373  16.742  0.00  0.00    -0.023 A 
HETATM    7  C   UNK N   1      36.955   9.019  17.126  0.00  0.00     0.051 C 
HETATM    8  N   UNK N   1      37.498  10.265  14.473  0.00  0.00    -0.350 N 
HETATM    9  C   UNK N   1      37.751  10.864  13.273  0.00  0.00     0.114 A 
HETATM   10  C   UNK N   1      37.273  12.125  12.947  0.00  0.00     0.104 A 
HETATM   11  C   UNK N   1      36.519  12.826  13.900  0.00  0.00     0.202 A 
HETATM   12  O   UNK N   1      36.093  13.941  13.649  0.00  0.00    -0.286 OA
ENDROOT
BRANCH   1  13
HETATM   13  C   UNK N   1      35.303  10.606  19.061  0.00  0.00    -0.009 A 
HETATM   14  C   UNK N   1      34.225   9.740  19.254  0.00  0.00     0.024 A 
HETATM   15  C   UNK N   1      33.869   9.277  20.513  0.00  0.00    -0.017 A 
HETATM   16  C   UNK N   1      32.697   8.359  20.594  0.00  0.00     0.052 C 
HETATM   17  C   UNK N   1      34.625   9.696  21.633  0.00  0.00     0.106 A 
HETATM   18  N   UNK N   1      35.674  10.544  21.434  0.00  0.00    -0.351 N 
HETATM   19  C   UNK N   1      36.022  11.003  20.199  0.00  0.00     0.102 A 
ATOM     20  HN  UNK N   1      36.221  10.847  22.241  1.00  0.00     0.166 HD
BRANCH  17  21
HETATM   21  N   UNK N   1      34.345   9.278  22.967  0.00  0.00    -0.380 N 
HETATM   22  C   UNK N   1      33.463   9.957  23.882  0.00  0.00     0.147 C 
HETATM   23  H   UNK N   1      34.790   8.461  23.288  0.00  0.00     0.160 HD
ENDBRANCH  17  21
ENDBRANCH   1  13
BRANCH   8  24
HETATM   24  C   UNK N   1      38.106   8.935  14.675  0.00  0.00     0.090 A 
HETATM   25  C   UNK N   1      38.990   8.587  13.484  0.00  0.00     0.028 A 
HETATM   26  C   UNK N   1      39.627   8.963  14.798  0.00  0.00     0.028 A 
ENDBRANCH   8  24
BRANCH  10  27
HETATM   27  C   UNK N   1      37.581  12.676  11.600  0.00  0.00     0.181 C 
HETATM   28  O   UNK N   1      37.835  11.919  10.676  0.00  0.00    -0.646 OA
BRANCH  27  29
HETATM   29  O   UNK N   1      37.577  14.005  11.376  0.00  0.00    -0.772 OA
HETATM   30  H   UNK N   1      36.771  14.454  11.212  0.00  0.00     0.167 HD
ENDBRANCH  27  29
ENDBRANCH  10  27
TORSDOF 5
ENDMDL
MODEL 6
REMARK VINA RESULT:      -6.4      4.623      8.672
REMARK  5 active torsions:
REMARK  status: ('A' for Active; 'I' for Inactive)
REMARK    1  A    between atoms: C_4  and  C_11 
REMARK    2  A    between atoms: C_8  and  N_9 
REMARK    3  A    between atoms: N_18  and  C_26 
REMARK    4  A    between atoms: C_20  and  C_23 
REMARK    5  A    between atoms: C_23  and  O_25 
ROOT
HETATM    1  C   UNK N   1      27.714  16.450   6.477  0.00  0.00    -0.016 A 
HETATM    2  C   UNK N   1      28.116  17.166   7.608  0.00  0.00     0.014 A 
HETATM    3  C   UNK N   1      29.452  17.432   7.858  0.00  0.00     0.019 A 
HETATM    4  C   UNK N   1      30.450  16.993   6.986  0.00  0.00     0.043 A 
HETATM    5  C   UNK N   1      30.113  16.251   5.818  0.00  0.00     0.055 A 
HETATM    6  C   UNK N   1      28.718  15.976   5.569  0.00  0.00    -0.023 A 
HETATM    7  C   UNK N   1      28.295  15.187   4.372  0.00  0.00     0.051 C 
HETATM    8  N   UNK N   1      31.144  15.821   4.981  0.00  0.00    -0.350 N 
HETATM    9  C   UNK N   1      32.442  16.104   5.292  0.00  0.00     0.114 A 
HETATM   10  C   UNK N   1      32.804  16.838   6.413  0.00  0.00     0.104 A 
HETATM   11  C   UNK N   1      31.795  17.285   7.278  0.00  0.00     0.202 A 
HETATM   12  O   UNK N   1      32.079  17.924   8.277  0.00  0.00    -0.286 OA
ENDROOT
BRANCH   1  13
HETATM   13  C   UNK N   1      26.233  16.230   6.284  0.00  0.00    -0.009 A 
HETATM   14  C   UNK N   1      25.563  15.157   6.875  0.00  0.00     0.024 A 
HETATM   15  C   UNK N   1      24.205  14.944   6.689  0.00  0.00    -0.017 A 
HETATM   16  C   UNK N   1      23.601  13.762   7.370  0.00  0.00     0.052 C 
HETATM   17  C   UNK N   1      23.478  15.844   5.874  0.00  0.00     0.106 A 
HETATM   18  N   UNK N   1      24.142  16.886   5.298  0.00  0.00    -0.351 N 
HETATM   19  C   UNK N   1      25.477  17.094   5.477  0.00  0.00     0.102 A 
ATOM     20  HN  UNK N   1      23.620  17.537   4.710  1.00  0.00     0.166 HD
BRANCH  17  21
HETATM   21  N   UNK N   1      22.082  15.717   5.619  0.00  0.00    -0.380 N 
HETATM   22  C   UNK N   1      21.090  16.723   5.906  0.00  0.00     0.147 C 
HETATM   23  H   UNK N   1      21.769  14.875   5.216  0.00  0.00     0.160 HD
ENDBRANCH  17  21
ENDBRANCH   1  13
BRANCH   8  24
HETATM   24  C   UNK N   1      30.930  15.002   3.772  0.00  0.00     0.090 A 
HETATM   25  C   UNK N   1      32.274  14.554   3.210  0.00  0.00     0.028 A 
HETATM   26  C   UNK N   1      31.393  13.554   3.915  0.00  0.00     0.028 A 
ENDBRANCH   8  24
BRANCH  10  27
HETATM   27  C   UNK N   1      34.246  17.119   6.644  0.00  0.00     0.181 C 
HETATM   28  O   UNK N   1      35.087  16.297   6.312  0.00  0.00    -0.646 OA
BRANCH  27  29
HETATM   29  O   UNK N   1      34.647  18.274   7.208  0.00  0.00    -0.772 OA
HETATM   30  H   UNK N   1      35.171  18.264   7.985  0.00  0.00     0.167 HD
ENDBRANCH  27  29
ENDBRANCH  10  27
TORSDOF 5
ENDMDL
MODEL 7
REMARK VINA RESULT:      -6.4      5.045      9.801
REMARK  5 active torsions:
REMARK  status: ('A' for Active; 'I' for Inactive)
REMARK    1  A    between atoms: C_4  and  C_11 
REMARK    2  A    between atoms: C_8  and  N_9 
REMARK    3  A    between atoms: N_18  and  C_26 
REMARK    4  A    between atoms: C_20  and  C_23 
REMARK    5  A    between atoms: C_23  and  O_25 
ROOT
HETATM    1  C   UNK N   1      30.155  16.581   5.078  0.00  0.00    -0.016 A 
HETATM    2  C   UNK N   1      30.497  15.815   3.960  0.00  0.00     0.014 A 
HETATM    3  C   UNK N   1      31.743  15.221   3.844  0.00  0.00     0.019 A 
HETATM    4  C   UNK N   1      32.706  15.366   4.845  0.00  0.00     0.043 A 
HETATM    5  C   UNK N   1      32.428  16.139   6.008  0.00  0.00     0.055 A 
HETATM    6  C   UNK N   1      31.129  16.757   6.117  0.00  0.00    -0.023 A 
HETATM    7  C   UNK N   1      30.777  17.596   7.302  0.00  0.00     0.051 C 
HETATM    8  N   UNK N   1      33.426  16.268   6.976  0.00  0.00    -0.350 N 
HETATM    9  C   UNK N   1      34.638  15.668   6.795  0.00  0.00     0.114 A 
HETATM   10  C   UNK N   1      34.935  14.895   5.682  0.00  0.00     0.104 A 
HETATM   11  C   UNK N   1      33.958  14.746   4.687  0.00  0.00     0.202 A 
HETATM   12  O   UNK N   1      34.191  14.082   3.690  0.00  0.00    -0.286 OA
ENDROOT
BRANCH   1  13
HETATM   13  C   UNK N   1      28.765  17.170   5.120  0.00  0.00    -0.009 A 
HETATM   14  C   UNK N   1      28.453  18.369   4.477  0.00  0.00     0.024 A 
HETATM   15  C   UNK N   1      27.180  18.920   4.524  0.00  0.00    -0.017 A 
HETATM   16  C   UNK N   1      26.968  20.207   3.802  0.00  0.00     0.052 C 
HETATM   17  C   UNK N   1      26.169  18.241   5.245  0.00  0.00     0.106 A 
HETATM   18  N   UNK N   1      26.484  17.072   5.871  0.00  0.00    -0.351 N 
HETATM   19  C   UNK N   1      27.735  16.533   5.830  0.00  0.00     0.102 A 
ATOM     20  HN  UNK N   1      25.757  16.581   6.391  1.00  0.00     0.166 HD
BRANCH  17  21
HETATM   21  N   UNK N   1      24.830  18.719   5.355  0.00  0.00    -0.380 N 
HETATM   22  C   UNK N   1      23.652  17.985   4.969  0.00  0.00     0.147 C 
HETATM   23  H   UNK N   1      24.700  19.623   5.722  0.00  0.00     0.160 HD
ENDBRANCH  17  21
ENDBRANCH   1  13
BRANCH   8  24
HETATM   24  C   UNK N   1      33.280  17.081   8.199  0.00  0.00     0.090 A 
HETATM   25  C   UNK N   1      34.599  17.102   8.963  0.00  0.00     0.028 A 
HETATM   26  C   UNK N   1      34.154  18.334   8.216  0.00  0.00     0.028 A 
ENDBRANCH   8  24
BRANCH  10  27
HETATM   27  C   UNK N   1      36.278  14.260   5.595  0.00  0.00     0.181 C 
HETATM   28  O   UNK N   1      37.282  14.956   5.596  0.00  0.00    -0.646 OA
BRANCH  27  29
HETATM   29  O   UNK N   1      36.408  12.921   5.524  0.00  0.00    -0.772 OA
HETATM   30  H   UNK N   1      36.328  12.397   6.297  0.00  0.00     0.167 HD
ENDBRANCH  27  29
ENDBRANCH  10  27
TORSDOF 5
ENDMDL
MODEL 8
REMARK VINA RESULT:      -6.3     14.678     18.709
REMARK  5 active torsions:
REMARK  status: ('A' for Active; 'I' for Inactive)
REMARK    1  A    between atoms: C_4  and  C_11 
REMARK    2  A    between atoms: C_8  and  N_9 
REMARK    3  A    between atoms: N_18  and  C_26 
REMARK    4  A    between atoms: C_20  and  C_23 
REMARK    5  A    between atoms: C_23  and  O_25 
ROOT
HETATM    1  C   UNK N   1      35.036  10.771  19.771  0.00  0.00    -0.016 A 
HETATM    2  C   UNK N   1      35.196  12.149  19.938  0.00  0.00     0.014 A 
HETATM    3  C   UNK N   1      35.372  12.994  18.855  0.00  0.00     0.019 A 
HETATM    4  C   UNK N   1      35.396  12.496  17.550  0.00  0.00     0.043 A 
HETATM    5  C   UNK N   1      35.246  11.101  17.306  0.00  0.00     0.055 A 
HETATM    6  C   UNK N   1      35.068  10.230  18.442  0.00  0.00    -0.023 A 
HETATM    7  C   UNK N   1      34.924   8.754  18.261  0.00  0.00     0.051 C 
HETATM    8  N   UNK N   1      35.291  10.647  15.987  0.00  0.00    -0.350 N 
HETATM    9  C   UNK N   1      35.481  11.530  14.964  0.00  0.00     0.114 A 
HETATM   10  C   UNK N   1      35.613  12.896  15.166  0.00  0.00     0.104 A 
HETATM   11  C   UNK N   1      35.577  13.389  16.478  0.00  0.00     0.202 A 
HETATM   12  O   UNK N   1      35.701  14.584  16.691  0.00  0.00    -0.286 OA
ENDROOT
BRANCH   1  13
HETATM   13  C   UNK N   1      34.830   9.938  21.014  0.00  0.00    -0.009 A 
HETATM   14  C   UNK N   1      33.556   9.654  21.509  0.00  0.00     0.024 A 
HETATM   15  C   UNK N   1      33.364   8.901  22.658  0.00  0.00    -0.017 A 
HETATM   16  C   UNK N   1      31.957   8.666  23.092  0.00  0.00     0.052 C 
HETATM   17  C   UNK N   1      34.497   8.405  23.346  0.00  0.00     0.106 A 
HETATM   18  N   UNK N   1      35.737   8.690  22.856  0.00  0.00    -0.351 N 
HETATM   19  C   UNK N   1      35.927   9.434  21.730  0.00  0.00     0.102 A 
ATOM     20  HN  UNK N   1      36.555   8.333  23.351  1.00  0.00     0.166 HD
BRANCH  17  21
HETATM   21  N   UNK N   1      34.410   7.621  24.533  0.00  0.00    -0.380 N 
HETATM   22  C   UNK N   1      34.481   8.136  25.878  0.00  0.00     0.147 C 
HETATM   23  H   UNK N   1      34.293   6.649  24.427  0.00  0.00     0.160 HD
ENDBRANCH  17  21
ENDBRANCH   1  13
BRANCH   8  24
HETATM   24  C   UNK N   1      35.200   9.223  15.607  0.00  0.00     0.090 A 
HETATM   25  C   UNK N   1      35.416   9.077  14.106  0.00  0.00     0.028 A 
HETATM   26  C   UNK N   1      36.502   8.646  15.057  0.00  0.00     0.028 A 
ENDBRANCH   8  24
BRANCH  10  27
HETATM   27  C   UNK N   1      35.787  13.776  13.979  0.00  0.00     0.181 C 
HETATM   28  O   UNK N   1      34.958  13.759  13.081  0.00  0.00    -0.646 OA
BRANCH  27  29
HETATM   29  O   UNK N   1      36.843  14.606  13.879  0.00  0.00    -0.772 OA
HETATM   30  H   UNK N   1      37.679  14.277  13.610  0.00  0.00     0.167 HD
ENDBRANCH  27  29
ENDBRANCH  10  27
TORSDOF 5
ENDMDL
MODEL 9
REMARK VINA RESULT:      -6.3      4.277      8.461
REMARK  5 active torsions:
REMARK  status: ('A' for Active; 'I' for Inactive)
REMARK    1  A    between atoms: C_4  and  C_11 
REMARK    2  A    between atoms: C_8  and  N_9 
REMARK    3  A    between atoms: N_18  and  C_26 
REMARK    4  A    between atoms: C_20  and  C_23 
REMARK    5  A    between atoms: C_23  and  O_25 
ROOT
HETATM    1  C   UNK N   1      27.893  16.493   4.319  0.00  0.00    -0.016 A 
HETATM    2  C   UNK N   1      28.795  16.385   3.256  0.00  0.00     0.014 A 
HETATM    3  C   UNK N   1      30.159  16.526   3.449  0.00  0.00     0.019 A 
HETATM    4  C   UNK N   1      30.685  16.782   4.717  0.00  0.00     0.043 A 
HETATM    5  C   UNK N   1      29.823  16.912   5.843  0.00  0.00     0.055 A 
HETATM    6  C   UNK N   1      28.404  16.768   5.631  0.00  0.00    -0.023 A 
HETATM    7  C   UNK N   1      27.441  16.911   6.765  0.00  0.00     0.051 C 
HETATM    8  N   UNK N   1      30.392  17.182   7.089  0.00  0.00    -0.350 N 
HETATM    9  C   UNK N   1      31.744  17.323   7.210  0.00  0.00     0.114 A 
HETATM   10  C   UNK N   1      32.612  17.186   6.136  0.00  0.00     0.104 A 
HETATM   11  C   UNK N   1      32.077  16.918   4.868  0.00  0.00     0.202 A 
HETATM   12  O   UNK N   1      32.812  16.802   3.902  0.00  0.00    -0.286 OA
ENDROOT
BRANCH   1  13
HETATM   13  C   UNK N   1      26.427  16.304   4.009  0.00  0.00    -0.009 A 
HETATM   14  C   UNK N   1      25.499  17.333   4.177  0.00  0.00     0.024 A 
HETATM   15  C   UNK N   1      24.149  17.158   3.906  0.00  0.00    -0.017 A 
HETATM   16  C   UNK N   1      23.253  18.330   4.127  0.00  0.00     0.052 C 
HETATM   17  C   UNK N   1      23.703  15.897   3.443  0.00  0.00     0.106 A 
HETATM   18  N   UNK N   1      24.617  14.898   3.285  0.00  0.00    -0.351 N 
HETATM   19  C   UNK N   1      25.942  15.067   3.556  0.00  0.00     0.102 A 
ATOM     20  HN  UNK N   1      24.298  13.988   2.951  1.00  0.00     0.166 HD
BRANCH  17  21
HETATM   21  N   UNK N   1      22.341  15.614   3.134  0.00  0.00    -0.380 N 
HETATM   22  C   UNK N   1      21.444  14.846   3.961  0.00  0.00     0.147 C 
HETATM   23  H   UNK N   1      21.984  15.970   2.289  0.00  0.00     0.160 HD
ENDBRANCH  17  21
ENDBRANCH   1  13
BRANCH   8  24
HETATM   24  C   UNK N   1      29.606  17.390   8.321  0.00  0.00     0.090 A 
HETATM   25  C   UNK N   1      30.394  18.258   9.294  0.00  0.00     0.028 A 
HETATM   26  C   UNK N   1      29.213  18.845   8.565  0.00  0.00     0.028 A 
ENDBRANCH   8  24
BRANCH  10  27
HETATM   27  C   UNK N   1      34.073  17.329   6.380  0.00  0.00     0.181 C 
HETATM   28  O   UNK N   1      34.499  18.314   6.965  0.00  0.00    -0.646 OA
BRANCH  27  29
HETATM   29  O   UNK N   1      34.940  16.383   5.974  0.00  0.00    -0.772 OA
HETATM   30  H   UNK N   1      35.650  16.122   6.528  0.00  0.00     0.167 HD
ENDBRANCH  27  29
ENDBRANCH  10  27
TORSDOF 5
ENDMDL
