MODEL 1
REMARK VINA RESULT:      -5.8      0.000      0.000
REMARK  5 active torsions:
REMARK  status: ('A' for Active; 'I' for Inactive)
REMARK    1  A    between atoms: C_6  and  C_3 
REMARK    2  A    between atoms: O_16  and  C_3 
REMARK    3  A    between atoms: C_5  and  O_17 
REMARK    4  A    between atoms: C_7  and  N_15 
REMARK    5  A    between atoms: O_18  and  C_9 
ROOT
HETATM    1  C   UNK N   1      34.224  15.483   5.019  0.00  0.00     0.143 A 
HETATM    2  C   UNK N   1      34.490  14.593   3.979  0.00  0.00     0.175 A 
HETATM    3  C   UNK N   1      33.910  14.828   2.733  0.00  0.00     0.142 A 
HETATM    4  C   UNK N   1      32.843  16.760   3.584  0.00  0.00     0.227 A 
HETATM    5  F   UNK N   1      35.306  13.529   4.180  0.00  0.00    -0.201 F 
HETATM    6  N   UNK N   1      34.144  14.043   1.750  0.00  0.00    -0.383 N 
ATOM      7  HN  UNK N   1      33.873  14.322   0.807  1.00  0.00     0.157 HD
HETATM    8  N   UNK N   1      33.099  15.900   2.562  0.00  0.00    -0.306 N 
ATOM      9  HN  UNK N   1      32.673  16.065   1.651  1.00  0.00     0.171 HD
HETATM   10  N   UNK N   1      33.407  16.557   4.820  0.00  0.00    -0.293 N 
HETATM   11  H   UNK N   1      34.581  13.173   1.893  0.00  0.00     0.157 HD
ENDROOT
BRANCH  10  12
HETATM   12  C   UNK N   1      33.173  17.527   5.905  0.00  0.00     0.234 C 
HETATM   13  C   UNK N   1      32.154  17.018   6.917  0.00  0.00     0.088 C 
HETATM   14  C   UNK N   1      32.446  17.981   8.015  0.00  0.00     0.153 C 
HETATM   15  C   UNK N   1      33.968  17.985   7.984  0.00  0.00     0.176 C 
HETATM   16  O   UNK N   1      34.354  17.846   6.627  0.00  0.00    -0.356 OA
BRANCH  14  17
HETATM   17  O   UNK N   1      31.911  17.591   9.246  0.00  0.00    -0.393 OA
HETATM   18  H   UNK N   1      31.586  16.795   9.693  0.00  0.00     0.210 HD
ENDBRANCH  14  17
BRANCH  15  19
HETATM   19  C   UNK N   1      34.558  16.826   8.788  0.00  0.00     0.198 C 
BRANCH  19  20
HETATM   20  O   UNK N   1      34.594  17.151  10.145  0.00  0.00    -0.398 OA
HETATM   21  H   UNK N   1      34.416  16.532  10.870  0.00  0.00     0.209 HD
ENDBRANCH  19  20
ENDBRANCH  15  19
ENDBRANCH  10  12
BRANCH   4  22
HETATM   22  O   UNK N   1      32.047  17.822   3.362  0.00  0.00    -0.332 OA
HETATM   23  H   UNK N   1      31.399  17.790   2.684  0.00  0.00     0.221 HD
ENDBRANCH   4  22
TORSDOF 5
ENDMDL
MODEL 2
REMARK VINA RESULT:      -5.6     10.616     13.003
REMARK  5 active torsions:
REMARK  status: ('A' for Active; 'I' for Inactive)
REMARK    1  A    between atoms: C_6  and  C_3 
REMARK    2  A    between atoms: O_16  and  C_3 
REMARK    3  A    between atoms: C_5  and  O_17 
REMARK    4  A    between atoms: C_7  and  N_15 
REMARK    5  A    between atoms: O_18  and  C_9 
ROOT
HETATM    1  C   UNK N   1      35.270  11.403  17.402  0.00  0.00     0.143 A 
HETATM    2  C   UNK N   1      35.265  10.762  18.640  0.00  0.00     0.175 A 
HETATM    3  C   UNK N   1      35.267  11.542  19.796  0.00  0.00     0.142 A 
HETATM    4  C   UNK N   1      35.294  13.509  18.481  0.00  0.00     0.227 A 
HETATM    5  F   UNK N   1      35.247   9.408  18.710  0.00  0.00    -0.201 F 
HETATM    6  N   UNK N   1      35.245  10.991  20.950  0.00  0.00    -0.383 N 
ATOM      7  HN  UNK N   1      35.057  11.559  21.776  1.00  0.00     0.157 HD
HETATM    8  N   UNK N   1      35.285  12.893  19.694  0.00  0.00    -0.306 N 
ATOM      9  HN  UNK N   1      35.291  13.459  20.542  1.00  0.00     0.171 HD
HETATM   10  N   UNK N   1      35.285  12.765  17.326  0.00  0.00    -0.293 N 
HETATM   11  H   UNK N   1      35.407  10.025  21.050  0.00  0.00     0.157 HD
ENDROOT
BRANCH  10  12
HETATM   12  C   UNK N   1      35.233  13.439  16.016  0.00  0.00     0.234 C 
HETATM   13  C   UNK N   1      36.605  13.513  15.357  0.00  0.00     0.088 C 
HETATM   14  C   UNK N   1      36.159  13.847  13.975  0.00  0.00     0.153 C 
HETATM   15  C   UNK N   1      34.982  12.894  13.824  0.00  0.00     0.176 C 
HETATM   16  O   UNK N   1      34.361  12.798  15.096  0.00  0.00    -0.356 OA
BRANCH  14  17
HETATM   17  O   UNK N   1      37.157  13.663  13.015  0.00  0.00    -0.393 OA
HETATM   18  H   UNK N   1      37.294  13.214  12.166  0.00  0.00     0.210 HD
ENDBRANCH  14  17
BRANCH  15  19
HETATM   19  C   UNK N   1      35.431  11.498  13.386  0.00  0.00     0.198 C 
BRANCH  19  20
HETATM   20  O   UNK N   1      35.578  11.455  11.999  0.00  0.00    -0.398 OA
HETATM   21  H   UNK N   1      36.395  11.215  11.535  0.00  0.00     0.209 HD
ENDBRANCH  19  20
ENDBRANCH  15  19
ENDBRANCH  10  12
BRANCH   4  22
HETATM   22  O   UNK N   1      35.291  14.853  18.429  0.00  0.00    -0.332 OA
HETATM   23  H   UNK N   1      35.473  15.292  17.620  0.00  0.00     0.221 HD
ENDBRANCH   4  22
TORSDOF 5
ENDMDL
MODEL 3
REMARK VINA RESULT:      -5.6     11.061     13.364
REMARK  5 active torsions:
REMARK  status: ('A' for Active; 'I' for Inactive)
REMARK    1  A    between atoms: C_6  and  C_3 
REMARK    2  A    between atoms: O_16  and  C_3 
REMARK    3  A    between atoms: C_5  and  O_17 
REMARK    4  A    between atoms: C_7  and  N_15 
REMARK    5  A    between atoms: O_18  and  C_9 
ROOT
HETATM    1  C   UNK N   1      29.635  22.348  -4.919  0.00  0.00     0.143 A 
HETATM    2  C   UNK N   1      30.384  21.193  -5.142  0.00  0.00     0.175 A 
HETATM    3  C   UNK N   1      31.170  20.695  -4.104  0.00  0.00     0.142 A 
HETATM    4  C   UNK N   1      30.468  22.471  -2.708  0.00  0.00     0.227 A 
HETATM    5  F   UNK N   1      30.333  20.566  -6.344  0.00  0.00    -0.201 F 
HETATM    6  N   UNK N   1      31.857  19.628  -4.266  0.00  0.00    -0.383 N 
ATOM      7  HN  UNK N   1      32.275  19.171  -3.455  1.00  0.00     0.157 HD
HETATM    8  N   UNK N   1      31.199  21.343  -2.915  0.00  0.00    -0.306 N 
ATOM      9  HN  UNK N   1      31.779  20.978  -2.160  1.00  0.00     0.171 HD
HETATM   10  N   UNK N   1      29.678  22.980  -3.710  0.00  0.00    -0.293 N 
HETATM   11  H   UNK N   1      31.989  19.244  -5.163  0.00  0.00     0.157 HD
ENDROOT
BRANCH  10  12
HETATM   12  C   UNK N   1      28.842  24.168  -3.460  0.00  0.00     0.234 C 
HETATM   13  C   UNK N   1      28.882  25.150  -4.624  0.00  0.00     0.088 C 
HETATM   14  C   UNK N   1      27.693  25.968  -4.252  0.00  0.00     0.153 C 
HETATM   15  C   UNK N   1      26.717  24.872  -3.848  0.00  0.00     0.176 C 
HETATM   16  O   UNK N   1      27.478  23.847  -3.230  0.00  0.00    -0.356 OA
BRANCH  14  17
HETATM   17  O   UNK N   1      27.231  26.774  -5.295  0.00  0.00    -0.393 OA
HETATM   18  H   UNK N   1      26.702  27.575  -5.433  0.00  0.00     0.210 HD
ENDBRANCH  14  17
BRANCH  15  19
HETATM   19  C   UNK N   1      25.986  24.285  -5.057  0.00  0.00     0.198 C 
BRANCH  19  20
HETATM   20  O   UNK N   1      24.963  25.143  -5.463  0.00  0.00    -0.398 OA
HETATM   21  H   UNK N   1      25.023  26.110  -5.476  0.00  0.00     0.209 HD
ENDBRANCH  19  20
ENDBRANCH  15  19
ENDBRANCH  10  12
BRANCH   4  22
HETATM   22  O   UNK N   1      30.513  23.069  -1.503  0.00  0.00    -0.332 OA
HETATM   23  H   UNK N   1      31.202  22.861  -0.901  0.00  0.00     0.221 HD
ENDBRANCH   4  22
TORSDOF 5
ENDMDL
MODEL 4
REMARK VINA RESULT:      -5.5      9.968     12.507
REMARK  5 active torsions:
REMARK  status: ('A' for Active; 'I' for Inactive)
REMARK    1  A    between atoms: C_6  and  C_3 
REMARK    2  A    between atoms: O_16  and  C_3 
REMARK    3  A    between atoms: C_5  and  O_17 
REMARK    4  A    between atoms: C_7  and  N_15 
REMARK    5  A    between atoms: O_18  and  C_9 
ROOT
HETATM    1  C   UNK N   1      35.365  13.413  16.843  0.00  0.00     0.143 A 
HETATM    2  C   UNK N   1      35.184  13.780  18.176  0.00  0.00     0.175 A 
HETATM    3  C   UNK N   1      35.201  12.784  19.151  0.00  0.00     0.142 A 
HETATM    4  C   UNK N   1      35.551  11.143  17.485  0.00  0.00     0.227 A 
HETATM    5  F   UNK N   1      35.009  15.083  18.509  0.00  0.00    -0.201 F 
HETATM    6  N   UNK N   1      35.056  13.084  20.387  0.00  0.00    -0.383 N 
ATOM      7  HN  UNK N   1      35.256  12.385  21.102  1.00  0.00     0.157 HD
HETATM    8  N   UNK N   1      35.379  11.492  18.788  0.00  0.00    -0.306 N 
ATOM      9  HN  UNK N   1      35.386  10.766  19.504  1.00  0.00     0.171 HD
HETATM   10  N   UNK N   1      35.546  12.104  16.503  0.00  0.00    -0.293 N 
HETATM   11  H   UNK N   1      34.753  13.982  20.655  0.00  0.00     0.157 HD
ENDROOT
BRANCH  10  12
HETATM   12  C   UNK N   1      35.793  11.726  15.100  0.00  0.00     0.234 C 
HETATM   13  C   UNK N   1      34.559  11.927  14.229  0.00  0.00     0.088 C 
HETATM   14  C   UNK N   1      35.226  11.857  12.898  0.00  0.00     0.153 C 
HETATM   15  C   UNK N   1      36.462  12.704  13.161  0.00  0.00     0.176 C 
HETATM   16  O   UNK N   1      36.850  12.465  14.504  0.00  0.00    -0.356 OA
BRANCH  14  17
HETATM   17  O   UNK N   1      34.427  12.337  11.856  0.00  0.00    -0.393 OA
HETATM   18  H   UNK N   1      34.016  12.026  11.035  0.00  0.00     0.210 HD
ENDBRANCH  14  17
BRANCH  15  19
HETATM   19  C   UNK N   1      36.179  14.197  12.986  0.00  0.00     0.198 C 
BRANCH  19  20
HETATM   20  O   UNK N   1      36.840  14.930  13.973  0.00  0.00    -0.398 OA
HETATM   21  H   UNK N   1      37.801  15.042  14.031  0.00  0.00     0.209 HD
ENDBRANCH  19  20
ENDBRANCH  15  19
ENDBRANCH  10  12
BRANCH   4  22
HETATM   22  O   UNK N   1      35.744   9.848  17.173  0.00  0.00    -0.332 OA
HETATM   23  H   UNK N   1      36.519   9.406  17.464  0.00  0.00     0.221 HD
ENDBRANCH   4  22
TORSDOF 5
ENDMDL
MODEL 5
REMARK VINA RESULT:      -5.5      3.136      5.685
REMARK  5 active torsions:
REMARK  status: ('A' for Active; 'I' for Inactive)
REMARK    1  A    between atoms: C_6  and  C_3 
REMARK    2  A    between atoms: O_16  and  C_3 
REMARK    3  A    between atoms: C_5  and  O_17 
REMARK    4  A    between atoms: C_7  and  N_15 
REMARK    5  A    between atoms: O_18  and  C_9 
ROOT
HETATM    1  C   UNK N   1      33.466  17.696   7.055  0.00  0.00     0.143 A 
HETATM    2  C   UNK N   1      34.219  17.936   8.203  0.00  0.00     0.175 A 
HETATM    3  C   UNK N   1      34.201  16.987   9.224  0.00  0.00     0.142 A 
HETATM    4  C   UNK N   1      32.717  15.644   7.964  0.00  0.00     0.227 A 
HETATM    5  F   UNK N   1      34.960  19.066   8.312  0.00  0.00    -0.201 F 
HETATM    6  N   UNK N   1      34.894  17.163  10.286  0.00  0.00    -0.383 N 
ATOM      7  HN  UNK N   1      35.024  16.389  10.937  1.00  0.00     0.157 HD
HETATM    8  N   UNK N   1      33.451  15.867   9.086  0.00  0.00    -0.306 N 
ATOM      9  HN  UNK N   1      33.438  15.178   9.838  1.00  0.00     0.171 HD
HETATM   10  N   UNK N   1      32.721  16.559   6.939  0.00  0.00    -0.293 N 
HETATM   11  H   UNK N   1      35.301  18.038  10.482  0.00  0.00     0.157 HD
ENDROOT
BRANCH  10  12
HETATM   12  C   UNK N   1      31.971  16.282   5.700  0.00  0.00     0.234 C 
HETATM   13  C   UNK N   1      32.171  17.373   4.656  0.00  0.00     0.088 C 
HETATM   14  C   UNK N   1      31.655  16.629   3.472  0.00  0.00     0.153 C 
HETATM   15  C   UNK N   1      32.302  15.270   3.693  0.00  0.00     0.176 C 
HETATM   16  O   UNK N   1      32.335  15.050   5.094  0.00  0.00    -0.356 OA
BRANCH  14  17
HETATM   17  O   UNK N   1      32.000  17.224   2.255  0.00  0.00    -0.393 OA
HETATM   18  H   UNK N   1      32.360  16.980   1.388  0.00  0.00     0.210 HD
ENDBRANCH  14  17
BRANCH  15  19
HETATM   19  C   UNK N   1      33.732  15.223   3.152  0.00  0.00     0.198 C 
BRANCH  19  20
HETATM   20  O   UNK N   1      33.750  14.614   1.896  0.00  0.00    -0.398 OA
HETATM   21  H   UNK N   1      33.001  14.145   1.496  0.00  0.00     0.209 HD
ENDBRANCH  19  20
ENDBRANCH  15  19
ENDBRANCH  10  12
BRANCH   4  22
HETATM   22  O   UNK N   1      32.003  14.508   7.863  0.00  0.00    -0.332 OA
HETATM   23  H   UNK N   1      32.278  13.831   7.274  0.00  0.00     0.221 HD
ENDBRANCH   4  22
TORSDOF 5
ENDMDL
MODEL 6
REMARK VINA RESULT:      -5.5      3.238      4.046
REMARK  5 active torsions:
REMARK  status: ('A' for Active; 'I' for Inactive)
REMARK    1  A    between atoms: C_6  and  C_3 
REMARK    2  A    between atoms: O_16  and  C_3 
REMARK    3  A    between atoms: C_5  and  O_17 
REMARK    4  A    between atoms: C_7  and  N_15 
REMARK    5  A    between atoms: O_18  and  C_9 
ROOT
HETATM    1  C   UNK N   1      30.652  17.146   6.785  0.00  0.00     0.143 A 
HETATM    2  C   UNK N   1      29.494  17.447   6.070  0.00  0.00     0.175 A 
HETATM    3  C   UNK N   1      29.608  17.757   4.715  0.00  0.00     0.142 A 
HETATM    4  C   UNK N   1      31.953  17.480   4.837  0.00  0.00     0.227 A 
HETATM    5  F   UNK N   1      28.285  17.424   6.684  0.00  0.00    -0.201 F 
HETATM    6  N   UNK N   1      28.565  18.022   4.021  0.00  0.00    -0.383 N 
ATOM      7  HN  UNK N   1      28.634  18.061   3.004  1.00  0.00     0.157 HD
HETATM    8  N   UNK N   1      30.829  17.771   4.130  0.00  0.00    -0.306 N 
ATOM      9  HN  UNK N   1      30.907  18.004   3.140  1.00  0.00     0.171 HD
HETATM   10  N   UNK N   1      31.871  17.163   6.171  0.00  0.00    -0.293 N 
HETATM   11  H   UNK N   1      27.698  18.188   4.458  0.00  0.00     0.157 HD
ENDROOT
BRANCH  10  12
HETATM   12  C   UNK N   1      33.086  16.790   6.917  0.00  0.00     0.234 C 
HETATM   13  C   UNK N   1      33.308  17.683   8.132  0.00  0.00     0.088 C 
HETATM   14  C   UNK N   1      34.306  16.833   8.840  0.00  0.00     0.153 C 
HETATM   15  C   UNK N   1      33.678  15.458   8.661  0.00  0.00     0.176 C 
HETATM   16  O   UNK N   1      33.061  15.449   7.383  0.00  0.00    -0.356 OA
BRANCH  14  17
HETATM   17  O   UNK N   1      34.488  17.196  10.177  0.00  0.00    -0.393 OA
HETATM   18  H   UNK N   1      34.345  16.839  11.067  0.00  0.00     0.210 HD
ENDBRANCH  14  17
BRANCH  15  19
HETATM   19  C   UNK N   1      32.617  15.172   9.725  0.00  0.00     0.198 C 
BRANCH  19  20
HETATM   20  O   UNK N   1      33.226  14.928  10.956  0.00  0.00    -0.398 OA
HETATM   21  H   UNK N   1      34.184  14.916  11.109  0.00  0.00     0.209 HD
ENDBRANCH  19  20
ENDBRANCH  15  19
ENDBRANCH  10  12
BRANCH   4  22
HETATM   22  O   UNK N   1      33.143  17.487   4.208  0.00  0.00    -0.332 OA
HETATM   23  H   UNK N   1      33.900  17.834   4.640  0.00  0.00     0.221 HD
ENDBRANCH   4  22
TORSDOF 5
ENDMDL
MODEL 7
REMARK VINA RESULT:      -5.5      4.462      5.908
REMARK  5 active torsions:
REMARK  status: ('A' for Active; 'I' for Inactive)
REMARK    1  A    between atoms: C_6  and  C_3 
REMARK    2  A    between atoms: O_16  and  C_3 
REMARK    3  A    between atoms: C_5  and  O_17 
REMARK    4  A    between atoms: C_7  and  N_15 
REMARK    5  A    between atoms: O_18  and  C_9 
ROOT
HETATM    1  C   UNK N   1      29.321  17.719   6.321  0.00  0.00     0.143 A 
HETATM    2  C   UNK N   1      28.280  18.405   5.698  0.00  0.00     0.175 A 
HETATM    3  C   UNK N   1      27.427  19.181   6.483  0.00  0.00     0.142 A 
HETATM    4  C   UNK N   1      28.635  18.567   8.421  0.00  0.00     0.227 A 
HETATM    5  F   UNK N   1      28.114  18.324   4.355  0.00  0.00    -0.201 F 
HETATM    6  N   UNK N   1      26.471  19.840   5.944  0.00  0.00    -0.383 N 
ATOM      7  HN  UNK N   1      25.975  20.545   6.490  1.00  0.00     0.157 HD
HETATM    8  N   UNK N   1      27.618  19.243   7.822  0.00  0.00    -0.306 N 
ATOM      9  HN  UNK N   1      26.989  19.808   8.392  1.00  0.00     0.171 HD
HETATM   10  N   UNK N   1      29.495  17.800   7.673  0.00  0.00    -0.293 N 
HETATM   11  H   UNK N   1      26.208  19.673   5.010  0.00  0.00     0.157 HD
ENDROOT
BRANCH  10  12
HETATM   12  C   UNK N   1      30.629  17.118   8.320  0.00  0.00     0.234 C 
HETATM   13  C   UNK N   1      31.238  16.047   7.425  0.00  0.00     0.088 C 
HETATM   14  C   UNK N   1      32.522  15.862   8.159  0.00  0.00     0.153 C 
HETATM   15  C   UNK N   1      32.890  17.310   8.446  0.00  0.00     0.176 C 
HETATM   16  O   UNK N   1      31.677  18.007   8.682  0.00  0.00    -0.356 OA
BRANCH  14  17
HETATM   17  O   UNK N   1      33.486  15.174   7.418  0.00  0.00    -0.393 OA
HETATM   18  H   UNK N   1      34.424  15.241   7.180  0.00  0.00     0.210 HD
ENDBRANCH  14  17
BRANCH  15  19
HETATM   19  C   UNK N   1      33.612  17.960   7.264  0.00  0.00     0.198 C 
BRANCH  19  20
HETATM   20  O   UNK N   1      34.802  18.549   7.694  0.00  0.00    -0.398 OA
HETATM   21  H   UNK N   1      35.212  19.331   7.291  0.00  0.00     0.209 HD
ENDBRANCH  19  20
ENDBRANCH  15  19
ENDBRANCH  10  12
BRANCH   4  22
HETATM   22  O   UNK N   1      28.798  18.674   9.753  0.00  0.00    -0.332 OA
HETATM   23  H   UNK N   1      29.586  18.364  10.155  0.00  0.00     0.221 HD
ENDBRANCH   4  22
TORSDOF 5
ENDMDL
MODEL 8
REMARK VINA RESULT:      -5.4      4.179      5.509
REMARK  5 active torsions:
REMARK  status: ('A' for Active; 'I' for Inactive)
REMARK    1  A    between atoms: C_6  and  C_3 
REMARK    2  A    between atoms: O_16  and  C_3 
REMARK    3  A    between atoms: C_5  and  O_17 
REMARK    4  A    between atoms: C_7  and  N_15 
REMARK    5  A    between atoms: O_18  and  C_9 
ROOT
HETATM    1  C   UNK N   1      32.774  15.646   9.028  0.00  0.00     0.143 A 
HETATM    2  C   UNK N   1      33.830  15.088   9.747  0.00  0.00     0.175 A 
HETATM    3  C   UNK N   1      34.956  15.871   9.997  0.00  0.00     0.142 A 
HETATM    4  C   UNK N   1      33.973  17.676   8.826  0.00  0.00     0.227 A 
HETATM    5  F   UNK N   1      33.750  13.813  10.202  0.00  0.00    -0.201 F 
HETATM    6  N   UNK N   1      35.938  15.399  10.668  0.00  0.00    -0.383 N 
ATOM      7  HN  UNK N   1      36.666  16.029  11.005  1.00  0.00     0.157 HD
HETATM    8  N   UNK N   1      35.006  17.142   9.530  0.00  0.00    -0.306 N 
ATOM      9  HN  UNK N   1      35.834  17.709   9.711  1.00  0.00     0.171 HD
HETATM   10  N   UNK N   1      32.848  16.930   8.572  0.00  0.00    -0.293 N 
HETATM   11  H   UNK N   1      35.998  14.436  10.864  0.00  0.00     0.157 HD
ENDROOT
BRANCH  10  12
HETATM   12  C   UNK N   1      31.707  17.535   7.860  0.00  0.00     0.234 C 
HETATM   13  C   UNK N   1      30.736  16.483   7.339  0.00  0.00     0.088 C 
HETATM   14  C   UNK N   1      29.579  17.380   7.064  0.00  0.00     0.153 C 
HETATM   15  C   UNK N   1      29.598  18.250   8.312  0.00  0.00     0.176 C 
HETATM   16  O   UNK N   1      30.959  18.429   8.671  0.00  0.00    -0.356 OA
BRANCH  14  17
HETATM   17  O   UNK N   1      28.378  16.690   6.879  0.00  0.00    -0.393 OA
HETATM   18  H   UNK N   1      27.920  15.901   7.208  0.00  0.00     0.210 HD
ENDBRANCH  14  17
BRANCH  15  19
HETATM   19  C   UNK N   1      28.862  17.590   9.479  0.00  0.00     0.198 C 
BRANCH  19  20
HETATM   20  O   UNK N   1      27.514  17.951   9.462  0.00  0.00    -0.398 OA
HETATM   21  H   UNK N   1      26.953  17.964   8.671  0.00  0.00     0.209 HD
ENDBRANCH  19  20
ENDBRANCH  15  19
ENDBRANCH  10  12
BRANCH   4  22
HETATM   22  O   UNK N   1      34.060  18.949   8.400  0.00  0.00    -0.332 OA
HETATM   23  H   UNK N   1      33.398  19.301   7.836  0.00  0.00     0.221 HD
ENDBRANCH   4  22
TORSDOF 5
ENDMDL
MODEL 9
REMARK VINA RESULT:      -5.4     12.534     13.959
REMARK  5 active torsions:
REMARK  status: ('A' for Active; 'I' for Inactive)
REMARK    1  A    between atoms: C_6  and  C_3 
REMARK    2  A    between atoms: O_16  and  C_3 
REMARK    3  A    between atoms: C_5  and  O_17 
REMARK    4  A    between atoms: C_7  and  N_15 
REMARK    5  A    between atoms: O_18  and  C_9 
ROOT
HETATM    1  C   UNK N   1      22.927  13.828   9.009  0.00  0.00     0.143 A 
HETATM    2  C   UNK N   1      23.359  12.773   9.813  0.00  0.00     0.175 A 
HETATM    3  C   UNK N   1      22.440  12.163  10.665  0.00  0.00     0.142 A 
HETATM    4  C   UNK N   1      20.750  13.639   9.918  0.00  0.00     0.227 A 
HETATM    5  F   UNK N   1      24.646  12.350   9.753  0.00  0.00    -0.201 F 
HETATM    6  N   UNK N   1      22.795  11.181  11.405  0.00  0.00    -0.383 N 
ATOM      7  HN  UNK N   1      22.084  10.624  11.879  1.00  0.00     0.157 HD
HETATM    8  N   UNK N   1      21.161  12.608  10.703  0.00  0.00    -0.306 N 
ATOM      9  HN  UNK N   1      20.494  12.161  11.332  1.00  0.00     0.171 HD
HETATM   10  N   UNK N   1      21.632  14.255   9.064  0.00  0.00    -0.293 N 
HETATM   11  H   UNK N   1      23.747  10.957  11.524  0.00  0.00     0.157 HD
ENDROOT
BRANCH  10  12
HETATM   12  C   UNK N   1      21.165  15.332   8.172  0.00  0.00     0.234 C 
HETATM   13  C   UNK N   1      20.026  14.873   7.270  0.00  0.00     0.088 C 
HETATM   14  C   UNK N   1      19.549  16.216   6.832  0.00  0.00     0.153 C 
HETATM   15  C   UNK N   1      19.590  16.970   8.154  0.00  0.00     0.176 C 
HETATM   16  O   UNK N   1      20.705  16.476   8.878  0.00  0.00    -0.356 OA
BRANCH  14  17
HETATM   17  O   UNK N   1      18.282  16.185   6.244  0.00  0.00    -0.393 OA
HETATM   18  H   UNK N   1      17.357  16.377   6.466  0.00  0.00     0.210 HD
ENDBRANCH  14  17
BRANCH  15  19
HETATM   19  C   UNK N   1      18.323  16.744   8.980  0.00  0.00     0.198 C 
BRANCH  19  20
HETATM   20  O   UNK N   1      17.480  17.851   8.879  0.00  0.00    -0.398 OA
HETATM   21  H   UNK N   1      16.645  17.959   9.360  0.00  0.00     0.209 HD
ENDBRANCH  19  20
ENDBRANCH  15  19
ENDBRANCH  10  12
BRANCH   4  22
HETATM   22  O   UNK N   1      19.465  14.034   9.975  0.00  0.00    -0.332 OA
HETATM   23  H   UNK N   1      18.795  13.510   9.579  0.00  0.00     0.221 HD
ENDBRANCH   4  22
TORSDOF 5
ENDMDL
