MODEL 1
REMARK VINA RESULT:      -6.6      0.000      0.000
REMARK  3 active torsions:
REMARK  status: ('A' for Active; 'I' for Inactive)
REMARK    1  A    between atoms: C_6  and  C_7 
REMARK    2  A    between atoms: C_7  and  C_9 
REMARK    3  A    between atoms: C_13  and  N_14 
ROOT
HETATM    1  C   UNK N   1      29.987  17.525   7.286  0.00  0.00     0.056 A 
HETATM    2  C   UNK N   1      31.001  17.353   6.268  0.00  0.00    -0.028 A 
HETATM    3  C   UNK N   1      32.310  17.357   6.758  0.00  0.00    -0.008 A 
HETATM    4  S   UNK N   1      32.235  17.572   8.386  0.00  0.00    -0.076 SA
HETATM    5  C   UNK N   1      30.593  17.663   8.569  0.00  0.00     0.083 A 
HETATM    6  C   UNK N   1      33.551  17.211   5.932  0.00  0.00     0.047 C 
HETATM    7  C   UNK N   1      33.221  16.870   4.473  0.00  0.00     0.005 C 
HETATM    8  C   UNK N   1      31.976  17.604   3.977  0.00  0.00     0.005 C 
HETATM    9  C   UNK N   1      30.747  17.190   4.793  0.00  0.00     0.041 C 
ENDROOT
BRANCH   1  10
HETATM   10  C   UNK N   1      28.508  17.518   6.927  0.00  0.00     0.195 C 
HETATM   11  O   UNK N   1      27.780  16.790   7.588  0.00  0.00    -0.287 OA
BRANCH  10  12
HETATM   12  C   UNK N   1      27.831  18.327   5.861  0.00  0.00     0.015 A 
HETATM   13  C   UNK N   1      27.855  19.722   5.825  0.00  0.00     0.017 A 
HETATM   14  C   UNK N   1      27.189  20.433   4.822  0.00  0.00     0.025 A 
HETATM   15  C   UNK N   1      26.490  19.747   3.830  0.00  0.00     0.034 A 
HETATM   16  C   UNK N   1      26.473  18.352   3.831  0.00  0.00     0.025 A 
HETATM   17 Cl   UNK N   1      25.629  20.637   2.594  0.00  0.00    -0.084 Cl
HETATM   18  C   UNK N   1      27.143  17.648   4.837  0.00  0.00     0.017 A 
ENDBRANCH  10  12
ENDBRANCH   1  10
BRANCH   5  19
HETATM   19  N   UNK N   1      29.986  17.811   9.826  0.00  0.00    -0.393 N 
HETATM   20  H   UNK N   1      30.449  18.305  10.541  0.00  0.00     0.156 HD
HETATM   21  H   UNK N   1      29.097  17.422   9.993  0.00  0.00     0.156 HD
ENDBRANCH   5  19
TORSDOF 3
ENDMDL
MODEL 2
REMARK VINA RESULT:      -6.4     12.052     14.030
REMARK  3 active torsions:
REMARK  status: ('A' for Active; 'I' for Inactive)
REMARK    1  A    between atoms: C_6  and  C_7 
REMARK    2  A    between atoms: C_7  and  C_9 
REMARK    3  A    between atoms: C_13  and  N_14 
ROOT
HETATM    1  C   UNK N   1      35.461  12.790  14.663  0.00  0.00     0.056 A 
HETATM    2  C   UNK N   1      35.140  11.750  13.710  0.00  0.00    -0.028 A 
HETATM    3  C   UNK N   1      35.836  11.848  12.501  0.00  0.00    -0.008 A 
HETATM    4  S   UNK N   1      36.809  13.169  12.588  0.00  0.00    -0.076 SA
HETATM    5  C   UNK N   1      36.430  13.681  14.116  0.00  0.00     0.083 A 
HETATM    6  C   UNK N   1      35.694  10.918  11.335  0.00  0.00     0.047 C 
HETATM    7  C   UNK N   1      34.813   9.711  11.680  0.00  0.00     0.005 C 
HETATM    8  C   UNK N   1      33.641  10.093  12.585  0.00  0.00     0.005 C 
HETATM    9  C   UNK N   1      34.150  10.637  13.923  0.00  0.00     0.041 C 
ENDROOT
BRANCH   1  10
HETATM   10  C   UNK N   1      34.812  12.817  16.039  0.00  0.00     0.195 C 
HETATM   11  O   UNK N   1      33.779  13.463  16.153  0.00  0.00    -0.287 OA
BRANCH  10  12
HETATM   12  C   UNK N   1      35.286  12.118  17.278  0.00  0.00     0.015 A 
HETATM   13  C   UNK N   1      35.878  10.853  17.267  0.00  0.00     0.017 A 
HETATM   14  C   UNK N   1      36.282  10.232  18.452  0.00  0.00     0.025 A 
HETATM   15  C   UNK N   1      36.105  10.880  19.674  0.00  0.00     0.034 A 
HETATM   16  C   UNK N   1      35.539  12.155  19.707  0.00  0.00     0.025 A 
HETATM   17 Cl   UNK N   1      36.581  10.088  21.159  0.00  0.00    -0.084 Cl
HETATM   18  C   UNK N   1      35.138  12.770  18.518  0.00  0.00     0.017 A 
ENDBRANCH  10  12
ENDBRANCH   1  10
BRANCH   5  19
HETATM   19  N   UNK N   1      37.044  14.797  14.706  0.00  0.00    -0.393 N 
HETATM   20  H   UNK N   1      37.848  15.191  14.298  0.00  0.00     0.156 HD
HETATM   21  H   UNK N   1      36.670  15.186  15.530  0.00  0.00     0.156 HD
ENDBRANCH   5  19
TORSDOF 3
ENDMDL
MODEL 3
REMARK VINA RESULT:      -6.4      4.833      7.515
REMARK  3 active torsions:
REMARK  status: ('A' for Active; 'I' for Inactive)
REMARK    1  A    between atoms: C_6  and  C_7 
REMARK    2  A    between atoms: C_7  and  C_9 
REMARK    3  A    between atoms: C_13  and  N_14 
ROOT
HETATM    1  C   UNK N   1      32.050  17.230   6.781  0.00  0.00     0.056 A 
HETATM    2  C   UNK N   1      30.900  17.528   7.607  0.00  0.00    -0.028 A 
HETATM    3  C   UNK N   1      29.677  17.446   6.935  0.00  0.00    -0.008 A 
HETATM    4  S   UNK N   1      29.988  17.032   5.375  0.00  0.00    -0.076 SA
HETATM    5  C   UNK N   1      31.638  16.924   5.451  0.00  0.00     0.083 A 
HETATM    6  C   UNK N   1      28.331  17.713   7.536  0.00  0.00     0.047 C 
HETATM    7  C   UNK N   1      28.422  17.917   9.054  0.00  0.00     0.005 C 
HETATM    8  C   UNK N   1      29.679  18.688   9.458  0.00  0.00     0.005 C 
HETATM    9  C   UNK N   1      30.937  17.909   9.062  0.00  0.00     0.041 C 
ENDROOT
BRANCH   1  10
HETATM   10  C   UNK N   1      33.456  17.248   7.362  0.00  0.00     0.195 C 
HETATM   11  O   UNK N   1      34.286  17.938   6.785  0.00  0.00    -0.287 OA
BRANCH  10  12
HETATM   12  C   UNK N   1      33.940  16.529   8.586  0.00  0.00     0.015 A 
HETATM   13  C   UNK N   1      33.545  15.232   8.921  0.00  0.00     0.017 A 
HETATM   14  C   UNK N   1      34.007  14.612  10.085  0.00  0.00     0.025 A 
HETATM   15  C   UNK N   1      34.884  15.287  10.933  0.00  0.00     0.034 A 
HETATM   16  C   UNK N   1      35.313  16.574  10.605  0.00  0.00     0.025 A 
HETATM   17 Cl   UNK N   1      35.436  14.523  12.406  0.00  0.00    -0.084 Cl
HETATM   18  C   UNK N   1      34.848  17.187   9.438  0.00  0.00     0.017 A 
ENDBRANCH  10  12
ENDBRANCH   1  10
BRANCH   5  19
HETATM   19  N   UNK N   1      32.416  16.547   4.345  0.00  0.00    -0.393 N 
HETATM   20  H   UNK N   1      33.383  16.732   4.337  0.00  0.00     0.156 HD
HETATM   21  H   UNK N   1      31.995  16.098   3.577  0.00  0.00     0.156 HD
ENDBRANCH   5  19
TORSDOF 3
ENDMDL
MODEL 4
REMARK VINA RESULT:      -6.2     11.930     13.655
REMARK  3 active torsions:
REMARK  status: ('A' for Active; 'I' for Inactive)
REMARK    1  A    between atoms: C_6  and  C_7 
REMARK    2  A    between atoms: C_7  and  C_9 
REMARK    3  A    between atoms: C_13  and  N_14 
ROOT
HETATM    1  C   UNK N   1      27.140  23.936  -5.382  0.00  0.00     0.056 A 
HETATM    2  C   UNK N   1      28.399  23.253  -5.180  0.00  0.00    -0.028 A 
HETATM    3  C   UNK N   1      28.766  22.408  -6.231  0.00  0.00    -0.008 A 
HETATM    4  S   UNK N   1      27.586  22.484  -7.372  0.00  0.00    -0.076 SA
HETATM    5  C   UNK N   1      26.570  23.564  -6.635  0.00  0.00     0.083 A 
HETATM    6  C   UNK N   1      30.008  21.571  -6.285  0.00  0.00     0.047 C 
HETATM    7  C   UNK N   1      30.948  21.882  -5.113  0.00  0.00     0.005 C 
HETATM    8  C   UNK N   1      30.185  22.151  -3.817  0.00  0.00     0.005 C 
HETATM    9  C   UNK N   1      29.284  23.381  -3.969  0.00  0.00     0.041 C 
ENDROOT
BRANCH   1  10
HETATM   10  C   UNK N   1      26.604  24.914  -4.346  0.00  0.00     0.195 C 
HETATM   11  O   UNK N   1      26.105  24.434  -3.336  0.00  0.00    -0.287 OA
BRANCH  10  12
HETATM   12  C   UNK N   1      26.639  26.411  -4.410  0.00  0.00     0.015 A 
HETATM   13  C   UNK N   1      27.096  27.122  -5.522  0.00  0.00     0.017 A 
HETATM   14  C   UNK N   1      27.130  28.519  -5.525  0.00  0.00     0.025 A 
HETATM   15  C   UNK N   1      26.695  29.229  -4.407  0.00  0.00     0.034 A 
HETATM   16  C   UNK N   1      26.210  28.541  -3.294  0.00  0.00     0.025 A 
HETATM   17 Cl   UNK N   1      26.769  30.976  -4.399  0.00  0.00    -0.084 Cl
HETATM   18  C   UNK N   1      26.178  27.143  -3.299  0.00  0.00     0.017 A 
ENDBRANCH  10  12
ENDBRANCH   1  10
BRANCH   5  19
HETATM   19  N   UNK N   1      25.385  24.012  -7.240  0.00  0.00    -0.393 N 
HETATM   20  H   UNK N   1      24.842  24.708  -6.804  0.00  0.00     0.156 HD
HETATM   21  H   UNK N   1      25.097  23.629  -8.100  0.00  0.00     0.156 HD
ENDBRANCH   5  19
TORSDOF 3
ENDMDL
MODEL 5
REMARK VINA RESULT:      -6.2      2.232      2.902
REMARK  3 active torsions:
REMARK  status: ('A' for Active; 'I' for Inactive)
REMARK    1  A    between atoms: C_6  and  C_7 
REMARK    2  A    between atoms: C_7  and  C_9 
REMARK    3  A    between atoms: C_13  and  N_14 
ROOT
HETATM    1  C   UNK N   1      30.421  17.145   5.052  0.00  0.00     0.056 A 
HETATM    2  C   UNK N   1      31.330  17.333   6.162  0.00  0.00    -0.028 A 
HETATM    3  C   UNK N   1      32.679  17.360   5.798  0.00  0.00    -0.008 A 
HETATM    4  S   UNK N   1      32.763  17.153   4.169  0.00  0.00    -0.076 SA
HETATM    5  C   UNK N   1      31.148  17.028   3.831  0.00  0.00     0.083 A 
HETATM    6  C   UNK N   1      33.833  17.527   6.738  0.00  0.00     0.047 C 
HETATM    7  C   UNK N   1      33.360  17.853   8.160  0.00  0.00     0.005 C 
HETATM    8  C   UNK N   1      32.089  17.089   8.534  0.00  0.00     0.005 C 
HETATM    9  C   UNK N   1      30.934  17.481   7.606  0.00  0.00     0.041 C 
ENDROOT
BRANCH   1  10
HETATM   10  C   UNK N   1      28.915  17.118   5.269  0.00  0.00     0.195 C 
HETATM   11  O   UNK N   1      28.483  16.286   6.057  0.00  0.00    -0.287 OA
BRANCH  10  12
HETATM   12  C   UNK N   1      27.892  18.016   4.641  0.00  0.00     0.015 A 
HETATM   13  C   UNK N   1      27.984  19.409   4.651  0.00  0.00     0.017 A 
HETATM   14  C   UNK N   1      26.993  20.206   4.071  0.00  0.00     0.025 A 
HETATM   15  C   UNK N   1      25.890  19.610   3.461  0.00  0.00     0.034 A 
HETATM   16  C   UNK N   1      25.789  18.219   3.416  0.00  0.00     0.025 A 
HETATM   17 Cl   UNK N   1      24.633  20.607   2.764  0.00  0.00    -0.084 Cl
HETATM   18  C   UNK N   1      26.786  17.429   3.997  0.00  0.00     0.017 A 
ENDBRANCH  10  12
ENDBRANCH   1  10
BRANCH   5  19
HETATM   19  N   UNK N   1      30.666  16.873   2.522  0.00  0.00    -0.393 N 
HETATM   20  H   UNK N   1      30.289  17.646   2.042  0.00  0.00     0.156 HD
HETATM   21  H   UNK N   1      30.706  15.993   2.083  0.00  0.00     0.156 HD
ENDBRANCH   5  19
TORSDOF 3
ENDMDL
MODEL 6
REMARK VINA RESULT:      -6.2     13.889     16.138
REMARK  3 active torsions:
REMARK  status: ('A' for Active; 'I' for Inactive)
REMARK    1  A    between atoms: C_6  and  C_7 
REMARK    2  A    between atoms: C_7  and  C_9 
REMARK    3  A    between atoms: C_13  and  N_14 
ROOT
HETATM    1  C   UNK N   1      35.217  11.185  18.499  0.00  0.00     0.056 A 
HETATM    2  C   UNK N   1      34.994  11.265  17.072  0.00  0.00    -0.028 A 
HETATM    3  C   UNK N   1      34.979  12.569  16.568  0.00  0.00    -0.008 A 
HETATM    4  S   UNK N   1      35.221  13.597  17.827  0.00  0.00    -0.076 SA
HETATM    5  C   UNK N   1      35.365  12.492  19.051  0.00  0.00     0.083 A 
HETATM    6  C   UNK N   1      34.758  12.948  15.135  0.00  0.00     0.047 C 
HETATM    7  C   UNK N   1      34.727  11.714  14.224  0.00  0.00     0.005 C 
HETATM    8  C   UNK N   1      34.029  10.526  14.885  0.00  0.00     0.005 C 
HETATM    9  C   UNK N   1      34.780  10.096  16.149  0.00  0.00     0.041 C 
ENDROOT
BRANCH   1  10
HETATM   10  C   UNK N   1      35.289   9.840  19.206  0.00  0.00     0.195 C 
HETATM   11  O   UNK N   1      36.404   9.411  19.470  0.00  0.00    -0.287 OA
BRANCH  10  12
HETATM   12  C   UNK N   1      34.139   8.982  19.641  0.00  0.00     0.015 A 
HETATM   13  C   UNK N   1      33.194   9.386  20.587  0.00  0.00     0.017 A 
HETATM   14  C   UNK N   1      32.152   8.541  20.977  0.00  0.00     0.025 A 
HETATM   15  C   UNK N   1      32.036   7.271  20.413  0.00  0.00     0.034 A 
HETATM   16  C   UNK N   1      32.954   6.855  19.448  0.00  0.00     0.025 A 
HETATM   17 Cl   UNK N   1      30.751   6.202  20.926  0.00  0.00    -0.084 Cl
HETATM   18  C   UNK N   1      33.993   7.707  19.062  0.00  0.00     0.017 A 
ENDBRANCH  10  12
ENDBRANCH   1  10
BRANCH   5  19
HETATM   19  N   UNK N   1      35.629  12.871  20.376  0.00  0.00    -0.393 N 
HETATM   20  H   UNK N   1      36.066  12.239  20.992  0.00  0.00     0.156 HD
HETATM   21  H   UNK N   1      35.376  13.769  20.691  0.00  0.00     0.156 HD
ENDBRANCH   5  19
TORSDOF 3
ENDMDL
MODEL 7
REMARK VINA RESULT:      -6.1     11.695     13.818
REMARK  3 active torsions:
REMARK  status: ('A' for Active; 'I' for Inactive)
REMARK    1  A    between atoms: C_6  and  C_7 
REMARK    2  A    between atoms: C_7  and  C_9 
REMARK    3  A    between atoms: C_13  and  N_14 
ROOT
HETATM    1  C   UNK N   1      27.064  25.248  -4.773  0.00  0.00     0.056 A 
HETATM    2  C   UNK N   1      27.643  26.563  -4.939  0.00  0.00    -0.028 A 
HETATM    3  C   UNK N   1      27.101  27.297  -5.998  0.00  0.00    -0.008 A 
HETATM    4  S   UNK N   1      25.953  26.366  -6.717  0.00  0.00    -0.076 SA
HETATM    5  C   UNK N   1      26.060  25.021  -5.759  0.00  0.00     0.083 A 
HETATM    6  C   UNK N   1      27.516  28.677  -6.406  0.00  0.00     0.047 C 
HETATM    7  C   UNK N   1      28.503  29.289  -5.404  0.00  0.00     0.005 C 
HETATM    8  C   UNK N   1      29.487  28.253  -4.859  0.00  0.00     0.005 C 
HETATM    9  C   UNK N   1      28.741  27.154  -4.096  0.00  0.00     0.041 C 
ENDROOT
BRANCH   1  10
HETATM   10  C   UNK N   1      27.522  24.327  -3.651  0.00  0.00     0.195 C 
HETATM   11  O   UNK N   1      26.739  24.144  -2.728  0.00  0.00    -0.287 OA
BRANCH  10  12
HETATM   12  C   UNK N   1      28.826  23.593  -3.557  0.00  0.00     0.015 A 
HETATM   13  C   UNK N   1      29.437  23.267  -2.344  0.00  0.00     0.017 A 
HETATM   14  C   UNK N   1      30.665  22.600  -2.308  0.00  0.00     0.025 A 
HETATM   15  C   UNK N   1      31.299  22.243  -3.497  0.00  0.00     0.034 A 
HETATM   16  C   UNK N   1      30.695  22.536  -4.720  0.00  0.00     0.025 A 
HETATM   17 Cl   UNK N   1      32.852  21.439  -3.452  0.00  0.00    -0.084 Cl
HETATM   18  C   UNK N   1      29.466  23.202  -4.749  0.00  0.00     0.017 A 
ENDBRANCH  10  12
ENDBRANCH   1  10
BRANCH   5  19
HETATM   19  N   UNK N   1      25.229  23.904  -5.940  0.00  0.00    -0.393 N 
HETATM   20  H   UNK N   1      25.469  23.040  -5.531  0.00  0.00     0.156 HD
HETATM   21  H   UNK N   1      24.407  23.984  -6.475  0.00  0.00     0.156 HD
ENDBRANCH   5  19
TORSDOF 3
ENDMDL
MODEL 8
REMARK VINA RESULT:      -6.1      3.811      5.292
REMARK  3 active torsions:
REMARK  status: ('A' for Active; 'I' for Inactive)
REMARK    1  A    between atoms: C_6  and  C_7 
REMARK    2  A    between atoms: C_7  and  C_9 
REMARK    3  A    between atoms: C_13  and  N_14 
ROOT
HETATM    1  C   UNK N   1      34.781  16.289   8.305  0.00  0.00     0.056 A 
HETATM    2  C   UNK N   1      35.246  15.171   7.513  0.00  0.00    -0.028 A 
HETATM    3  C   UNK N   1      35.968  14.218   8.236  0.00  0.00    -0.008 A 
HETATM    4  S   UNK N   1      36.046  14.727   9.797  0.00  0.00    -0.076 SA
HETATM    5  C   UNK N   1      35.190  16.137   9.662  0.00  0.00     0.083 A 
HETATM    6  C   UNK N   1      36.575  12.970   7.672  0.00  0.00     0.047 C 
HETATM    7  C   UNK N   1      36.159  12.750   6.212  0.00  0.00     0.005 C 
HETATM    8  C   UNK N   1      36.082  14.062   5.431  0.00  0.00     0.005 C 
HETATM    9  C   UNK N   1      35.021  14.986   6.036  0.00  0.00     0.041 C 
ENDROOT
BRANCH   1  10
HETATM   10  C   UNK N   1      33.957  17.404   7.678  0.00  0.00     0.195 C 
HETATM   11  O   UNK N   1      34.572  18.357   7.218  0.00  0.00    -0.287 OA
BRANCH  10  12
HETATM   12  C   UNK N   1      32.466  17.458   7.537  0.00  0.00     0.015 A 
HETATM   13  C   UNK N   1      31.612  17.874   8.561  0.00  0.00     0.017 A 
HETATM   14  C   UNK N   1      30.225  17.887   8.388  0.00  0.00     0.025 A 
HETATM   15  C   UNK N   1      29.671  17.486   7.173  0.00  0.00     0.034 A 
HETATM   16  C   UNK N   1      30.505  17.091   6.127  0.00  0.00     0.025 A 
HETATM   17 Cl   UNK N   1      27.934  17.471   6.969  0.00  0.00    -0.084 Cl
HETATM   18  C   UNK N   1      31.892  17.083   6.307  0.00  0.00     0.017 A 
ENDBRANCH  10  12
ENDBRANCH   1  10
BRANCH   5  19
HETATM   19  N   UNK N   1      34.927  16.963  10.766  0.00  0.00    -0.393 N 
HETATM   20  H   UNK N   1      34.974  17.942  10.672  0.00  0.00     0.156 HD
HETATM   21  H   UNK N   1      34.697  16.563  11.636  0.00  0.00     0.156 HD
ENDBRANCH   5  19
TORSDOF 3
ENDMDL
MODEL 9
REMARK VINA RESULT:      -6.1      9.061     10.633
REMARK  3 active torsions:
REMARK  status: ('A' for Active; 'I' for Inactive)
REMARK    1  A    between atoms: C_6  and  C_7 
REMARK    2  A    between atoms: C_7  and  C_9 
REMARK    3  A    between atoms: C_13  and  N_14 
ROOT
HETATM    1  C   UNK N   1      20.861  15.496   7.255  0.00  0.00     0.056 A 
HETATM    2  C   UNK N   1      21.279  14.635   8.340  0.00  0.00    -0.028 A 
HETATM    3  C   UNK N   1      22.574  14.128   8.201  0.00  0.00    -0.008 A 
HETATM    4  S   UNK N   1      23.190  14.706   6.791  0.00  0.00    -0.076 SA
HETATM    5  C   UNK N   1      21.901  15.613   6.287  0.00  0.00     0.083 A 
HETATM    6  C   UNK N   1      23.258  13.205   9.163  0.00  0.00     0.047 C 
HETATM    7  C   UNK N   1      22.433  13.011  10.442  0.00  0.00     0.005 C 
HETATM    8  C   UNK N   1      20.932  12.948  10.155  0.00  0.00     0.005 C 
HETATM    9  C   UNK N   1      20.447  14.263   9.538  0.00  0.00     0.041 C 
ENDROOT
BRANCH   1  10
HETATM   10  C   UNK N   1      19.489  16.154   7.262  0.00  0.00     0.195 C 
HETATM   11  O   UNK N   1      18.802  16.015   6.258  0.00  0.00    -0.287 OA
BRANCH  10  12
HETATM   12  C   UNK N   1      18.865  16.939   8.377  0.00  0.00     0.015 A 
HETATM   13  C   UNK N   1      17.565  16.719   8.837  0.00  0.00     0.017 A 
HETATM   14  C   UNK N   1      17.020  17.493   9.865  0.00  0.00     0.025 A 
HETATM   15  C   UNK N   1      17.780  18.501  10.456  0.00  0.00     0.034 A 
HETATM   16  C   UNK N   1      19.090  18.722  10.030  0.00  0.00     0.025 A 
HETATM   17 Cl   UNK N   1      17.086  19.491  11.720  0.00  0.00    -0.084 Cl
HETATM   18  C   UNK N   1      19.629  17.943   9.002  0.00  0.00     0.017 A 
ENDBRANCH  10  12
ENDBRANCH   1  10
BRANCH   5  19
HETATM   19  N   UNK N   1      21.934  16.371   5.106  0.00  0.00    -0.393 N 
HETATM   20  H   UNK N   1      21.129  16.852   4.807  0.00  0.00     0.156 HD
HETATM   21  H   UNK N   1      22.762  16.421   4.576  0.00  0.00     0.156 HD
ENDBRANCH   5  19
TORSDOF 3
ENDMDL
