MODEL 1
REMARK VINA RESULT:      -5.6      0.000      0.000
REMARK  3 active torsions:
REMARK  status: ('A' for Active; 'I' for Inactive)
REMARK    1  A    between atoms: C_2  and  C_10 
REMARK    2  A    between atoms: N_3  and  N_5 
REMARK       I    between atoms: N_5  and  C_6 
REMARK       I    between atoms: C_6  and  N_9 
REMARK    3  A    between atoms: N_11  and  N_13 
REMARK       I    between atoms: N_13  and  C_14 
REMARK       I    between atoms: C_14  and  N_17 
ROOT
HETATM    1  C   UNK N   1      31.414  17.138   6.821  0.00  0.00     0.071 C 
HETATM    2  C   UNK N   1      31.999  17.638   8.113  0.00  0.00     0.039 C 
HETATM    3  N   UNK N   1      31.267  18.268   8.964  0.00  0.00    -0.290 N 
ATOM      4  HN  UNK N   1      31.681  18.600   9.835  1.00  0.00     0.187 HD
ENDROOT
BRANCH   2   5
HETATM    5  C   UNK N   1      33.421  17.402   8.399  0.00  0.00     0.133 C 
HETATM    6  N   UNK N   1      33.796  17.277   9.618  0.00  0.00    -0.296 N 
ATOM      7  HN  UNK N   1      33.100  17.343  10.362  1.00  0.00     0.186 HD
BRANCH   6   8
HETATM    8  N   UNK N   1      35.106  17.055   9.946  0.00  0.00    -0.133 N 
HETATM    9  C   UNK N   1      35.429  16.000  10.831  0.00  0.00     0.684 C 
HETATM   10  N   UNK N   1      36.649  15.780  11.147  0.00  0.00    -0.234 N 
HETATM   11  N   UNK N   1      34.405  15.185  11.368  0.00  0.00    -0.234 N 
HETATM   12  H   UNK N   1      36.872  15.045  11.764  0.00  0.00     0.174 HD
ATOM     13  HN  UNK N   1      37.390  16.365  10.762  1.00  0.00     0.174 HD
HETATM   14  H   UNK N   1      33.465  15.352  11.127  0.00  0.00     0.174 HD
HETATM   15  H   UNK N   1      34.632  14.452  11.984  0.00  0.00     0.174 HD
HETATM   16  H   UNK N   1      35.816  17.625   9.569  0.00  0.00     0.205 HD
ENDBRANCH   6   8
ENDBRANCH   2   5
BRANCH   3  17
HETATM   17  N   UNK N   1      29.937  18.498   8.713  0.00  0.00    -0.133 N 
HETATM   18  C   UNK N   1      28.927  17.884   9.488  0.00  0.00     0.684 C 
HETATM   19  N   UNK N   1      27.696  18.119   9.228  0.00  0.00    -0.234 N 
HETATM   20  N   UNK N   1      29.269  17.013  10.547  0.00  0.00    -0.234 N 
HETATM   21  H   UNK N   1      26.991  17.693   9.766  0.00  0.00     0.174 HD
ATOM     22  HN  UNK N   1      27.447  18.747   8.465  1.00  0.00     0.174 HD
HETATM   23  H   UNK N   1      30.215  16.831  10.749  0.00  0.00     0.174 HD
HETATM   24  H   UNK N   1      28.561  16.589  11.084  0.00  0.00     0.174 HD
HETATM   25  H   UNK N   1      29.681  19.102   7.978  0.00  0.00     0.205 HD
ENDBRANCH   3  17
TORSDOF 3
ENDMDL
MODEL 2
REMARK VINA RESULT:      -5.6      0.467      5.699
REMARK  3 active torsions:
REMARK  status: ('A' for Active; 'I' for Inactive)
REMARK    1  A    between atoms: C_2  and  C_10 
REMARK    2  A    between atoms: N_3  and  N_5 
REMARK       I    between atoms: N_5  and  C_6 
REMARK       I    between atoms: C_6  and  N_9 
REMARK    3  A    between atoms: N_11  and  N_13 
REMARK       I    between atoms: N_13  and  C_14 
REMARK       I    between atoms: C_14  and  N_17 
ROOT
HETATM    1  C   UNK N   1      34.385  16.622   7.379  0.00  0.00     0.071 C 
HETATM    2  C   UNK N   1      33.505  17.283   8.405  0.00  0.00     0.039 C 
HETATM    3  N   UNK N   1      33.936  17.501   9.597  0.00  0.00    -0.290 N 
ATOM      4  HN  UNK N   1      33.325  17.950  10.279  1.00  0.00     0.187 HD
ENDROOT
BRANCH   2   5
HETATM    5  C   UNK N   1      32.139  17.680   8.034  0.00  0.00     0.133 C 
HETATM    6  N   UNK N   1      31.321  18.027   8.957  0.00  0.00    -0.296 N 
ATOM      7  HN  UNK N   1      31.635  18.021   9.928  1.00  0.00     0.186 HD
BRANCH   6   8
HETATM    8  N   UNK N   1      30.038  18.407   8.672  0.00  0.00    -0.133 N 
HETATM    9  C   UNK N   1      28.975  17.893   9.453  0.00  0.00     0.684 C 
HETATM   10  N   UNK N   1      27.769  18.238   9.200  0.00  0.00    -0.234 N 
HETATM   11  N   UNK N   1      29.243  16.998  10.515  0.00  0.00    -0.234 N 
HETATM   12  H   UNK N   1      27.031  17.880   9.744  0.00  0.00     0.174 HD
ATOM     13  HN  UNK N   1      27.573  18.883   8.435  1.00  0.00     0.174 HD
HETATM   14  H   UNK N   1      30.170  16.731  10.712  0.00  0.00     0.174 HD
HETATM   15  H   UNK N   1      28.502  16.642  11.057  0.00  0.00     0.174 HD
HETATM   16  H   UNK N   1      29.856  19.030   7.932  0.00  0.00     0.205 HD
ENDBRANCH   6   8
ENDBRANCH   2   5
BRANCH   3  17
HETATM   17  N   UNK N   1      35.209  17.137   9.961  0.00  0.00    -0.133 N 
HETATM   18  C   UNK N   1      35.442  16.037  10.819  0.00  0.00     0.684 C 
HETATM   19  N   UNK N   1      36.640  15.724  11.139  0.00  0.00    -0.234 N 
HETATM   20  N   UNK N   1      34.358  15.284  11.323  0.00  0.00    -0.234 N 
HETATM   21  H   UNK N   1      36.805  14.959  11.735  0.00  0.00     0.174 HD
ATOM     22  HN  UNK N   1      37.423  16.267  10.776  1.00  0.00     0.174 HD
HETATM   23  H   UNK N   1      33.435  15.523  11.078  0.00  0.00     0.174 HD
HETATM   24  H   UNK N   1      34.526  14.519  11.920  0.00  0.00     0.174 HD
HETATM   25  H   UNK N   1      35.976  17.652   9.618  0.00  0.00     0.205 HD
ENDBRANCH   3  17
TORSDOF 3
ENDMDL
MODEL 3
REMARK VINA RESULT:      -5.1      1.844      6.110
REMARK  3 active torsions:
REMARK  status: ('A' for Active; 'I' for Inactive)
REMARK    1  A    between atoms: C_2  and  C_10 
REMARK    2  A    between atoms: N_3  and  N_5 
REMARK       I    between atoms: N_5  and  C_6 
REMARK       I    between atoms: C_6  and  N_9 
REMARK    3  A    between atoms: N_11  and  N_13 
REMARK       I    between atoms: N_13  and  C_14 
REMARK       I    between atoms: C_14  and  N_17 
ROOT
HETATM    1  C   UNK N   1      32.148  14.805   7.493  0.00  0.00     0.071 C 
HETATM    2  C   UNK N   1      31.712  15.960   8.352  0.00  0.00     0.039 C 
HETATM    3  N   UNK N   1      31.936  15.957   9.619  0.00  0.00    -0.290 N 
ATOM      4  HN  UNK N   1      31.634  16.749  10.186  1.00  0.00     0.187 HD
ENDROOT
BRANCH   2   5
HETATM    5  C   UNK N   1      31.024  17.101   7.731  0.00  0.00     0.133 C 
HETATM    6  N   UNK N   1      29.747  17.073   7.626  0.00  0.00    -0.296 N 
ATOM      7  HN  UNK N   1      29.237  16.262   7.975  1.00  0.00     0.186 HD
BRANCH   6   8
HETATM    8  N   UNK N   1      29.052  18.106   7.058  0.00  0.00    -0.133 N 
HETATM    9  C   UNK N   1      28.067  18.779   7.819  0.00  0.00     0.684 C 
HETATM   10  N   UNK N   1      27.409  19.747   7.302  0.00  0.00    -0.234 N 
HETATM   11  N   UNK N   1      27.808  18.385   9.153  0.00  0.00    -0.234 N 
HETATM   12  H   UNK N   1      26.724  20.214   7.833  0.00  0.00     0.174 HD
ATOM     13  HN  UNK N   1      27.593  20.034   6.341  1.00  0.00     0.174 HD
HETATM   14  H   UNK N   1      28.313  17.640   9.553  0.00  0.00     0.174 HD
HETATM   15  H   UNK N   1      27.122  18.854   9.681  0.00  0.00     0.174 HD
HETATM   16  H   UNK N   1      29.236  18.378   6.129  0.00  0.00     0.205 HD
ENDBRANCH   6   8
ENDBRANCH   2   5
BRANCH   3  17
HETATM   17  N   UNK N   1      32.578  14.900  10.216  0.00  0.00    -0.133 N 
HETATM   18  C   UNK N   1      33.879  15.038  10.751  0.00  0.00     0.684 C 
HETATM   19  N   UNK N   1      34.449  14.033  11.300  0.00  0.00    -0.234 N 
HETATM   20  N   UNK N   1      34.552  16.279  10.682  0.00  0.00    -0.234 N 
HETATM   21  H   UNK N   1      35.355  14.126  11.674  0.00  0.00     0.174 HD
ATOM     22  HN  UNK N   1      33.965  13.137  11.351  1.00  0.00     0.174 HD
HETATM   23  H   UNK N   1      34.115  17.053  10.259  0.00  0.00     0.174 HD
HETATM   24  H   UNK N   1      35.458  16.369  11.056  0.00  0.00     0.174 HD
HETATM   25  H   UNK N   1      32.123  14.028  10.272  0.00  0.00     0.205 HD
ENDBRANCH   3  17
TORSDOF 3
ENDMDL
MODEL 4
REMARK VINA RESULT:      -4.9      2.784      7.177
REMARK  3 active torsions:
REMARK  status: ('A' for Active; 'I' for Inactive)
REMARK    1  A    between atoms: C_2  and  C_10 
REMARK    2  A    between atoms: N_3  and  N_5 
REMARK       I    between atoms: N_5  and  C_6 
REMARK       I    between atoms: C_6  and  N_9 
REMARK    3  A    between atoms: N_11  and  N_13 
REMARK       I    between atoms: N_13  and  C_14 
REMARK       I    between atoms: C_14  and  N_17 
ROOT
HETATM    1  C   UNK N   1      29.793  18.667   9.564  0.00  0.00     0.071 C 
HETATM    2  C   UNK N   1      29.903  17.906   8.272  0.00  0.00     0.039 C 
HETATM    3  N   UNK N   1      30.909  17.136   8.046  0.00  0.00    -0.290 N 
ATOM      4  HN  UNK N   1      30.967  16.628   7.164  1.00  0.00     0.187 HD
ENDROOT
BRANCH   2   5
HETATM    5  C   UNK N   1      28.846  18.048   7.260  0.00  0.00     0.133 C 
HETATM    6  N   UNK N   1      27.907  18.896   7.458  0.00  0.00    -0.296 N 
ATOM      7  HN  UNK N   1      27.912  19.454   8.313  1.00  0.00     0.186 HD
BRANCH   6   8
HETATM    8  N   UNK N   1      26.896  19.072   6.552  0.00  0.00    -0.133 N 
HETATM    9  C   UNK N   1      26.743  20.329   5.922  0.00  0.00     0.684 C 
HETATM   10  N   UNK N   1      25.804  20.510   5.072  0.00  0.00    -0.234 N 
HETATM   11  N   UNK N   1      27.628  21.390   6.228  0.00  0.00    -0.234 N 
HETATM   12  H   UNK N   1      25.698  21.385   4.634  0.00  0.00     0.174 HD
ATOM     13  HN  UNK N   1      25.164  19.747   4.849  1.00  0.00     0.174 HD
HETATM   14  H   UNK N   1      28.351  21.254   6.881  0.00  0.00     0.174 HD
HETATM   15  H   UNK N   1      27.519  22.264   5.788  0.00  0.00     0.174 HD
HETATM   16  H   UNK N   1      26.283  18.331   6.342  0.00  0.00     0.205 HD
ENDBRANCH   6   8
ENDBRANCH   2   5
BRANCH   3  17
HETATM   17  N   UNK N   1      31.906  16.992   8.980  0.00  0.00    -0.133 N 
HETATM   18  C   UNK N   1      33.229  17.409   8.712  0.00  0.00     0.684 C 
HETATM   19  N   UNK N   1      34.135  17.260   9.603  0.00  0.00    -0.234 N 
HETATM   20  N   UNK N   1      33.556  17.989   7.465  0.00  0.00    -0.234 N 
HETATM   21  H   UNK N   1      35.057  17.550   9.419  0.00  0.00     0.174 HD
ATOM     22  HN  UNK N   1      33.901  16.842  10.503  1.00  0.00     0.174 HD
HETATM   23  H   UNK N   1      32.861  18.104   6.778  0.00  0.00     0.174 HD
HETATM   24  H   UNK N   1      34.480  18.278   7.284  0.00  0.00     0.174 HD
HETATM   25  H   UNK N   1      31.694  16.589   9.854  0.00  0.00     0.205 HD
ENDBRANCH   3  17
TORSDOF 3
ENDMDL
MODEL 5
REMARK VINA RESULT:      -4.9      3.646      7.300
REMARK  3 active torsions:
REMARK  status: ('A' for Active; 'I' for Inactive)
REMARK    1  A    between atoms: C_2  and  C_10 
REMARK    2  A    between atoms: N_3  and  N_5 
REMARK       I    between atoms: N_5  and  C_6 
REMARK       I    between atoms: C_6  and  N_9 
REMARK    3  A    between atoms: N_11  and  N_13 
REMARK       I    between atoms: N_13  and  C_14 
REMARK       I    between atoms: C_14  and  N_17 
ROOT
HETATM    1  C   UNK N   1      35.180  13.285  11.449  0.00  0.00     0.071 C 
HETATM    2  C   UNK N   1      36.052  14.386  11.985  0.00  0.00     0.039 C 
HETATM    3  N   UNK N   1      36.857  14.168  12.965  0.00  0.00    -0.290 N 
ATOM      4  HN  UNK N   1      37.441  14.926  13.316  1.00  0.00     0.187 HD
ENDROOT
BRANCH   2   5
HETATM    5  C   UNK N   1      35.980  15.723  11.378  0.00  0.00     0.133 C 
HETATM    6  N   UNK N   1      34.878  16.105  10.849  0.00  0.00    -0.296 N 
ATOM      7  HN  UNK N   1      34.076  15.475  10.859  1.00  0.00     0.186 HD
BRANCH   6   8
HETATM    8  N   UNK N   1      34.752  17.339  10.269  0.00  0.00    -0.133 N 
HETATM    9  C   UNK N   1      34.612  17.432   8.864  0.00  0.00     0.684 C 
HETATM   10  N   UNK N   1      34.492  18.578   8.307  0.00  0.00    -0.234 N 
HETATM   11  N   UNK N   1      34.603  16.260   8.072  0.00  0.00    -0.234 N 
HETATM   12  H   UNK N   1      34.395  18.641   7.329  0.00  0.00     0.174 HD
ATOM     13  HN  UNK N   1      34.498  19.425   8.875  1.00  0.00     0.174 HD
HETATM   14  H   UNK N   1      34.695  15.377   8.498  0.00  0.00     0.174 HD
HETATM   15  H   UNK N   1      34.506  16.327   7.095  0.00  0.00     0.174 HD
HETATM   16  H   UNK N   1      34.758  18.152  10.824  0.00  0.00     0.205 HD
ENDBRANCH   6   8
ENDBRANCH   2   5
BRANCH   3  17
HETATM   17  N   UNK N   1      36.938  12.925  13.544  0.00  0.00    -0.133 N 
HETATM   18  C   UNK N   1      36.748  12.749  14.934  0.00  0.00     0.684 C 
HETATM   19  N   UNK N   1      36.830  11.578  15.442  0.00  0.00    -0.234 N 
HETATM   20  N   UNK N   1      36.469  13.859  15.763  0.00  0.00    -0.234 N 
HETATM   21  H   UNK N   1      36.698  11.452  16.410  0.00  0.00     0.174 HD
ATOM     22  HN  UNK N   1      37.031  10.776  14.846  1.00  0.00     0.174 HD
HETATM   23  H   UNK N   1      36.406  14.761  15.374  0.00  0.00     0.174 HD
HETATM   24  H   UNK N   1      36.338  13.730  16.730  0.00  0.00     0.174 HD
HETATM   25  H   UNK N   1      37.132  12.141  12.980  0.00  0.00     0.205 HD
ENDBRANCH   3  17
TORSDOF 3
ENDMDL
MODEL 6
REMARK VINA RESULT:      -4.9      2.966      3.903
REMARK  3 active torsions:
REMARK  status: ('A' for Active; 'I' for Inactive)
REMARK    1  A    between atoms: C_2  and  C_10 
REMARK    2  A    between atoms: N_3  and  N_5 
REMARK       I    between atoms: N_5  and  C_6 
REMARK       I    between atoms: C_6  and  N_9 
REMARK    3  A    between atoms: N_11  and  N_13 
REMARK       I    between atoms: N_13  and  C_14 
REMARK       I    between atoms: C_14  and  N_17 
ROOT
HETATM    1  C   UNK N   1      32.106  17.846   8.170  0.00  0.00     0.071 C 
HETATM    2  C   UNK N   1      33.489  17.523   7.673  0.00  0.00     0.039 C 
HETATM    3  N   UNK N   1      33.740  17.482   6.412  0.00  0.00    -0.290 N 
ATOM      4  HN  UNK N   1      34.683  17.261   6.093  1.00  0.00     0.187 HD
ENDROOT
BRANCH   2   5
HETATM    5  C   UNK N   1      34.558  17.252   8.644  0.00  0.00     0.133 C 
HETATM    6  N   UNK N   1      34.253  17.103   9.879  0.00  0.00    -0.296 N 
ATOM      7  HN  UNK N   1      33.275  17.175  10.162  1.00  0.00     0.186 HD
BRANCH   6   8
HETATM    8  N   UNK N   1      35.205  16.848  10.828  0.00  0.00    -0.133 N 
HETATM    9  C   UNK N   1      35.210  15.595  11.486  0.00  0.00     0.684 C 
HETATM   10  N   UNK N   1      36.094  15.342  12.375  0.00  0.00    -0.234 N 
HETATM   11  N   UNK N   1      34.238  14.620  11.162  0.00  0.00    -0.234 N 
HETATM   12  H   UNK N   1      36.096  14.470  12.832  0.00  0.00     0.174 HD
ATOM     13  HN  UNK N   1      36.796  16.043  12.611  1.00  0.00     0.174 HD
HETATM   14  H   UNK N   1      33.557  14.812  10.478  0.00  0.00     0.174 HD
HETATM   15  H   UNK N   1      34.243  13.749  11.621  0.00  0.00     0.174 HD
HETATM   16  H   UNK N   1      35.880  17.530  11.050  0.00  0.00     0.205 HD
ENDBRANCH   6   8
ENDBRANCH   2   5
BRANCH   3  17
HETATM   17  N   UNK N   1      32.753  17.733   5.490  0.00  0.00    -0.133 N 
HETATM   18  C   UNK N   1      32.670  16.999   4.285  0.00  0.00     0.684 C 
HETATM   19  N   UNK N   1      31.738  17.257   3.448  0.00  0.00    -0.234 N 
HETATM   20  N   UNK N   1      33.610  15.982   4.002  0.00  0.00    -0.234 N 
HETATM   21  H   UNK N   1      31.677  16.747   2.608  0.00  0.00     0.174 HD
ATOM     22  HN  UNK N   1      31.059  17.990   3.651  1.00  0.00     0.174 HD
HETATM   23  H   UNK N   1      34.327  15.781   4.645  0.00  0.00     0.174 HD
HETATM   24  H   UNK N   1      33.546  15.474   3.161  0.00  0.00     0.174 HD
HETATM   25  H   UNK N   1      32.090  18.439   5.673  0.00  0.00     0.205 HD
ENDBRANCH   3  17
TORSDOF 3
ENDMDL
MODEL 7
REMARK VINA RESULT:      -4.9     17.957     19.043
REMARK  3 active torsions:
REMARK  status: ('A' for Active; 'I' for Inactive)
REMARK    1  A    between atoms: C_2  and  C_10 
REMARK    2  A    between atoms: N_3  and  N_5 
REMARK       I    between atoms: N_5  and  C_6 
REMARK       I    between atoms: C_6  and  N_9 
REMARK    3  A    between atoms: N_11  and  N_13 
REMARK       I    between atoms: N_13  and  C_14 
REMARK       I    between atoms: C_14  and  N_17 
ROOT
HETATM    1  C   UNK N   1      24.604  27.244  -5.697  0.00  0.00     0.071 C 
HETATM    2  C   UNK N   1      25.559  26.560  -4.758  0.00  0.00     0.039 C 
HETATM    3  N   UNK N   1      26.012  27.174  -3.721  0.00  0.00    -0.290 N 
ATOM      4  HN  UNK N   1      26.659  26.694  -3.095  1.00  0.00     0.187 HD
ENDROOT
BRANCH   2   5
HETATM    5  C   UNK N   1      25.974  25.176  -5.032  0.00  0.00     0.133 C 
HETATM    6  N   UNK N   1      25.228  24.439  -5.768  0.00  0.00    -0.296 N 
ATOM      7  HN  UNK N   1      24.365  24.828  -6.148  1.00  0.00     0.186 HD
BRANCH   6   8
HETATM    8  N   UNK N   1      25.563  23.144  -6.057  0.00  0.00    -0.133 N 
HETATM    9  C   UNK N   1      25.455  22.683  -7.391  0.00  0.00     0.684 C 
HETATM   10  N   UNK N   1      25.764  21.475  -7.678  0.00  0.00    -0.234 N 
HETATM   11  N   UNK N   1      25.005  23.555  -8.410  0.00  0.00    -0.234 N 
HETATM   12  H   UNK N   1      25.688  21.156  -8.606  0.00  0.00     0.174 HD
ATOM     13  HN  UNK N   1      26.089  20.844  -6.946  1.00  0.00     0.174 HD
HETATM   14  H   UNK N   1      24.767  24.485  -8.192  0.00  0.00     0.174 HD
HETATM   15  H   UNK N   1      24.931  23.232  -9.337  0.00  0.00     0.174 HD
HETATM   16  H   UNK N   1      25.876  22.541  -5.345  0.00  0.00     0.205 HD
ENDBRANCH   6   8
ENDBRANCH   2   5
BRANCH   3  17
HETATM   17  N   UNK N   1      25.636  28.466  -3.450  0.00  0.00    -0.133 N 
HETATM   18  C   UNK N   1      26.488  29.556  -3.741  0.00  0.00     0.684 C 
HETATM   19  N   UNK N   1      26.107  30.748  -3.475  0.00  0.00    -0.234 N 
HETATM   20  N   UNK N   1      27.756  29.334  -4.323  0.00  0.00    -0.234 N 
HETATM   21  H   UNK N   1      26.698  31.509  -3.677  0.00  0.00     0.174 HD
ATOM     22  HN  UNK N   1      25.192  30.909  -3.055  1.00  0.00     0.174 HD
HETATM   23  H   UNK N   1      28.051  28.418  -4.528  0.00  0.00     0.174 HD
HETATM   24  H   UNK N   1      28.345  30.097  -4.523  0.00  0.00     0.174 HD
HETATM   25  H   UNK N   1      24.754  28.637  -3.044  0.00  0.00     0.205 HD
ENDBRANCH   3  17
TORSDOF 3
ENDMDL
MODEL 8
REMARK VINA RESULT:      -4.9      2.049      3.373
REMARK  3 active torsions:
REMARK  status: ('A' for Active; 'I' for Inactive)
REMARK    1  A    between atoms: C_2  and  C_10 
REMARK    2  A    between atoms: N_3  and  N_5 
REMARK       I    between atoms: N_5  and  C_6 
REMARK       I    between atoms: C_6  and  N_9 
REMARK    3  A    between atoms: N_11  and  N_13 
REMARK       I    between atoms: N_13  and  C_14 
REMARK       I    between atoms: C_14  and  N_17 
ROOT
HETATM    1  C   UNK N   1      34.949  15.406   8.610  0.00  0.00     0.071 C 
HETATM    2  C   UNK N   1      34.719  16.497   9.619  0.00  0.00     0.039 C 
HETATM    3  N   UNK N   1      33.864  17.432   9.391  0.00  0.00    -0.290 N 
ATOM      4  HN  UNK N   1      33.721  18.164  10.086  1.00  0.00     0.187 HD
ENDROOT
BRANCH   2   5
HETATM    5  C   UNK N   1      35.481  16.490  10.876  0.00  0.00     0.133 C 
HETATM    6  N   UNK N   1      35.701  15.372  11.462  0.00  0.00    -0.296 N 
ATOM      7  HN  UNK N   1      35.343  14.513  11.045  1.00  0.00     0.186 HD
BRANCH   6   8
HETATM    8  N   UNK N   1      36.404  15.304  12.634  0.00  0.00    -0.133 N 
HETATM    9  C   UNK N   1      36.197  14.205  13.502  0.00  0.00     0.684 C 
HETATM   10  N   UNK N   1      36.846  14.126  14.601  0.00  0.00    -0.234 N 
HETATM   11  N   UNK N   1      35.272  13.192  13.157  0.00  0.00    -0.234 N 
HETATM   12  H   UNK N   1      36.701  13.361  15.204  0.00  0.00     0.174 HD
ATOM     13  HN  UNK N   1      37.514  14.855  14.853  1.00  0.00     0.174 HD
HETATM   14  H   UNK N   1      34.771  13.251  12.312  0.00  0.00     0.174 HD
HETATM   15  H   UNK N   1      35.129  12.429  13.762  0.00  0.00     0.174 HD
HETATM   16  H   UNK N   1      37.047  16.011  12.870  0.00  0.00     0.205 HD
ENDBRANCH   6   8
ENDBRANCH   2   5
BRANCH   3  17
HETATM   17  N   UNK N   1      33.143  17.455   8.223  0.00  0.00    -0.133 N 
HETATM   18  C   UNK N   1      31.753  17.200   8.212  0.00  0.00     0.684 C 
HETATM   19  N   UNK N   1      31.110  17.229   7.107  0.00  0.00    -0.234 N 
HETATM   20  N   UNK N   1      31.071  16.914   9.416  0.00  0.00    -0.234 N 
HETATM   21  H   UNK N   1      30.142  17.051   7.096  0.00  0.00     0.174 HD
ATOM     22  HN  UNK N   1      31.601  17.435   6.237  1.00  0.00     0.174 HD
HETATM   23  H   UNK N   1      31.563  16.891  10.268  0.00  0.00     0.174 HD
HETATM   24  H   UNK N   1      30.102  16.737   9.403  0.00  0.00     0.174 HD
HETATM   25  H   UNK N   1      33.604  17.652   7.374  0.00  0.00     0.205 HD
ENDBRANCH   3  17
TORSDOF 3
ENDMDL
MODEL 9
REMARK VINA RESULT:      -4.8      6.599      8.919
REMARK  3 active torsions:
REMARK  status: ('A' for Active; 'I' for Inactive)
REMARK    1  A    between atoms: C_2  and  C_10 
REMARK    2  A    between atoms: N_3  and  N_5 
REMARK       I    between atoms: N_5  and  C_6 
REMARK       I    between atoms: C_6  and  N_9 
REMARK    3  A    between atoms: N_11  and  N_13 
REMARK       I    between atoms: N_13  and  C_14 
REMARK       I    between atoms: C_14  and  N_17 
ROOT
HETATM    1  C   UNK N   1      36.593  11.675  15.515  0.00  0.00     0.071 C 
HETATM    2  C   UNK N   1      35.689  12.867  15.360  0.00  0.00     0.039 C 
HETATM    3  N   UNK N   1      35.014  13.313  16.361  0.00  0.00    -0.290 N 
ATOM      4  HN  UNK N   1      34.406  14.122  16.237  1.00  0.00     0.187 HD
ENDROOT
BRANCH   2   5
HETATM    5  C   UNK N   1      35.581  13.524  14.050  0.00  0.00     0.133 C 
HETATM    6  N   UNK N   1      36.640  13.991  13.501  0.00  0.00    -0.296 N 
ATOM      7  HN  UNK N   1      37.534  13.898  13.984  1.00  0.00     0.186 HD
BRANCH   6   8
HETATM    8  N   UNK N   1      36.601  14.613  12.282  0.00  0.00    -0.133 N 
HETATM    9  C   UNK N   1      37.367  14.090  11.214  0.00  0.00     0.684 C 
HETATM   10  N   UNK N   1      37.341  14.660  10.068  0.00  0.00    -0.234 N 
HETATM   11  N   UNK N   1      38.163  12.937  11.408  0.00  0.00    -0.234 N 
HETATM   12  H   UNK N   1      37.875  14.294   9.326  0.00  0.00     0.174 HD
ATOM     13  HN  UNK N   1      36.768  15.491   9.924  1.00  0.00     0.174 HD
HETATM   14  H   UNK N   1      38.185  12.497  12.289  0.00  0.00     0.174 HD
HETATM   15  H   UNK N   1      38.696  12.575  10.664  0.00  0.00     0.174 HD
HETATM   16  H   UNK N   1      36.045  15.415  12.151  0.00  0.00     0.205 HD
ENDBRANCH   6   8
ENDBRANCH   2   5
BRANCH   3  17
HETATM   17  N   UNK N   1      35.102  12.712  17.592  0.00  0.00    -0.133 N 
HETATM   18  C   UNK N   1      35.228  13.476  18.775  0.00  0.00     0.684 C 
HETATM   19  N   UNK N   1      35.308  12.885  19.906  0.00  0.00    -0.234 N 
HETATM   20  N   UNK N   1      35.264  14.887  18.713  0.00  0.00    -0.234 N 
HETATM   21  H   UNK N   1      35.395  13.414  20.732  0.00  0.00     0.174 HD
ATOM     22  HN  UNK N   1      35.282  11.867  19.953  1.00  0.00     0.174 HD
HETATM   23  H   UNK N   1      35.202  15.344  17.843  0.00  0.00     0.174 HD
HETATM   24  H   UNK N   1      35.351  15.414  19.540  0.00  0.00     0.174 HD
HETATM   25  H   UNK N   1      35.078  11.729  17.652  0.00  0.00     0.205 HD
ENDBRANCH   3  17
TORSDOF 3
ENDMDL
