MODEL 1
REMARK VINA RESULT:      -6.9      0.000      0.000
REMARK  9 active torsions:
REMARK  status: ('A' for Active; 'I' for Inactive)
REMARK       I    between atoms: C_3  and  N_11 
REMARK    1  A    between atoms: C_6  and  C_9 
REMARK    2  A    between atoms: C_9  and  O_10 
REMARK    3  A    between atoms: N_11  and  C_12 
REMARK    4  A    between atoms: C_12  and  C_13 
REMARK    5  A    between atoms: C_13  and  C_14 
REMARK    6  A    between atoms: C_14  and  O_15 
REMARK    7  A    between atoms: O_15  and  C_16 
REMARK    8  A    between atoms: C_20  and  C_22 
REMARK    9  A    between atoms: C_22  and  N_23 
ROOT
HETATM    1  C   UNK N   1      34.120  10.480  13.405  0.00  0.00     0.047 C 
ENDROOT
BRANCH   1   2
HETATM    2  C   UNK N   1      35.099  11.440  12.773  0.00  0.00     0.140 C 
BRANCH   2   3
HETATM    3  N   UNK N   1      34.479  12.722  12.558  0.00  0.00    -0.225 N 
HETATM    4  C   UNK N   1      35.058  13.731  11.742  0.00  0.00     0.696 A 
HETATM    5  N   UNK N   1      36.328  13.753  11.288  0.00  0.00    -0.127 N 
HETATM    6  N   UNK N   1      34.357  14.778  11.271  0.00  0.00    -0.176 N 
HETATM    7  C   UNK N   1      37.409  12.821  11.557  0.00  0.00     0.197 C 
HETATM    8  N   UNK N   1      36.457  14.812  10.506  0.00  0.00    -0.271 N 
HETATM    9  C   UNK N   1      35.256  15.426  10.499  0.00  0.00     0.136 A 
ATOM     10  HN  UNK N   1      37.298  15.106  10.009  1.00  0.00     0.189 HD
ATOM     11  HN  UNK N   1      33.383  15.021  11.452  1.00  0.00     0.185 HD
HETATM   12  H   UNK N   1      33.616  12.907  12.993  0.00  0.00     0.177 HD
BRANCH   9  13
HETATM   13  C   UNK N   1      34.928  16.643   9.698  0.00  0.00     0.242 C 
BRANCH  13  14
HETATM   14  O   UNK N   1      35.595  17.761  10.203  0.00  0.00    -0.393 OA
HETATM   15  H   UNK N   1      35.885  18.465   9.602  0.00  0.00     0.209 HD
ENDBRANCH  13  14
ENDBRANCH   9  13
ENDBRANCH   2   3
ENDBRANCH   1   2
BRANCH   1  16
HETATM   16  C   UNK N   1      34.024  10.819  14.870  0.00  0.00     0.177 C 
BRANCH  16  17
HETATM   17  O   UNK N   1      35.153  11.474  15.309  0.00  0.00    -0.351 OA
BRANCH  17  18
HETATM   18  C   UNK N   1      35.256  11.879  16.594  0.00  0.00     0.069 A 
HETATM   19  C   UNK N   1      35.221  13.243  16.938  0.00  0.00     0.037 A 
HETATM   20  C   UNK N   1      35.230  13.626  18.284  0.00  0.00     0.003 A 
HETATM   21  C   UNK N   1      35.226  12.651  19.288  0.00  0.00     0.009 A 
HETATM   22  C   UNK N   1      35.269  11.293  18.946  0.00  0.00    -0.028 A 
HETATM   23  C   UNK N   1      35.297  10.915  17.602  0.00  0.00     0.045 A 
BRANCH  22  24
HETATM   24  C   UNK N   1      35.100  10.226  19.977  0.00  0.00     0.311 C 
BRANCH  24  25
HETATM   25  N   UNK N   1      33.723  10.026  20.396  0.00  0.00     0.092 N 
HETATM   26  C   UNK N   1      33.359   8.672  19.963  0.00  0.00     0.272 C 
HETATM   27  C   UNK N   1      31.987   8.274  20.501  0.00  0.00     0.030 C 
HETATM   28  C   UNK N   1      32.012   8.323  22.022  0.00  0.00     0.003 C 
HETATM   29  C   UNK N   1      32.430   9.715  22.477  0.00  0.00     0.030 C 
HETATM   30  C   UNK N   1      33.781  10.059  21.860  0.00  0.00     0.272 C 
ENDBRANCH  24  25
ENDBRANCH  22  24
ENDBRANCH  17  18
ENDBRANCH  16  17
ENDBRANCH   1  16
TORSDOF 9
ENDMDL
MODEL 2
REMARK VINA RESULT:      -6.8      1.688      2.067
REMARK  9 active torsions:
REMARK  status: ('A' for Active; 'I' for Inactive)
REMARK       I    between atoms: C_3  and  N_11 
REMARK    1  A    between atoms: C_6  and  C_9 
REMARK    2  A    between atoms: C_9  and  O_10 
REMARK    3  A    between atoms: N_11  and  C_12 
REMARK    4  A    between atoms: C_12  and  C_13 
REMARK    5  A    between atoms: C_13  and  C_14 
REMARK    6  A    between atoms: C_14  and  O_15 
REMARK    7  A    between atoms: O_15  and  C_16 
REMARK    8  A    between atoms: C_20  and  C_22 
REMARK    9  A    between atoms: C_22  and  N_23 
ROOT
HETATM    1  C   UNK N   1      36.442  14.207  14.029  0.00  0.00     0.047 C 
ENDROOT
BRANCH   1   2
HETATM    2  C   UNK N   1      35.982  14.247  12.591  0.00  0.00     0.140 C 
BRANCH   2   3
HETATM    3  N   UNK N   1      36.002  15.597  12.093  0.00  0.00    -0.225 N 
HETATM    4  C   UNK N   1      35.575  15.942  10.782  0.00  0.00     0.696 A 
HETATM    5  N   UNK N   1      35.353  15.081   9.767  0.00  0.00    -0.127 N 
HETATM    6  N   UNK N   1      35.278  17.204  10.422  0.00  0.00    -0.176 N 
HETATM    7  C   UNK N   1      35.548  13.643   9.733  0.00  0.00     0.197 C 
HETATM    8  N   UNK N   1      34.898  15.780   8.741  0.00  0.00    -0.271 N 
HETATM    9  C   UNK N   1      34.853  17.066   9.147  0.00  0.00     0.136 A 
ATOM     10  HN  UNK N   1      34.635  15.418   7.824  1.00  0.00     0.189 HD
ATOM     11  HN  UNK N   1      35.355  18.056  10.977  1.00  0.00     0.185 HD
HETATM   12  H   UNK N   1      36.325  16.314  12.686  0.00  0.00     0.177 HD
BRANCH   9  13
HETATM   13  C   UNK N   1      34.346  18.201   8.320  0.00  0.00     0.242 C 
BRANCH  13  14
HETATM   14  O   UNK N   1      34.557  17.957   6.962  0.00  0.00    -0.393 OA
HETATM   15  H   UNK N   1      33.986  17.333   6.488  0.00  0.00     0.209 HD
ENDBRANCH  13  14
ENDBRANCH   9  13
ENDBRANCH   2   3
ENDBRANCH   1   2
BRANCH   1  16
HETATM   16  C   UNK N   1      36.279  12.794  14.525  0.00  0.00     0.177 C 
BRANCH  16  17
HETATM   17  O   UNK N   1      35.153  12.662  15.307  0.00  0.00    -0.351 OA
BRANCH  17  18
HETATM   18  C   UNK N   1      35.257  12.565  16.650  0.00  0.00     0.069 A 
HETATM   19  C   UNK N   1      35.228  13.706  17.472  0.00  0.00     0.037 A 
HETATM   20  C   UNK N   1      35.237  13.567  18.865  0.00  0.00     0.003 A 
HETATM   21  C   UNK N   1      35.227  12.291  19.439  0.00  0.00     0.009 A 
HETATM   22  C   UNK N   1      35.264  11.154  18.620  0.00  0.00    -0.028 A 
HETATM   23  C   UNK N   1      35.292  11.298  17.232  0.00  0.00     0.045 A 
BRANCH  22  24
HETATM   24  C   UNK N   1      35.090   9.783  19.186  0.00  0.00     0.311 C 
BRANCH  24  25
HETATM   25  N   UNK N   1      33.934   9.649  20.057  0.00  0.00     0.092 N 
HETATM   26  C   UNK N   1      33.039   8.690  19.398  0.00  0.00     0.272 C 
HETATM   27  C   UNK N   1      31.862   8.329  20.302  0.00  0.00     0.030 C 
HETATM   28  C   UNK N   1      32.391   7.716  21.591  0.00  0.00     0.003 C 
HETATM   29  C   UNK N   1      33.352   8.691  22.257  0.00  0.00     0.030 C 
HETATM   30  C   UNK N   1      34.468   9.042  21.278  0.00  0.00     0.272 C 
ENDBRANCH  24  25
ENDBRANCH  22  24
ENDBRANCH  17  18
ENDBRANCH  16  17
ENDBRANCH   1  16
TORSDOF 9
ENDMDL
MODEL 3
REMARK VINA RESULT:      -6.8     14.900     18.171
REMARK  9 active torsions:
REMARK  status: ('A' for Active; 'I' for Inactive)
REMARK       I    between atoms: C_3  and  N_11 
REMARK    1  A    between atoms: C_6  and  C_9 
REMARK    2  A    between atoms: C_9  and  O_10 
REMARK    3  A    between atoms: N_11  and  C_12 
REMARK    4  A    between atoms: C_12  and  C_13 
REMARK    5  A    between atoms: C_13  and  C_14 
REMARK    6  A    between atoms: C_14  and  O_15 
REMARK    7  A    between atoms: O_15  and  C_16 
REMARK    8  A    between atoms: C_20  and  C_22 
REMARK    9  A    between atoms: C_22  and  N_23 
ROOT
HETATM    1  C   UNK N   1      21.893  16.177   6.601  0.00  0.00     0.047 C 
ENDROOT
BRANCH   1   2
HETATM    2  C   UNK N   1      20.985  16.660   5.495  0.00  0.00     0.140 C 
BRANCH   2   3
HETATM    3  N   UNK N   1      21.453  17.917   4.973  0.00  0.00    -0.225 N 
HETATM    4  C   UNK N   1      21.105  18.392   3.679  0.00  0.00     0.696 A 
HETATM    5  N   UNK N   1      20.540  17.667   2.692  0.00  0.00    -0.127 N 
HETATM    6  N   UNK N   1      21.252  19.678   3.313  0.00  0.00    -0.176 N 
HETATM    7  C   UNK N   1      20.213  16.252   2.673  0.00  0.00     0.197 C 
HETATM    8  N   UNK N   1      20.305  18.482   1.678  0.00  0.00    -0.271 N 
HETATM    9  C   UNK N   1      20.738  19.701   2.064  0.00  0.00     0.136 A 
ATOM     10  HN  UNK N   1      19.883  18.238   0.783  1.00  0.00     0.189 HD
ATOM     11  HN  UNK N   1      21.654  20.448   3.848  1.00  0.00     0.185 HD
HETATM   12  H   UNK N   1      22.039  18.473   5.536  0.00  0.00     0.177 HD
BRANCH   9  13
HETATM   13  C   UNK N   1      20.619  20.943   1.244  0.00  0.00     0.242 C 
BRANCH  13  14
HETATM   14  O   UNK N   1      20.591  20.637  -0.117  0.00  0.00    -0.393 OA
HETATM   15  H   UNK N   1      19.742  20.560  -0.580  0.00  0.00     0.209 HD
ENDBRANCH  13  14
ENDBRANCH   9  13
ENDBRANCH   2   3
ENDBRANCH   1   2
BRANCH   1  16
HETATM   16  C   UNK N   1      23.052  15.455   5.964  0.00  0.00     0.177 C 
BRANCH  16  17
HETATM   17  O   UNK N   1      22.995  15.527   4.590  0.00  0.00    -0.351 OA
BRANCH  17  18
HETATM   18  C   UNK N   1      24.127  15.523   3.854  0.00  0.00     0.069 A 
HETATM   19  C   UNK N   1      24.191  14.873   2.608  0.00  0.00     0.037 A 
HETATM   20  C   UNK N   1      25.346  14.971   1.825  0.00  0.00     0.003 A 
HETATM   21  C   UNK N   1      26.420  15.754   2.260  0.00  0.00     0.009 A 
HETATM   22  C   UNK N   1      26.362  16.395   3.505  0.00  0.00    -0.028 A 
HETATM   23  C   UNK N   1      25.222  16.265   4.300  0.00  0.00     0.045 A 
BRANCH  22  24
HETATM   24  C   UNK N   1      27.413  17.367   3.929  0.00  0.00     0.311 C 
BRANCH  24  25
HETATM   25  N   UNK N   1      26.943  18.367   4.872  0.00  0.00     0.092 N 
HETATM   26  C   UNK N   1      28.020  18.537   5.855  0.00  0.00     0.272 C 
HETATM   27  C   UNK N   1      27.718  19.694   6.805  0.00  0.00     0.030 C 
HETATM   28  C   UNK N   1      27.570  20.977   5.999  0.00  0.00     0.003 C 
HETATM   29  C   UNK N   1      26.483  20.792   4.950  0.00  0.00     0.030 C 
HETATM   30  C   UNK N   1      26.828  19.591   4.075  0.00  0.00     0.272 C 
ENDBRANCH  24  25
ENDBRANCH  22  24
ENDBRANCH  17  18
ENDBRANCH  16  17
ENDBRANCH   1  16
TORSDOF 9
ENDMDL
MODEL 4
REMARK VINA RESULT:      -6.8      5.630     12.752
REMARK  9 active torsions:
REMARK  status: ('A' for Active; 'I' for Inactive)
REMARK       I    between atoms: C_3  and  N_11 
REMARK    1  A    between atoms: C_6  and  C_9 
REMARK    2  A    between atoms: C_9  and  O_10 
REMARK    3  A    between atoms: N_11  and  C_12 
REMARK    4  A    between atoms: C_12  and  C_13 
REMARK    5  A    between atoms: C_13  and  C_14 
REMARK    6  A    between atoms: C_14  and  O_15 
REMARK    7  A    between atoms: O_15  and  C_16 
REMARK    8  A    between atoms: C_20  and  C_22 
REMARK    9  A    between atoms: C_22  and  N_23 
ROOT
HETATM    1  C   UNK N   1      34.530  16.606   9.862  0.00  0.00     0.047 C 
ENDROOT
BRANCH   1   2
HETATM    2  C   UNK N   1      34.328  15.115   9.726  0.00  0.00     0.140 C 
BRANCH   2   3
HETATM    3  N   UNK N   1      34.159  14.511  11.022  0.00  0.00    -0.225 N 
HETATM    4  C   UNK N   1      35.253  14.061  11.811  0.00  0.00     0.696 A 
HETATM    5  N   UNK N   1      36.521  13.890  11.386  0.00  0.00    -0.127 N 
HETATM    6  N   UNK N   1      35.144  13.808  13.128  0.00  0.00    -0.176 N 
HETATM    7  C   UNK N   1      37.065  14.052  10.049  0.00  0.00     0.197 C 
HETATM    8  N   UNK N   1      37.250  13.534  12.430  0.00  0.00    -0.271 N 
HETATM    9  C   UNK N   1      36.408  13.490  13.484  0.00  0.00     0.136 A 
ATOM     10  HN  UNK N   1      38.250  13.333  12.438  1.00  0.00     0.189 HD
ATOM     11  HN  UNK N   1      34.310  13.848  13.714  1.00  0.00     0.185 HD
HETATM   12  H   UNK N   1      33.248  14.406  11.378  0.00  0.00     0.177 HD
BRANCH   9  13
HETATM   13  C   UNK N   1      36.816  13.182  14.887  0.00  0.00     0.242 C 
BRANCH  13  14
HETATM   14  O   UNK N   1      37.606  14.208  15.408  0.00  0.00    -0.393 OA
HETATM   15  H   UNK N   1      38.523  14.313  15.112  0.00  0.00     0.209 HD
ENDBRANCH  13  14
ENDBRANCH   9  13
ENDBRANCH   2   3
ENDBRANCH   1   2
BRANCH   1  16
HETATM   16  C   UNK N   1      34.179  17.239   8.540  0.00  0.00     0.177 C 
BRANCH  16  17
HETATM   17  O   UNK N   1      33.193  16.531   7.889  0.00  0.00    -0.351 OA
BRANCH  17  18
HETATM   18  C   UNK N   1      32.687  16.976   6.719  0.00  0.00     0.069 A 
HETATM   19  C   UNK N   1      33.509  17.190   5.597  0.00  0.00     0.037 A 
HETATM   20  C   UNK N   1      32.942  17.555   4.371  0.00  0.00     0.003 A 
HETATM   21  C   UNK N   1      31.552  17.661   4.250  0.00  0.00     0.009 A 
HETATM   22  C   UNK N   1      30.733  17.456   5.368  0.00  0.00    -0.028 A 
HETATM   23  C   UNK N   1      31.306  17.128   6.598  0.00  0.00     0.045 A 
BRANCH  22  24
HETATM   24  C   UNK N   1      29.246  17.399   5.242  0.00  0.00     0.311 C 
BRANCH  24  25
HETATM   25  N   UNK N   1      28.631  18.683   4.950  0.00  0.00     0.092 N 
HETATM   26  C   UNK N   1      27.534  18.405   4.015  0.00  0.00     0.272 C 
HETATM   27  C   UNK N   1      26.695  19.656   3.767  0.00  0.00     0.030 C 
HETATM   28  C   UNK N   1      26.115  20.141   5.088  0.00  0.00     0.003 C 
HETATM   29  C   UNK N   1      27.247  20.392   6.075  0.00  0.00     0.030 C 
HETATM   30  C   UNK N   1      28.067  19.115   6.231  0.00  0.00     0.272 C 
ENDBRANCH  24  25
ENDBRANCH  22  24
ENDBRANCH  17  18
ENDBRANCH  16  17
ENDBRANCH   1  16
TORSDOF 9
ENDMDL
MODEL 5
REMARK VINA RESULT:      -6.6      6.324     12.930
REMARK  9 active torsions:
REMARK  status: ('A' for Active; 'I' for Inactive)
REMARK       I    between atoms: C_3  and  N_11 
REMARK    1  A    between atoms: C_6  and  C_9 
REMARK    2  A    between atoms: C_9  and  O_10 
REMARK    3  A    between atoms: N_11  and  C_12 
REMARK    4  A    between atoms: C_12  and  C_13 
REMARK    5  A    between atoms: C_13  and  C_14 
REMARK    6  A    between atoms: C_14  and  O_15 
REMARK    7  A    between atoms: O_15  and  C_16 
REMARK    8  A    between atoms: C_20  and  C_22 
REMARK    9  A    between atoms: C_22  and  N_23 
ROOT
HETATM    1  C   UNK N   1      33.539  18.066   7.491  0.00  0.00     0.047 C 
ENDROOT
BRANCH   1   2
HETATM    2  C   UNK N   1      34.753  17.458   8.152  0.00  0.00     0.140 C 
BRANCH   2   3
HETATM    3  N   UNK N   1      34.513  17.259   9.557  0.00  0.00    -0.225 N 
HETATM    4  C   UNK N   1      35.015  16.140  10.274  0.00  0.00     0.696 A 
HETATM    5  N   UNK N   1      35.532  15.017   9.732  0.00  0.00    -0.127 N 
HETATM    6  N   UNK N   1      35.086  16.107  11.617  0.00  0.00    -0.176 N 
HETATM    7  C   UNK N   1      35.645  14.648   8.332  0.00  0.00     0.197 C 
HETATM    8  N   UNK N   1      35.953  14.250  10.724  0.00  0.00    -0.271 N 
HETATM    9  C   UNK N   1      35.681  14.920  11.863  0.00  0.00     0.136 A 
ATOM     10  HN  UNK N   1      36.394  13.334  10.643  1.00  0.00     0.189 HD
ATOM     11  HN  UNK N   1      34.768  16.809  12.285  1.00  0.00     0.185 HD
HETATM   12  H   UNK N   1      33.980  17.929  10.044  0.00  0.00     0.177 HD
BRANCH   9  13
HETATM   13  C   UNK N   1      36.039  14.446  13.234  0.00  0.00     0.242 C 
BRANCH  13  14
HETATM   14  O   UNK N   1      35.020  13.651  13.763  0.00  0.00    -0.393 OA
HETATM   15  H   UNK N   1      34.134  14.023  13.896  0.00  0.00     0.209 HD
ENDBRANCH  13  14
ENDBRANCH   9  13
ENDBRANCH   2   3
ENDBRANCH   1   2
BRANCH   1  16
HETATM   16  C   UNK N   1      32.479  18.242   8.547  0.00  0.00     0.177 C 
BRANCH  16  17
HETATM   17  O   UNK N   1      31.726  17.100   8.699  0.00  0.00    -0.351 OA
BRANCH  17  18
HETATM   18  C   UNK N   1      30.395  17.120   8.472  0.00  0.00     0.069 A 
HETATM   19  C   UNK N   1      29.474  17.301   9.520  0.00  0.00     0.037 A 
HETATM   20  C   UNK N   1      28.108  17.417   9.240  0.00  0.00     0.003 A 
HETATM   21  C   UNK N   1      27.663  17.400   7.914  0.00  0.00     0.009 A 
HETATM   22  C   UNK N   1      28.578  17.211   6.870  0.00  0.00    -0.028 A 
HETATM   23  C   UNK N   1      29.936  17.059   7.156  0.00  0.00     0.045 A 
BRANCH  22  24
HETATM   24  C   UNK N   1      28.167  17.350   5.441  0.00  0.00     0.311 C 
BRANCH  24  25
HETATM   25  N   UNK N   1      27.122  18.338   5.224  0.00  0.00     0.092 N 
HETATM   26  C   UNK N   1      27.810  19.587   4.879  0.00  0.00     0.272 C 
HETATM   27  C   UNK N   1      26.814  20.663   4.454  0.00  0.00     0.030 C 
HETATM   28  C   UNK N   1      26.033  20.172   3.243  0.00  0.00     0.003 C 
HETATM   29  C   UNK N   1      25.351  18.854   3.583  0.00  0.00     0.030 C 
HETATM   30  C   UNK N   1      26.402  17.850   4.045  0.00  0.00     0.272 C 
ENDBRANCH  24  25
ENDBRANCH  22  24
ENDBRANCH  17  18
ENDBRANCH  16  17
ENDBRANCH   1  16
TORSDOF 9
ENDMDL
MODEL 6
REMARK VINA RESULT:      -6.4      6.335     12.767
REMARK  9 active torsions:
REMARK  status: ('A' for Active; 'I' for Inactive)
REMARK       I    between atoms: C_3  and  N_11 
REMARK    1  A    between atoms: C_6  and  C_9 
REMARK    2  A    between atoms: C_9  and  O_10 
REMARK    3  A    between atoms: N_11  and  C_12 
REMARK    4  A    between atoms: C_12  and  C_13 
REMARK    5  A    between atoms: C_13  and  C_14 
REMARK    6  A    between atoms: C_14  and  O_15 
REMARK    7  A    between atoms: O_15  and  C_16 
REMARK    8  A    between atoms: C_20  and  C_22 
REMARK    9  A    between atoms: C_22  and  N_23 
ROOT
HETATM    1  C   UNK N   1      32.765  14.585   8.611  0.00  0.00     0.047 C 
ENDROOT
BRANCH   1   2
HETATM    2  C   UNK N   1      34.125  14.111   9.062  0.00  0.00     0.140 C 
BRANCH   2   3
HETATM    3  N   UNK N   1      34.032  13.461  10.344  0.00  0.00    -0.225 N 
HETATM    4  C   UNK N   1      35.015  13.614  11.358  0.00  0.00     0.696 A 
HETATM    5  N   UNK N   1      36.248  14.137  11.198  0.00  0.00    -0.127 N 
HETATM    6  N   UNK N   1      34.787  13.295  12.646  0.00  0.00    -0.176 N 
HETATM    7  C   UNK N   1      36.889  14.604   9.981  0.00  0.00     0.197 C 
HETATM    8  N   UNK N   1      36.827  14.173  12.386  0.00  0.00    -0.271 N 
HETATM    9  C   UNK N   1      35.933  13.663  13.259  0.00  0.00     0.136 A 
ATOM     10  HN  UNK N   1      37.763  14.517  12.600  1.00  0.00     0.189 HD
ATOM     11  HN  UNK N   1      33.952  12.878  13.057  1.00  0.00     0.185 HD
HETATM   12  H   UNK N   1      33.253  12.887  10.525  0.00  0.00     0.177 HD
BRANCH   9  13
HETATM   13  C   UNK N   1      36.148  13.561  14.733  0.00  0.00     0.242 C 
BRANCH  13  14
HETATM   14  O   UNK N   1      37.252  14.320  15.126  0.00  0.00    -0.393 OA
HETATM   15  H   UNK N   1      37.255  15.280  14.988  0.00  0.00     0.209 HD
ENDBRANCH  13  14
ENDBRANCH   9  13
ENDBRANCH   2   3
ENDBRANCH   1   2
BRANCH   1  16
HETATM   16  C   UNK N   1      32.638  16.040   8.983  0.00  0.00     0.177 C 
BRANCH  16  17
HETATM   17  O   UNK N   1      32.143  16.785   7.936  0.00  0.00    -0.351 OA
BRANCH  17  18
HETATM   18  C   UNK N   1      30.879  17.260   7.969  0.00  0.00     0.069 A 
HETATM   19  C   UNK N   1      30.431  18.084   9.018  0.00  0.00     0.037 A 
HETATM   20  C   UNK N   1      29.149  18.641   8.973  0.00  0.00     0.003 A 
HETATM   21  C   UNK N   1      28.329  18.417   7.861  0.00  0.00     0.009 A 
HETATM   22  C   UNK N   1      28.770  17.590   6.820  0.00  0.00    -0.028 A 
HETATM   23  C   UNK N   1      30.037  17.006   6.886  0.00  0.00     0.045 A 
BRANCH  22  24
HETATM   24  C   UNK N   1      27.996  17.459   5.550  0.00  0.00     0.311 C 
BRANCH  24  25
HETATM   25  N   UNK N   1      27.054  18.542   5.322  0.00  0.00     0.092 N 
HETATM   26  C   UNK N   1      27.603  19.332   4.214  0.00  0.00     0.272 C 
HETATM   27  C   UNK N   1      26.613  20.403   3.761  0.00  0.00     0.030 C 
HETATM   28  C   UNK N   1      25.324  19.733   3.306  0.00  0.00     0.003 C 
HETATM   29  C   UNK N   1      24.772  18.878   4.439  0.00  0.00     0.030 C 
HETATM   30  C   UNK N   1      25.833  17.870   4.869  0.00  0.00     0.272 C 
ENDBRANCH  24  25
ENDBRANCH  22  24
ENDBRANCH  17  18
ENDBRANCH  16  17
ENDBRANCH   1  16
TORSDOF 9
ENDMDL
MODEL 7
REMARK VINA RESULT:      -6.3      1.731      2.150
REMARK  9 active torsions:
REMARK  status: ('A' for Active; 'I' for Inactive)
REMARK       I    between atoms: C_3  and  N_11 
REMARK    1  A    between atoms: C_6  and  C_9 
REMARK    2  A    between atoms: C_9  and  O_10 
REMARK    3  A    between atoms: N_11  and  C_12 
REMARK    4  A    between atoms: C_12  and  C_13 
REMARK    5  A    between atoms: C_13  and  C_14 
REMARK    6  A    between atoms: C_14  and  O_15 
REMARK    7  A    between atoms: O_15  and  C_16 
REMARK    8  A    between atoms: C_20  and  C_22 
REMARK    9  A    between atoms: C_22  and  N_23 
ROOT
HETATM    1  C   UNK N   1      33.526  10.719  14.489  0.00  0.00     0.047 C 
ENDROOT
BRANCH   1   2
HETATM    2  C   UNK N   1      34.153  10.523  13.130  0.00  0.00     0.140 C 
BRANCH   2   3
HETATM    3  N   UNK N   1      34.474  11.794  12.535  0.00  0.00    -0.225 N 
HETATM    4  C   UNK N   1      35.753  12.090  11.992  0.00  0.00     0.696 A 
HETATM    5  N   UNK N   1      36.881  11.373  12.179  0.00  0.00    -0.127 N 
HETATM    6  N   UNK N   1      35.968  13.122  11.155  0.00  0.00    -0.176 N 
HETATM    7  C   UNK N   1      37.086  10.195  13.003  0.00  0.00     0.197 C 
HETATM    8  N   UNK N   1      37.836  11.930  11.453  0.00  0.00    -0.271 N 
HETATM    9  C   UNK N   1      37.273  12.988  10.833  0.00  0.00     0.136 A 
ATOM     10  HN  UNK N   1      38.805  11.621  11.378  1.00  0.00     0.189 HD
ATOM     11  HN  UNK N   1      35.305  13.831  10.841  1.00  0.00     0.185 HD
HETATM   12  H   UNK N   1      33.776  12.488  12.501  0.00  0.00     0.177 HD
BRANCH   9  13
HETATM   13  C   UNK N   1      37.978  13.879   9.864  0.00  0.00     0.242 C 
BRANCH  13  14
HETATM   14  O   UNK N   1      37.897  15.212  10.269  0.00  0.00    -0.393 OA
HETATM   15  H   UNK N   1      37.088  15.721  10.104  0.00  0.00     0.209 HD
ENDBRANCH  13  14
ENDBRANCH   9  13
ENDBRANCH   2   3
ENDBRANCH   1   2
BRANCH   1  16
HETATM   16  C   UNK N   1      34.171  11.924  15.123  0.00  0.00     0.177 C 
BRANCH  16  17
HETATM   17  O   UNK N   1      35.303  11.578  15.826  0.00  0.00    -0.351 OA
BRANCH  17  18
HETATM   18  C   UNK N   1      35.299  11.578  17.177  0.00  0.00     0.069 A 
HETATM   19  C   UNK N   1      35.344  12.778  17.911  0.00  0.00     0.037 A 
HETATM   20  C   UNK N   1      35.239  12.750  19.306  0.00  0.00     0.003 A 
HETATM   21  C   UNK N   1      35.041  11.533  19.967  0.00  0.00     0.009 A 
HETATM   22  C   UNK N   1      35.004  10.337  19.238  0.00  0.00    -0.028 A 
HETATM   23  C   UNK N   1      35.147  10.365  17.850  0.00  0.00     0.045 A 
BRANCH  22  24
HETATM   24  C   UNK N   1      34.633   9.044  19.886  0.00  0.00     0.311 C 
BRANCH  24  25
HETATM   25  N   UNK N   1      33.360   8.506  19.437  0.00  0.00     0.092 N 
HETATM   26  C   UNK N   1      33.480   7.046  19.529  0.00  0.00     0.272 C 
HETATM   27  C   UNK N   1      32.142   6.366  19.250  0.00  0.00     0.030 C 
HETATM   28  C   UNK N   1      31.115   6.849  20.265  0.00  0.00     0.003 C 
HETATM   29  C   UNK N   1      31.016   8.366  20.201  0.00  0.00     0.030 C 
HETATM   30  C   UNK N   1      32.397   8.969  20.439  0.00  0.00     0.272 C 
ENDBRANCH  24  25
ENDBRANCH  22  24
ENDBRANCH  17  18
ENDBRANCH  16  17
ENDBRANCH   1  16
TORSDOF 9
ENDMDL
MODEL 8
REMARK VINA RESULT:      -6.3     15.786     19.207
REMARK  9 active torsions:
REMARK  status: ('A' for Active; 'I' for Inactive)
REMARK       I    between atoms: C_3  and  N_11 
REMARK    1  A    between atoms: C_6  and  C_9 
REMARK    2  A    between atoms: C_9  and  O_10 
REMARK    3  A    between atoms: N_11  and  C_12 
REMARK    4  A    between atoms: C_12  and  C_13 
REMARK    5  A    between atoms: C_13  and  C_14 
REMARK    6  A    between atoms: C_14  and  O_15 
REMARK    7  A    between atoms: O_15  and  C_16 
REMARK    8  A    between atoms: C_20  and  C_22 
REMARK    9  A    between atoms: C_22  and  N_23 
ROOT
HETATM    1  C   UNK N   1      19.707  14.690   3.669  0.00  0.00     0.047 C 
ENDROOT
BRANCH   1   2
HETATM    2  C   UNK N   1      19.703  16.068   4.286  0.00  0.00     0.140 C 
BRANCH   2   3
HETATM    3  N   UNK N   1      19.207  17.039   3.346  0.00  0.00    -0.225 N 
HETATM    4  C   UNK N   1      19.850  18.285   3.112  0.00  0.00     0.696 A 
HETATM    5  N   UNK N   1      20.812  18.838   3.880  0.00  0.00    -0.127 N 
HETATM    6  N   UNK N   1      19.600  19.041   2.028  0.00  0.00    -0.176 N 
HETATM    7  C   UNK N   1      21.372  18.355   5.130  0.00  0.00     0.197 C 
HETATM    8  N   UNK N   1      21.202  19.956   3.291  0.00  0.00    -0.271 N 
HETATM    9  C   UNK N   1      20.464  20.070   2.167  0.00  0.00     0.136 A 
ATOM     10  HN  UNK N   1      21.918  20.603   3.621  1.00  0.00     0.189 HD
ATOM     11  HN  UNK N   1      18.924  18.876   1.283  1.00  0.00     0.185 HD
HETATM   12  H   UNK N   1      18.387  16.831   2.842  0.00  0.00     0.177 HD
BRANCH   9  13
HETATM   13  C   UNK N   1      20.611  21.164   1.161  0.00  0.00     0.242 C 
BRANCH  13  14
HETATM   14  O   UNK N   1      20.657  20.643  -0.133  0.00  0.00    -0.393 OA
HETATM   15  H   UNK N   1      20.719  21.240  -0.895  0.00  0.00     0.209 HD
ENDBRANCH  13  14
ENDBRANCH   9  13
ENDBRANCH   2   3
ENDBRANCH   1   2
BRANCH   1  16
HETATM   16  C   UNK N   1      19.901  14.852   2.183  0.00  0.00     0.177 C 
BRANCH  16  17
HETATM   17  O   UNK N   1      21.105  15.456   1.897  0.00  0.00    -0.351 OA
BRANCH  17  18
HETATM   18  C   UNK N   1      22.225  14.717   1.745  0.00  0.00     0.069 A 
HETATM   19  C   UNK N   1      22.446  13.945   0.590  0.00  0.00     0.037 A 
HETATM   20  C   UNK N   1      23.659  13.270   0.419  0.00  0.00     0.003 A 
HETATM   21  C   UNK N   1      24.672  13.401   1.375  0.00  0.00     0.009 A 
HETATM   22  C   UNK N   1      24.450  14.162   2.531  0.00  0.00    -0.028 A 
HETATM   23  C   UNK N   1      23.225  14.804   2.715  0.00  0.00     0.045 A 
BRANCH  22  24
HETATM   24  C   UNK N   1      25.556  14.458   3.490  0.00  0.00     0.311 C 
BRANCH  24  25
HETATM   25  N   UNK N   1      26.507  15.445   3.004  0.00  0.00     0.092 N 
HETATM   26  C   UNK N   1      26.596  16.472   4.048  0.00  0.00     0.272 C 
HETATM   27  C   UNK N   1      27.699  17.479   3.734  0.00  0.00     0.030 C 
HETATM   28  C   UNK N   1      29.031  16.749   3.637  0.00  0.00     0.003 C 
HETATM   29  C   UNK N   1      28.931  15.654   2.583  0.00  0.00     0.030 C 
HETATM   30  C   UNK N   1      27.778  14.720   2.938  0.00  0.00     0.272 C 
ENDBRANCH  24  25
ENDBRANCH  22  24
ENDBRANCH  17  18
ENDBRANCH  16  17
ENDBRANCH   1  16
TORSDOF 9
ENDMDL
MODEL 9
REMARK VINA RESULT:      -6.3     14.628     17.132
REMARK  9 active torsions:
REMARK  status: ('A' for Active; 'I' for Inactive)
REMARK       I    between atoms: C_3  and  N_11 
REMARK    1  A    between atoms: C_6  and  C_9 
REMARK    2  A    between atoms: C_9  and  O_10 
REMARK    3  A    between atoms: N_11  and  C_12 
REMARK    4  A    between atoms: C_12  and  C_13 
REMARK    5  A    between atoms: C_13  and  C_14 
REMARK    6  A    between atoms: C_14  and  O_15 
REMARK    7  A    between atoms: O_15  and  C_16 
REMARK    8  A    between atoms: C_20  and  C_22 
REMARK    9  A    between atoms: C_22  and  N_23 
ROOT
HETATM    1  C   UNK N   1      20.753  15.875   6.652  0.00  0.00     0.047 C 
ENDROOT
BRANCH   1   2
HETATM    2  C   UNK N   1      20.349  16.250   5.246  0.00  0.00     0.140 C 
BRANCH   2   3
HETATM    3  N   UNK N   1      20.880  17.542   4.898  0.00  0.00    -0.225 N 
HETATM    4  C   UNK N   1      20.747  18.106   3.600  0.00  0.00     0.696 A 
HETATM    5  N   UNK N   1      20.368  17.449   2.484  0.00  0.00    -0.127 N 
HETATM    6  N   UNK N   1      20.936  19.415   3.352  0.00  0.00    -0.176 N 
HETATM    7  C   UNK N   1      20.069  16.038   2.313  0.00  0.00     0.197 C 
HETATM    8  N   UNK N   1      20.296  18.333   1.503  0.00  0.00    -0.271 N 
HETATM    9  C   UNK N   1      20.639  19.523   2.039  0.00  0.00     0.136 A 
ATOM     10  HN  UNK N   1      20.034  18.151   0.534  1.00  0.00     0.189 HD
ATOM     11  HN  UNK N   1      21.230  20.146   3.999  1.00  0.00     0.185 HD
HETATM   12  H   UNK N   1      21.354  18.059   5.589  0.00  0.00     0.177 HD
BRANCH   9  13
HETATM   13  C   UNK N   1      20.642  20.819   1.298  0.00  0.00     0.242 C 
BRANCH  13  14
HETATM   14  O   UNK N   1      20.621  20.601  -0.081  0.00  0.00    -0.393 OA
HETATM   15  H   UNK N   1      21.395  20.824  -0.620  0.00  0.00     0.209 HD
ENDBRANCH  13  14
ENDBRANCH   9  13
ENDBRANCH   2   3
ENDBRANCH   1   2
BRANCH   1  16
HETATM   16  C   UNK N   1      20.471  14.406   6.835  0.00  0.00     0.177 C 
BRANCH  16  17
HETATM   17  O   UNK N   1      20.192  14.108   8.149  0.00  0.00    -0.351 OA
BRANCH  17  18
HETATM   18  C   UNK N   1      21.054  13.371   8.884  0.00  0.00     0.069 A 
HETATM   19  C   UNK N   1      20.829  13.125  10.251  0.00  0.00     0.037 A 
HETATM   20  C   UNK N   1      21.686  12.277  10.961  0.00  0.00     0.003 A 
HETATM   21  C   UNK N   1      22.739  11.635  10.299  0.00  0.00     0.009 A 
HETATM   22  C   UNK N   1      22.969  11.886   8.940  0.00  0.00    -0.028 A 
HETATM   23  C   UNK N   1      22.133  12.762   8.244  0.00  0.00     0.045 A 
BRANCH  22  24
HETATM   24  C   UNK N   1      23.974  11.100   8.164  0.00  0.00     0.311 C 
BRANCH  24  25
HETATM   25  N   UNK N   1      23.409  10.365   7.045  0.00  0.00     0.092 N 
HETATM   26  C   UNK N   1      24.165  10.786   5.859  0.00  0.00     0.272 C 
HETATM   27  C   UNK N   1      23.782   9.951   4.640  0.00  0.00     0.030 C 
HETATM   28  C   UNK N   1      24.076   8.485   4.925  0.00  0.00     0.003 C 
HETATM   29  C   UNK N   1      23.327   8.054   6.178  0.00  0.00     0.030 C 
HETATM   30  C   UNK N   1      23.723   8.964   7.336  0.00  0.00     0.272 C 
ENDBRANCH  24  25
ENDBRANCH  22  24
ENDBRANCH  17  18
ENDBRANCH  16  17
ENDBRANCH   1  16
TORSDOF 9
ENDMDL
