MODEL 1
REMARK VINA RESULT:      -7.8      0.000      0.000
REMARK  1 active torsions:
REMARK  status: ('A' for Active; 'I' for Inactive)
REMARK    1  A    between atoms: C_16  and  C_15 
REMARK       I    between atoms: N_30  and  C_17 
REMARK       I    between atoms: N_31  and  C_18 
REMARK       I    between atoms: N_32  and  C_19 
ROOT
HETATM    1  C   UNK N   1      20.149  19.706   2.983  0.00  0.00     0.002 A 
HETATM    2  C   UNK N   1      20.370  18.608   3.846  0.00  0.00     0.002 A 
HETATM    3  C   UNK N   1      21.229  20.498   2.544  0.00  0.00     0.032 A 
HETATM    4  C   UNK N   1      21.671  18.292   4.271  0.00  0.00     0.033 A 
HETATM    5  C   UNK N   1      22.300  14.794   5.854  0.00  0.00     0.167 C 
HETATM    6  C   UNK N   1      24.232  13.713   7.124  0.00  0.00     0.167 C 
HETATM    7  C   UNK N   1      28.676  16.008   6.735  0.00  0.00     0.167 C 
HETATM    8  C   UNK N   1      28.707  18.322   5.854  0.00  0.00     0.167 C 
HETATM    9  C   UNK N   1      21.556  13.516   6.219  0.00  0.00     0.188 C 
HETATM   10  C   UNK N   1      23.213  12.586   7.338  0.00  0.00     0.188 C 
HETATM   11  C   UNK N   1      29.840  15.745   5.770  0.00  0.00     0.188 C 
HETATM   12  C   UNK N   1      29.859  17.867   4.960  0.00  0.00     0.188 C 
HETATM   13  C   UNK N   1      22.502  20.157   2.989  0.00  0.00     0.061 A 
HETATM   14  C   UNK N   1      22.717  19.097   3.813  0.00  0.00     0.085 A 
HETATM   15  C   UNK N   1      24.599  20.030   3.379  0.00  0.00     0.171 A 
HETATM   16  C   UNK N   1      24.500  15.908   5.960  0.00  0.00     0.709 A 
HETATM   17  C   UNK N   1      26.563  17.060   5.913  0.00  0.00     0.709 A 
HETATM   18  C   UNK N   1      24.662  17.990   4.875  0.00  0.00     0.720 A 
HETATM   19  N   UNK N   1      23.671  20.760   2.702  0.00  0.00    -0.339 N 
ATOM     20  HN  UNK N   1      23.825  21.577   2.111  1.00  0.00     0.167 HD
HETATM   21  N   UNK N   1      25.824  15.972   6.288  0.00  0.00    -0.021 N 
ATOM     22  HN  UNK N   1      26.260  15.211   6.810  1.00  0.00     0.203 HD
HETATM   23  N   UNK N   1      23.943  16.920   5.262  0.00  0.00    -0.021 N 
ATOM     24  HN  UNK N   1      22.953  16.872   5.023  1.00  0.00     0.203 HD
HETATM   25  N   UNK N   1      25.975  18.062   5.204  0.00  0.00    -0.021 N 
ATOM     26  HN  UNK N   1      26.526  18.871   4.919  1.00  0.00     0.203 HD
HETATM   27  N   UNK N   1      23.691  14.790   6.306  0.00  0.00    -0.213 N 
HETATM   28  N   UNK N   1      27.948  17.147   6.226  0.00  0.00    -0.213 N 
HETATM   29  N   UNK N   1      24.035  19.002   4.071  0.00  0.00    -0.127 N 
HETATM   30  O   UNK N   1      21.930  13.121   7.504  0.00  0.00    -0.388 OA
HETATM   31  O   UNK N   1      30.631  16.909   5.646  0.00  0.00    -0.388 OA
ENDROOT
BRANCH  15  32
HETATM   32  C   UNK N   1      26.069  20.318   3.316  0.00  0.00     0.421 C 
HETATM   33  F   UNK N   1      26.334  21.174   2.263  0.00  0.00    -0.206 F 
HETATM   34  F   UNK N   1      26.493  20.914   4.490  0.00  0.00    -0.206 F 
ENDBRANCH  15  32
TORSDOF 1
ENDMDL
MODEL 2
REMARK VINA RESULT:      -7.6     12.450     15.153
REMARK  1 active torsions:
REMARK  status: ('A' for Active; 'I' for Inactive)
REMARK    1  A    between atoms: C_16  and  C_15 
REMARK       I    between atoms: N_30  and  C_17 
REMARK       I    between atoms: N_31  and  C_18 
REMARK       I    between atoms: N_32  and  C_19 
ROOT
HETATM    1  C   UNK N   1      31.429  22.013  -2.562  0.00  0.00     0.002 A 
HETATM    2  C   UNK N   1      30.422  23.004  -2.546  0.00  0.00     0.002 A 
HETATM    3  C   UNK N   1      31.601  21.187  -3.692  0.00  0.00     0.032 A 
HETATM    4  C   UNK N   1      29.583  23.180  -3.659  0.00  0.00     0.033 A 
HETATM    5  C   UNK N   1      27.496  26.455  -3.902  0.00  0.00     0.167 C 
HETATM    6  C   UNK N   1      25.578  27.262  -5.379  0.00  0.00     0.167 C 
HETATM    7  C   UNK N   1      24.833  24.688  -9.619  0.00  0.00     0.167 C 
HETATM    8  C   UNK N   1      25.918  22.471  -9.830  0.00  0.00     0.167 C 
HETATM    9  C   UNK N   1      27.237  27.745  -3.135  0.00  0.00     0.188 C 
HETATM   10  C   UNK N   1      25.563  28.437  -4.393  0.00  0.00     0.188 C 
HETATM   11  C   UNK N   1      25.355  24.952 -11.038  0.00  0.00     0.188 C 
HETATM   12  C   UNK N   1      26.355  22.921 -11.222  0.00  0.00     0.188 C 
HETATM   13  C   UNK N   1      30.748  21.388  -4.773  0.00  0.00     0.061 A 
HETATM   14  C   UNK N   1      29.783  22.346  -4.762  0.00  0.00     0.085 A 
HETATM   15  C   UNK N   1      29.718  21.319  -6.643  0.00  0.00     0.171 A 
HETATM   16  C   UNK N   1      26.843  25.173  -5.908  0.00  0.00     0.709 A 
HETATM   17  C   UNK N   1      26.381  23.880  -7.831  0.00  0.00     0.709 A 
HETATM   18  C   UNK N   1      28.054  23.197  -6.317  0.00  0.00     0.720 A 
HETATM   19  N   UNK N   1      30.727  20.728  -5.947  0.00  0.00    -0.339 N 
ATOM     20  HN  UNK N   1      31.330  19.962  -6.245  1.00  0.00     0.167 HD
HETATM   21  N   UNK N   1      26.132  24.980  -7.058  0.00  0.00    -0.021 N 
ATOM     22  HN  UNK N   1      25.418  25.653  -7.338  1.00  0.00     0.203 HD
HETATM   23  N   UNK N   1      27.789  24.277  -5.558  0.00  0.00    -0.021 N 
ATOM     24  HN  UNK N   1      28.316  24.422  -4.696  1.00  0.00     0.203 HD
HETATM   25  N   UNK N   1      27.346  22.996  -7.455  0.00  0.00    -0.021 N 
ATOM     26  HN  UNK N   1      27.538  22.179  -8.033  1.00  0.00     0.203 HD
HETATM   27  N   UNK N   1      26.640  26.312  -5.078  0.00  0.00    -0.213 N 
HETATM   28  N   UNK N   1      25.668  23.659  -9.042  0.00  0.00    -0.213 N 
HETATM   29  N   UNK N   1      29.122  22.316  -5.934  0.00  0.00    -0.127 N 
HETATM   30  O   UNK N   1      25.863  27.988  -3.102  0.00  0.00    -0.388 OA
HETATM   31  O   UNK N   1      25.360  23.750 -11.778  0.00  0.00    -0.388 OA
ENDROOT
BRANCH  15  32
HETATM   32  C   UNK N   1      29.356  20.929  -8.045  0.00  0.00     0.421 C 
HETATM   33  F   UNK N   1      30.464  20.405  -8.686  0.00  0.00    -0.206 F 
HETATM   34  F   UNK N   1      28.355  19.974  -8.035  0.00  0.00    -0.206 F 
ENDBRANCH  15  32
TORSDOF 1
ENDMDL
MODEL 3
REMARK VINA RESULT:      -7.6     12.623     15.071
REMARK  1 active torsions:
REMARK  status: ('A' for Active; 'I' for Inactive)
REMARK    1  A    between atoms: C_16  and  C_15 
REMARK       I    between atoms: N_30  and  C_17 
REMARK       I    between atoms: N_31  and  C_18 
REMARK       I    between atoms: N_32  and  C_19 
ROOT
HETATM    1  C   UNK N   1      25.205  27.739  -4.294  0.00  0.00     0.002 A 
HETATM    2  C   UNK N   1      24.895  27.268  -5.590  0.00  0.00     0.002 A 
HETATM    3  C   UNK N   1      26.198  27.103  -3.521  0.00  0.00     0.032 A 
HETATM    4  C   UNK N   1      25.577  26.162  -6.124  0.00  0.00     0.033 A 
HETATM    5  C   UNK N   1      25.330  25.510  -9.952  0.00  0.00     0.167 C 
HETATM    6  C   UNK N   1      25.972  23.581 -11.494  0.00  0.00     0.167 C 
HETATM    7  C   UNK N   1      29.192  20.230  -9.603  0.00  0.00     0.167 C 
HETATM    8  C   UNK N   1      29.563  20.241  -7.155  0.00  0.00     0.167 C 
HETATM    9  C   UNK N   1      24.684  26.086 -11.204  0.00  0.00     0.188 C 
HETATM   10  C   UNK N   1      25.215  24.412 -12.538  0.00  0.00     0.188 C 
HETATM   11  C   UNK N   1      30.720  20.156  -9.721  0.00  0.00     0.188 C 
HETATM   12  C   UNK N   1      31.055  20.174  -7.475  0.00  0.00     0.188 C 
HETATM   13  C   UNK N   1      26.849  26.008  -4.082  0.00  0.00     0.061 A 
HETATM   14  C   UNK N   1      26.556  25.558  -5.331  0.00  0.00     0.085 A 
HETATM   15  C   UNK N   1      28.108  24.333  -4.499  0.00  0.00     0.171 A 
HETATM   16  C   UNK N   1      26.722  23.652  -9.111  0.00  0.00     0.709 A 
HETATM   17  C   UNK N   1      28.116  21.983  -8.184  0.00  0.00     0.709 A 
HETATM   18  C   UNK N   1      27.353  23.769  -6.848  0.00  0.00     0.720 A 
HETATM   19  N   UNK N   1      27.822  25.253  -3.538  0.00  0.00    -0.339 N 
ATOM     20  HN  UNK N   1      28.248  25.350  -2.616  1.00  0.00     0.167 HD
HETATM   21  N   UNK N   1      27.446  22.503  -9.258  0.00  0.00    -0.021 N 
ATOM     22  HN  UNK N   1      27.486  22.034 -10.164  1.00  0.00     0.203 HD
HETATM   23  N   UNK N   1      26.687  24.262  -7.909  0.00  0.00    -0.021 N 
ATOM     24  HN  UNK N   1      26.142  25.118  -7.801  1.00  0.00     0.203 HD
HETATM   25  N   UNK N   1      28.067  22.625  -6.985  0.00  0.00    -0.021 N 
ATOM     26  HN  UNK N   1      28.570  22.243  -6.185  1.00  0.00     0.203 HD
HETATM   27  N   UNK N   1      26.024  24.246 -10.200  0.00  0.00    -0.213 N 
HETATM   28  N   UNK N   1      28.891  20.797  -8.309  0.00  0.00    -0.213 N 
HETATM   29  N   UNK N   1      27.341  24.500  -5.611  0.00  0.00    -0.127 N 
HETATM   30  O   UNK N   1      24.118  25.047 -11.945  0.00  0.00    -0.388 OA
HETATM   31  O   UNK N   1      31.248  19.411  -8.644  0.00  0.00    -0.388 OA
ENDROOT
BRANCH  15  32
HETATM   32  C   UNK N   1      29.179  23.296  -4.344  0.00  0.00     0.421 C 
HETATM   33  F   UNK N   1      30.401  23.826  -4.717  0.00  0.00    -0.206 F 
HETATM   34  F   UNK N   1      29.259  22.880  -3.027  0.00  0.00    -0.206 F 
ENDBRANCH  15  32
TORSDOF 1
ENDMDL
MODEL 4
REMARK VINA RESULT:      -7.6      6.432      9.428
REMARK  1 active torsions:
REMARK  status: ('A' for Active; 'I' for Inactive)
REMARK    1  A    between atoms: C_16  and  C_15 
REMARK       I    between atoms: N_30  and  C_17 
REMARK       I    between atoms: N_31  and  C_18 
REMARK       I    between atoms: N_32  and  C_19 
ROOT
HETATM    1  C   UNK N   1      28.869  18.689   9.024  0.00  0.00     0.002 A 
HETATM    2  C   UNK N   1      30.199  18.341   9.352  0.00  0.00     0.002 A 
HETATM    3  C   UNK N   1      28.320  18.321   7.779  0.00  0.00     0.032 A 
HETATM    4  C   UNK N   1      30.987  17.619   8.441  0.00  0.00     0.033 A 
HETATM    5  C   UNK N   1      34.244  15.934   9.744  0.00  0.00     0.167 C 
HETATM    6  C   UNK N   1      36.261  14.824   8.643  0.00  0.00     0.167 C 
HETATM    7  C   UNK N   1      35.681  13.467   3.848  0.00  0.00     0.167 C 
HETATM    8  C   UNK N   1      33.759  14.412   2.606  0.00  0.00     0.167 C 
HETATM    9  C   UNK N   1      35.051  15.768  11.024  0.00  0.00     0.188 C 
HETATM   10  C   UNK N   1      36.809  14.830  10.076  0.00  0.00     0.188 C 
HETATM   11  C   UNK N   1      35.260  12.118   3.249  0.00  0.00     0.188 C 
HETATM   12  C   UNK N   1      33.493  12.990   2.118  0.00  0.00     0.188 C 
HETATM   13  C   UNK N   1      29.133  17.611   6.901  0.00  0.00     0.061 A 
HETATM   14  C   UNK N   1      30.410  17.269   7.218  0.00  0.00     0.085 A 
HETATM   15  C   UNK N   1      29.961  16.527   5.256  0.00  0.00     0.171 A 
HETATM   16  C   UNK N   1      34.215  15.408   7.332  0.00  0.00     0.709 A 
HETATM   17  C   UNK N   1      34.012  14.902   5.032  0.00  0.00     0.709 A 
HETATM   18  C   UNK N   1      32.271  16.025   6.158  0.00  0.00     0.720 A 
HETATM   19  N   UNK N   1      28.827  17.155   5.671  0.00  0.00    -0.339 N 
ATOM     20  HN  UNK N   1      27.946  17.257   5.167  1.00  0.00     0.167 HD
HETATM   21  N   UNK N   1      34.732  14.856   6.194  0.00  0.00    -0.021 N 
ATOM     22  HN  UNK N   1      35.650  14.411   6.212  1.00  0.00     0.203 HD
HETATM   23  N   UNK N   1      32.996  15.984   7.292  0.00  0.00    -0.021 N 
ATOM     24  HN  UNK N   1      32.614  16.400   8.142  1.00  0.00     0.203 HD
HETATM   25  N   UNK N   1      32.782  15.485   5.024  0.00  0.00    -0.021 N 
ATOM     26  HN  UNK N   1      32.241  15.516   4.160  1.00  0.00     0.203 HD
HETATM   27  N   UNK N   1      34.912  15.368   8.572  0.00  0.00    -0.213 N 
HETATM   28  N   UNK N   1      34.516  14.322   3.835  0.00  0.00    -0.213 N 
HETATM   29  N   UNK N   1      30.949  16.585   6.190  0.00  0.00    -0.127 N 
HETATM   30  O   UNK N   1      36.401  15.990  10.744  0.00  0.00    -0.388 OA
HETATM   31  O   UNK N   1      34.720  12.315   1.960  0.00  0.00    -0.388 OA
ENDROOT
BRANCH  15  32
HETATM   32  C   UNK N   1      30.068  15.822   3.937  0.00  0.00     0.421 C 
HETATM   33  F   UNK N   1      28.819  15.380   3.540  0.00  0.00    -0.206 F 
HETATM   34  F   UNK N   1      30.563  16.680   2.972  0.00  0.00    -0.206 F 
ENDBRANCH  15  32
TORSDOF 1
ENDMDL
MODEL 5
REMARK VINA RESULT:      -7.5      8.373     11.298
REMARK  1 active torsions:
REMARK  status: ('A' for Active; 'I' for Inactive)
REMARK    1  A    between atoms: C_16  and  C_15 
REMARK       I    between atoms: N_30  and  C_17 
REMARK       I    between atoms: N_31  and  C_18 
REMARK       I    between atoms: N_32  and  C_19 
ROOT
HETATM    1  C   UNK N   1      35.882  14.371  12.675  0.00  0.00     0.002 A 
HETATM    2  C   UNK N   1      35.593  13.337  11.754  0.00  0.00     0.002 A 
HETATM    3  C   UNK N   1      35.705  15.722  12.312  0.00  0.00     0.032 A 
HETATM    4  C   UNK N   1      35.121  13.647  10.468  0.00  0.00     0.033 A 
HETATM    5  C   UNK N   1      33.506  10.803   8.359  0.00  0.00     0.167 C 
HETATM    6  C   UNK N   1      32.793  10.552   5.922  0.00  0.00     0.167 C 
HETATM    7  C   UNK N   1      32.300  14.816   3.324  0.00  0.00     0.167 C 
HETATM    8  C   UNK N   1      33.292  16.872   4.282  0.00  0.00     0.167 C 
HETATM    9  C   UNK N   1      33.175   9.319   8.442  0.00  0.00     0.188 C 
HETATM   10  C   UNK N   1      32.580   9.089   6.331  0.00  0.00     0.188 C 
HETATM   11  C   UNK N   1      31.054  15.673   3.063  0.00  0.00     0.188 C 
HETATM   12  C   UNK N   1      31.966  17.555   3.951  0.00  0.00     0.188 C 
HETATM   13  C   UNK N   1      35.240  15.988  11.028  0.00  0.00     0.061 A 
HETATM   14  C   UNK N   1      34.955  14.995  10.143  0.00  0.00     0.085 A 
HETATM   15  C   UNK N   1      34.553  16.886   9.215  0.00  0.00     0.171 A 
HETATM   16  C   UNK N   1      33.433  12.773   6.873  0.00  0.00     0.709 A 
HETATM   17  C   UNK N   1      33.345  14.758   5.593  0.00  0.00     0.709 A 
HETATM   18  C   UNK N   1      34.090  14.820   7.829  0.00  0.00     0.720 A 
HETATM   19  N   UNK N   1      34.994  17.187  10.466  0.00  0.00    -0.339 N 
ATOM     20  HN  UNK N   1      35.113  18.110  10.884  1.00  0.00     0.167 HD
HETATM   21  N   UNK N   1      33.146  13.409   5.698  0.00  0.00    -0.021 N 
ATOM     22  HN  UNK N   1      32.785  12.880   4.904  1.00  0.00     0.203 HD
HETATM   23  N   UNK N   1      33.902  13.489   7.915  0.00  0.00    -0.021 N 
ATOM     24  HN  UNK N   1      34.120  13.011   8.789  1.00  0.00     0.203 HD
HETATM   25  N   UNK N   1      33.814  15.455   6.664  0.00  0.00    -0.021 N 
ATOM     26  HN  UNK N   1      33.957  16.462   6.590  1.00  0.00     0.203 HD
HETATM   27  N   UNK N   1      33.224  11.375   7.043  0.00  0.00    -0.213 N 
HETATM   28  N   UNK N   1      33.040  15.451   4.389  0.00  0.00    -0.213 N 
HETATM   29  N   UNK N   1      34.521  15.544   8.993  0.00  0.00    -0.127 N 
HETATM   30  O   UNK N   1      33.559   8.699   7.252  0.00  0.00    -0.388 OA
HETATM   31  O   UNK N   1      31.439  16.999   2.768  0.00  0.00    -0.388 OA
ENDROOT
BRANCH  15  32
HETATM   32  C   UNK N   1      34.114  17.929   8.230  0.00  0.00     0.421 C 
HETATM   33  F   UNK N   1      32.813  18.312   8.503  0.00  0.00    -0.206 F 
HETATM   34  F   UNK N   1      34.932  19.042   8.313  0.00  0.00    -0.206 F 
ENDBRANCH  15  32
TORSDOF 1
ENDMDL
MODEL 6
REMARK VINA RESULT:      -7.4      6.433     10.404
REMARK  1 active torsions:
REMARK  status: ('A' for Active; 'I' for Inactive)
REMARK    1  A    between atoms: C_16  and  C_15 
REMARK       I    between atoms: N_30  and  C_17 
REMARK       I    between atoms: N_31  and  C_18 
REMARK       I    between atoms: N_32  and  C_19 
ROOT
HETATM    1  C   UNK N   1      36.072  13.419   2.927  0.00  0.00     0.002 A 
HETATM    2  C   UNK N   1      36.118  13.381   4.339  0.00  0.00     0.002 A 
HETATM    3  C   UNK N   1      35.004  14.056   2.263  0.00  0.00     0.032 A 
HETATM    4  C   UNK N   1      35.100  13.983   5.097  0.00  0.00     0.033 A 
HETATM    5  C   UNK N   1      35.751  14.633   8.879  0.00  0.00     0.167 C 
HETATM    6  C   UNK N   1      34.300  15.322  10.862  0.00  0.00     0.167 C 
HETATM    7  C   UNK N   1      29.844  17.333   9.736  0.00  0.00     0.167 C 
HETATM    8  C   UNK N   1      29.003  17.052   7.424  0.00  0.00     0.167 C 
HETATM    9  C   UNK N   1      36.827  14.440   9.937  0.00  0.00     0.188 C 
HETATM   10  C   UNK N   1      35.573  15.011  11.659  0.00  0.00     0.188 C 
HETATM   11  C   UNK N   1      29.436  18.805   9.585  0.00  0.00     0.188 C 
HETATM   12  C   UNK N   1      28.673  18.543   7.462  0.00  0.00     0.188 C 
HETATM   13  C   UNK N   1      34.012  14.637   3.048  0.00  0.00     0.061 A 
HETATM   14  C   UNK N   1      34.059  14.608   4.407  0.00  0.00     0.085 A 
HETATM   15  C   UNK N   1      32.294  15.663   3.796  0.00  0.00     0.171 A 
HETATM   16  C   UNK N   1      33.441  15.428   8.518  0.00  0.00     0.709 A 
HETATM   17  C   UNK N   1      31.278  16.234   8.009  0.00  0.00     0.709 A 
HETATM   18  C   UNK N   1      32.691  15.460   6.287  0.00  0.00     0.720 A 
HETATM   19  N   UNK N   1      32.911  15.296   2.640  0.00  0.00    -0.339 N 
ATOM     20  HN  UNK N   1      32.609  15.478   1.683  1.00  0.00     0.167 HD
HETATM   21  N   UNK N   1      32.253  15.962   8.929  0.00  0.00    -0.021 N 
ATOM     22  HN  UNK N   1      32.094  16.157   9.918  1.00  0.00     0.203 HD
HETATM   23  N   UNK N   1      33.637  15.185   7.205  0.00  0.00    -0.021 N 
ATOM     24  HN  UNK N   1      34.523  14.782   6.901  1.00  0.00     0.203 HD
HETATM   25  N   UNK N   1      31.508  15.984   6.691  0.00  0.00    -0.021 N 
ATOM     26  HN  UNK N   1      30.784  16.191   6.003  1.00  0.00     0.203 HD
HETATM   27  N   UNK N   1      34.497  15.146   9.430  0.00  0.00    -0.213 N 
HETATM   28  N   UNK N   1      30.037  16.806   8.405  0.00  0.00    -0.213 N 
HETATM   29  N   UNK N   1      32.981  15.250   4.896  0.00  0.00    -0.127 N 
HETATM   30  O   UNK N   1      36.243  13.920  11.093  0.00  0.00    -0.388 OA
HETATM   31  O   UNK N   1      28.288  18.902   8.769  0.00  0.00    -0.388 OA
ENDROOT
BRANCH  15  32
HETATM   32  C   UNK N   1      31.030  16.469   3.828  0.00  0.00     0.421 C 
HETATM   33  F   UNK N   1      31.324  17.789   4.115  0.00  0.00    -0.206 F 
HETATM   34  F   UNK N   1      30.393  16.412   2.601  0.00  0.00    -0.206 F 
ENDBRANCH  15  32
TORSDOF 1
ENDMDL
MODEL 7
REMARK VINA RESULT:      -7.4      7.837     12.942
REMARK  1 active torsions:
REMARK  status: ('A' for Active; 'I' for Inactive)
REMARK    1  A    between atoms: C_16  and  C_15 
REMARK       I    between atoms: N_30  and  C_17 
REMARK       I    between atoms: N_31  and  C_18 
REMARK       I    between atoms: N_32  and  C_19 
ROOT
HETATM    1  C   UNK N   1      39.553  12.490   9.117  0.00  0.00     0.002 A 
HETATM    2  C   UNK N   1      39.053  12.676   7.808  0.00  0.00     0.002 A 
HETATM    3  C   UNK N   1      38.881  13.046  10.225  0.00  0.00     0.032 A 
HETATM    4  C   UNK N   1      37.877  13.415   7.598  0.00  0.00     0.033 A 
HETATM    5  C   UNK N   1      36.096  13.113   4.151  0.00  0.00     0.167 C 
HETATM    6  C   UNK N   1      34.213  14.377   2.982  0.00  0.00     0.167 C 
HETATM    7  C   UNK N   1      31.321  17.232   5.923  0.00  0.00     0.167 C 
HETATM    8  C   UNK N   1      32.148  17.755   8.198  0.00  0.00     0.167 C 
HETATM    9  C   UNK N   1      36.242  12.409   2.810  0.00  0.00     0.188 C 
HETATM   10  C   UNK N   1      34.631  13.513   1.785  0.00  0.00     0.188 C 
HETATM   11  C   UNK N   1      29.985  16.908   6.606  0.00  0.00     0.188 C 
HETATM   12  C   UNK N   1      30.752  17.382   8.691  0.00  0.00     0.188 C 
HETATM   13  C   UNK N   1      37.722  13.775   9.977  0.00  0.00     0.061 A 
HETATM   14  C   UNK N   1      37.236  13.949   8.719  0.00  0.00     0.085 A 
HETATM   15  C   UNK N   1      35.936  14.939  10.108  0.00  0.00     0.171 A 
HETATM   16  C   UNK N   1      34.720  14.737   5.402  0.00  0.00     0.709 A 
HETATM   17  C   UNK N   1      33.445  16.205   6.746  0.00  0.00     0.709 A 
HETATM   18  C   UNK N   1      35.284  15.052   7.665  0.00  0.00     0.720 A 
HETATM   19  N   UNK N   1      36.921  14.389  10.868  0.00  0.00    -0.339 N 
ATOM     20  HN  UNK N   1      37.028  14.430  11.882  1.00  0.00     0.167 HD
HETATM   21  N   UNK N   1      33.674  15.605   5.538  0.00  0.00    -0.021 N 
ATOM     22  HN  UNK N   1      33.067  15.805   4.743  1.00  0.00     0.203 HD
HETATM   23  N   UNK N   1      35.507  14.479   6.467  0.00  0.00    -0.021 N 
ATOM     24  HN  UNK N   1      36.290  13.833   6.361  1.00  0.00     0.203 HD
HETATM   25  N   UNK N   1      34.253  15.919   7.804  0.00  0.00    -0.021 N 
ATOM     26  HN  UNK N   1      34.080  16.361   8.707  1.00  0.00     0.203 HD
HETATM   27  N   UNK N   1      34.990  14.069   4.175  0.00  0.00    -0.213 N 
HETATM   28  N   UNK N   1      32.354  17.101   6.924  0.00  0.00    -0.213 N 
HETATM   29  N   UNK N   1      36.109  14.683   8.782  0.00  0.00    -0.127 N 
HETATM   30  O   UNK N   1      36.018  13.329   1.784  0.00  0.00    -0.388 OA
HETATM   31  O   UNK N   1      29.800  17.754   7.721  0.00  0.00    -0.388 OA
ENDROOT
BRANCH  15  32
HETATM   32  C   UNK N   1      34.780  15.696  10.691  0.00  0.00     0.421 C 
HETATM   33  F   UNK N   1      34.058  14.871  11.534  0.00  0.00    -0.206 F 
HETATM   34  F   UNK N   1      35.234  16.784  11.415  0.00  0.00    -0.206 F 
ENDBRANCH  15  32
TORSDOF 1
ENDMDL
MODEL 8
REMARK VINA RESULT:      -7.4      4.355      7.313
REMARK  1 active torsions:
REMARK  status: ('A' for Active; 'I' for Inactive)
REMARK    1  A    between atoms: C_16  and  C_15 
REMARK       I    between atoms: N_30  and  C_17 
REMARK       I    between atoms: N_31  and  C_18 
REMARK       I    between atoms: N_32  and  C_19 
ROOT
HETATM    1  C   UNK N   1      26.778  20.521   5.356  0.00  0.00     0.002 A 
HETATM    2  C   UNK N   1      28.124  20.099   5.446  0.00  0.00     0.002 A 
HETATM    3  C   UNK N   1      25.822  19.727   4.691  0.00  0.00     0.032 A 
HETATM    4  C   UNK N   1      28.523  18.878   4.876  0.00  0.00     0.033 A 
HETATM    5  C   UNK N   1      31.952  17.376   5.936  0.00  0.00     0.167 C 
HETATM    6  C   UNK N   1      33.424  15.473   5.085  0.00  0.00     0.167 C 
HETATM    7  C   UNK N   1      31.186  12.137   2.079  0.00  0.00     0.167 C 
HETATM    8  C   UNK N   1      28.998  12.754   1.097  0.00  0.00     0.167 C 
HETATM    9  C   UNK N   1      33.140  17.677   6.839  0.00  0.00     0.188 C 
HETATM   10  C   UNK N   1      34.427  16.049   6.092  0.00  0.00     0.188 C 
HETATM   11  C   UNK N   1      30.529  10.792   2.415  0.00  0.00     0.188 C 
HETATM   12  C   UNK N   1      28.522  11.366   1.520  0.00  0.00     0.188 C 
HETATM   13  C   UNK N   1      26.256  18.527   4.135  0.00  0.00     0.061 A 
HETATM   14  C   UNK N   1      27.549  18.116   4.227  0.00  0.00     0.085 A 
HETATM   15  C   UNK N   1      26.426  16.638   3.152  0.00  0.00     0.171 A 
HETATM   16  C   UNK N   1      31.081  15.775   4.270  0.00  0.00     0.709 A 
HETATM   17  C   UNK N   1      30.084  14.283   2.732  0.00  0.00     0.709 A 
HETATM   18  C   UNK N   1      28.882  16.151   3.521  0.00  0.00     0.720 A 
HETATM   19  N   UNK N   1      25.530  17.613   3.463  0.00  0.00    -0.339 N 
ATOM     20  HN  UNK N   1      24.535  17.646   3.240  1.00  0.00     0.167 HD
HETATM   21  N   UNK N   1      31.154  14.649   3.502  0.00  0.00    -0.021 N 
ATOM     22  HN  UNK N   1      32.004  14.083   3.502  1.00  0.00     0.203 HD
HETATM   23  N   UNK N   1      29.947  16.507   4.264  0.00  0.00    -0.021 N 
ATOM     24  HN  UNK N   1      29.896  17.350   4.835  1.00  0.00     0.203 HD
HETATM   25  N   UNK N   1      28.952  15.038   2.751  0.00  0.00    -0.021 N 
ATOM     26  HN  UNK N   1      28.151  14.764   2.183  1.00  0.00     0.203 HD
HETATM   27  N   UNK N   1      32.156  16.189   5.106  0.00  0.00    -0.213 N 
HETATM   28  N   UNK N   1      30.125  13.106   1.934  0.00  0.00    -0.213 N 
HETATM   29  N   UNK N   1      27.675  16.925   3.610  0.00  0.00    -0.127 N 
HETATM   30  O   UNK N   1      34.321  17.444   6.133  0.00  0.00    -0.388 OA
HETATM   31  O   UNK N   1      29.590  10.454   1.416  0.00  0.00    -0.388 OA
ENDROOT
BRANCH  15  32
HETATM   32  C   UNK N   1      26.047  15.381   2.427  0.00  0.00     0.421 C 
HETATM   33  F   UNK N   1      24.815  14.938   2.873  0.00  0.00    -0.206 F 
HETATM   34  F   UNK N   1      25.969  15.615   1.066  0.00  0.00    -0.206 F 
ENDBRANCH  15  32
TORSDOF 1
ENDMDL
MODEL 9
REMARK VINA RESULT:      -7.4      4.162      8.638
REMARK  1 active torsions:
REMARK  status: ('A' for Active; 'I' for Inactive)
REMARK    1  A    between atoms: C_16  and  C_15 
REMARK       I    between atoms: N_30  and  C_17 
REMARK       I    between atoms: N_31  and  C_18 
REMARK       I    between atoms: N_32  and  C_19 
ROOT
HETATM    1  C   UNK N   1      34.313  17.886   7.856  0.00  0.00     0.002 A 
HETATM    2  C   UNK N   1      34.078  17.151   6.672  0.00  0.00     0.002 A 
HETATM    3  C   UNK N   1      33.241  18.248   8.698  0.00  0.00     0.032 A 
HETATM    4  C   UNK N   1      32.771  16.768   6.324  0.00  0.00     0.033 A 
HETATM    5  C   UNK N   1      32.314  14.021   3.607  0.00  0.00     0.167 C 
HETATM    6  C   UNK N   1      30.334  13.124   2.270  0.00  0.00     0.167 C 
HETATM    7  C   UNK N   1      25.783  14.239   4.062  0.00  0.00     0.167 C 
HETATM    8  C   UNK N   1      25.619  16.032   5.762  0.00  0.00     0.167 C 
HETATM    9  C   UNK N   1      33.134  13.125   2.689  0.00  0.00     0.188 C 
HETATM   10  C   UNK N   1      31.430  12.363   1.514  0.00  0.00     0.188 C 
HETATM   11  C   UNK N   1      24.862  13.432   4.988  0.00  0.00     0.188 C 
HETATM   12  C   UNK N   1      24.723  15.077   6.548  0.00  0.00     0.188 C 
HETATM   13  C   UNK N   1      31.962  17.855   8.317  0.00  0.00     0.061 A 
HETATM   14  C   UNK N   1      31.734  17.142   7.182  0.00  0.00     0.085 A 
HETATM   15  C   UNK N   1      29.863  17.482   8.173  0.00  0.00     0.171 A 
HETATM   16  C   UNK N   1      30.007  14.661   4.213  0.00  0.00     0.709 A 
HETATM   17  C   UNK N   1      27.858  15.306   4.956  0.00  0.00     0.709 A 
HETATM   18  C   UNK N   1      29.784  16.143   6.027  0.00  0.00     0.720 A 
HETATM   19  N   UNK N   1      30.799  18.081   8.958  0.00  0.00    -0.339 N 
ATOM     20  HN  UNK N   1      30.654  18.587   9.832  1.00  0.00     0.167 HD
HETATM   21  N   UNK N   1      28.648  14.585   4.102  0.00  0.00    -0.021 N 
ATOM     22  HN  UNK N   1      28.224  13.995   3.386  1.00  0.00     0.203 HD
HETATM   23  N   UNK N   1      30.550  15.440   5.171  0.00  0.00    -0.021 N 
ATOM     24  HN  UNK N   1      31.565  15.498   5.249  1.00  0.00     0.203 HD
HETATM   25  N   UNK N   1      28.435  16.078   5.917  0.00  0.00    -0.021 N 
ATOM     26  HN  UNK N   1      27.848  16.611   6.558  1.00  0.00     0.203 HD
HETATM   27  N   UNK N   1      30.875  13.916   3.365  0.00  0.00    -0.213 N 
HETATM   28  N   UNK N   1      26.440  15.235   4.876  0.00  0.00    -0.213 N 
HETATM   29  N   UNK N   1      30.415  16.898   7.074  0.00  0.00    -0.127 N 
HETATM   30  O   UNK N   1      32.580  13.154   1.408  0.00  0.00    -0.388 OA
HETATM   31  O   UNK N   1      23.966  14.301   5.648  0.00  0.00    -0.388 OA
ENDROOT
BRANCH  15  32
HETATM   32  C   UNK N   1      28.405  17.444   8.524  0.00  0.00     0.421 C 
HETATM   33  F   UNK N   1      28.257  17.268   9.888  0.00  0.00    -0.206 F 
HETATM   34  F   UNK N   1      27.792  18.629   8.160  0.00  0.00    -0.206 F 
ENDBRANCH  15  32
TORSDOF 1
ENDMDL
