REMARK  2 active torsions:
REMARK  status: ('A' for Active; 'I' for Inactive)
REMARK    1  A    between atoms: C_2  and  O_23 
REMARK    2  A    between atoms: C_17  and  C_18 
ROOT
HETATM    1  C   UNK N   1      14.777 -12.690   1.531  0.00  0.00     0.032 C 
HETATM    2  C   UNK N   1      14.577 -13.775   0.471  0.00  0.00     0.118 C 
HETATM    3  C   UNK N   1      15.853 -14.580   0.193  0.00  0.00     0.037 C 
HETATM    4  C   UNK N   1      17.159 -13.858   0.557  0.00  0.00    -0.004 C 
HETATM    5  C   UNK N   1      17.066 -12.320   0.343  0.00  0.00    -0.036 C 
HETATM    6  C   UNK N   1      15.957 -11.743   1.249  0.00  0.00     0.012 C 
HETATM    7  C   UNK N   1      18.299 -14.471  -0.261  0.00  0.00     0.006 C 
HETATM    8  C   UNK N   1      19.635 -13.819   0.090  0.00  0.00     0.006 C 
HETATM    9  C   UNK N   1      19.583 -12.305  -0.136  0.00  0.00    -0.005 C 
HETATM   10  C   UNK N   1      18.435 -11.683   0.718  0.00  0.00    -0.002 C 
HETATM   11  C   UNK N   1      20.908 -11.653   0.288  0.00  0.00    -0.001 C 
HETATM   12  C   UNK N   1      20.889 -10.140   0.098  0.00  0.00    -0.030 C 
HETATM   13  C   UNK N   1      19.789  -9.536   0.974  0.00  0.00     0.011 C 
HETATM   14  C   UNK N   1      18.426 -10.142   0.588  0.00  0.00     0.006 C 
HETATM   15  C   UNK N   1      22.175 -12.083  -0.438  0.00  0.00     0.006 C 
HETATM   16  C   UNK N   1      23.154 -10.924  -0.182  0.00  0.00     0.013 C 
HETATM   17  C   UNK N   1      22.324  -9.832   0.516  0.00  0.00     0.063 C 
HETATM   18  C   UNK N   1      20.657  -9.728  -1.369  0.00  0.00     0.016 C 
HETATM   19  C   UNK N   1      16.719 -11.991  -1.113  0.00  0.00     0.016 C 
ENDROOT
BRANCH  17  20
HETATM   20  C   UNK N   1      22.803  -8.420   0.283  0.00  0.00     0.128 C 
HETATM   21  O   UNK N   1      23.755  -8.199  -0.445  0.00  0.00    -0.298 OA
HETATM   22  C   UNK N   1      22.130  -7.283   0.976  0.00  0.00     0.091 C 
ENDBRANCH  17  20
BRANCH   2  23
HETATM   23  O   UNK N   1      14.101 -13.215  -0.715  0.00  0.00    -0.396 OA
HETATM   24  H   UNK N   1      14.273 -12.733  -1.539  0.00  0.00     0.210 HD
ENDBRANCH   2  23
TORSDOF 2
