MODEL 1
REMARK VINA RESULT:      -6.8      0.000      0.000
REMARK  6 active torsions:
REMARK  status: ('A' for Active; 'I' for Inactive)
REMARK    1  A    between atoms: N_6  and  C_7 
REMARK    2  A    between atoms: C_7  and  C_8 
REMARK    3  A    between atoms: C_8  and  C_9 
REMARK    4  A    between atoms: C_9  and  O_10 
REMARK    5  A    between atoms: O_10  and  C_11 
REMARK    6  A    between atoms: C_14  and  C_17 
ROOT
HETATM    1  C   UNK N   1      28.578  16.361   6.115  0.00  0.00     0.068 A 
HETATM    2  C   UNK N   1      28.654  17.298   7.152  0.00  0.00     0.037 A 
HETATM    3  C   UNK N   1      29.866  17.516   7.818  0.00  0.00     0.016 A 
HETATM    4  C   UNK N   1      31.019  16.805   7.441  0.00  0.00    -0.008 A 
HETATM    5  C   UNK N   1      30.938  15.872   6.401  0.00  0.00     0.016 A 
HETATM    6  C   UNK N   1      29.730  15.645   5.750  0.00  0.00     0.037 A 
ENDROOT
BRANCH   1   7
HETATM    7  O   UNK N   1      27.393  16.163   5.484  0.00  0.00    -0.351 OA
BRANCH   7   8
HETATM    8  C   UNK N   1      27.235  16.195   4.111  0.00  0.00     0.177 C 
BRANCH   8   9
HETATM    9  C   UNK N   1      26.001  16.981   3.693  0.00  0.00     0.057 C 
BRANCH   9  10
HETATM   10  C   UNK N   1      25.513  17.780   4.891  0.00  0.00     0.275 C 
BRANCH  10  11
HETATM   11  N   UNK N   1      25.400  19.198   4.566  0.00  0.00     0.092 N 
HETATM   12  C   UNK N   1      24.266  19.399   3.671  0.00  0.00     0.273 C 
HETATM   13  C   UNK N   1      24.634  20.519   2.716  0.00  0.00     0.032 C 
HETATM   14  C   UNK N   1      26.110  20.757   2.936  0.00  0.00     0.037 C 
HETATM   15  C   UNK N   1      26.546  19.566   3.752  0.00  0.00     0.219 C 
HETATM   16  C   UNK N   1      27.742  19.925   4.615  0.00  0.00     0.043 C 
ENDBRANCH  10  11
ENDBRANCH   9  10
ENDBRANCH   8   9
ENDBRANCH   7   8
ENDBRANCH   1   7
BRANCH   4  17
HETATM   17  C   UNK N   1      32.312  17.026   8.116  0.00  0.00     0.058 A 
HETATM   18  C   UNK N   1      33.247  17.935   7.609  0.00  0.00     0.037 A 
HETATM   19  C   UNK N   1      34.456  18.117   8.275  0.00  0.00     0.078 A 
HETATM   20  C   UNK N   1      34.709  17.381   9.429  0.00  0.00     0.259 A 
HETATM   21  O   UNK N   1      35.760  17.520  10.026  0.00  0.00    -0.267 OA
HETATM   22  N   UNK N   1      33.769  16.500   9.890  0.00  0.00    -0.266 N 
HETATM   23  N   UNK N   1      32.609  16.334   9.252  0.00  0.00    -0.297 N 
HETATM   24  H   UNK N   1      33.952  15.979  10.705  0.00  0.00     0.190 HD
ATOM     25  HN  UNK N   1      31.926  15.672   9.623  1.00  0.00     0.187 HD
ENDBRANCH   4  17
TORSDOF 6
ENDMDL
MODEL 2
REMARK VINA RESULT:      -6.7      3.622      5.911
REMARK  6 active torsions:
REMARK  status: ('A' for Active; 'I' for Inactive)
REMARK    1  A    between atoms: N_6  and  C_7 
REMARK    2  A    between atoms: C_7  and  C_8 
REMARK    3  A    between atoms: C_8  and  C_9 
REMARK    4  A    between atoms: C_9  and  O_10 
REMARK    5  A    between atoms: O_10  and  C_11 
REMARK    6  A    between atoms: C_14  and  C_17 
ROOT
HETATM    1  C   UNK N   1      34.417  17.171   7.261  0.00  0.00     0.068 A 
HETATM    2  C   UNK N   1      34.749  15.825   7.072  0.00  0.00     0.037 A 
HETATM    3  C   UNK N   1      35.180  15.047   8.154  0.00  0.00     0.016 A 
HETATM    4  C   UNK N   1      35.268  15.609   9.439  0.00  0.00    -0.008 A 
HETATM    5  C   UNK N   1      34.930  16.955   9.623  0.00  0.00     0.016 A 
HETATM    6  C   UNK N   1      34.517  17.731   8.544  0.00  0.00     0.037 A 
ENDROOT
BRANCH   1   7
HETATM    7  O   UNK N   1      34.005  17.908   6.198  0.00  0.00    -0.351 OA
BRANCH   7   8
HETATM    8  C   UNK N   1      33.424  17.370   5.065  0.00  0.00     0.177 C 
BRANCH   8   9
HETATM    9  C   UNK N   1      31.907  17.495   5.083  0.00  0.00     0.057 C 
BRANCH   9  10
HETATM   10  C   UNK N   1      31.324  16.179   5.572  0.00  0.00     0.275 C 
BRANCH  10  11
HETATM   11  N   UNK N   1      30.192  16.405   6.464  0.00  0.00     0.092 N 
HETATM   12  C   UNK N   1      29.245  17.310   5.823  0.00  0.00     0.273 C 
HETATM   13  C   UNK N   1      28.633  18.174   6.910  0.00  0.00     0.032 C 
HETATM   14  C   UNK N   1      29.464  17.903   8.143  0.00  0.00     0.037 C 
HETATM   15  C   UNK N   1      30.665  17.164   7.609  0.00  0.00     0.219 C 
HETATM   16  C   UNK N   1      31.241  16.250   8.676  0.00  0.00     0.043 C 
ENDBRANCH  10  11
ENDBRANCH   9  10
ENDBRANCH   8   9
ENDBRANCH   7   8
ENDBRANCH   1   7
BRANCH   4  17
HETATM   17  C   UNK N   1      35.704  14.808  10.600  0.00  0.00     0.058 A 
HETATM   18  C   UNK N   1      34.798  14.421  11.593  0.00  0.00     0.037 A 
HETATM   19  C   UNK N   1      35.248  13.665  12.672  0.00  0.00     0.078 A 
HETATM   20  C   UNK N   1      36.594  13.318  12.740  0.00  0.00     0.259 A 
HETATM   21  O   UNK N   1      37.010  12.660  13.675  0.00  0.00    -0.267 OA
HETATM   22  N   UNK N   1      37.447  13.719  11.748  0.00  0.00    -0.266 N 
HETATM   23  N   UNK N   1      37.011  14.437  10.712  0.00  0.00    -0.297 N 
HETATM   24  H   UNK N   1      38.399  13.473  11.800  0.00  0.00     0.190 HD
ATOM     25  HN  UNK N   1      37.671  14.718   9.987  1.00  0.00     0.187 HD
ENDBRANCH   4  17
TORSDOF 6
ENDMDL
MODEL 3
REMARK VINA RESULT:      -6.7      2.452      8.091
REMARK  6 active torsions:
REMARK  status: ('A' for Active; 'I' for Inactive)
REMARK    1  A    between atoms: N_6  and  C_7 
REMARK    2  A    between atoms: C_7  and  C_8 
REMARK    3  A    between atoms: C_8  and  C_9 
REMARK    4  A    between atoms: C_9  and  O_10 
REMARK    5  A    between atoms: O_10  and  C_11 
REMARK    6  A    between atoms: C_14  and  C_17 
ROOT
HETATM    1  C   UNK N   1      29.495  17.559   7.881  0.00  0.00     0.068 A 
HETATM    2  C   UNK N   1      28.859  18.770   8.178  0.00  0.00     0.037 A 
HETATM    3  C   UNK N   1      27.959  19.335   7.267  0.00  0.00     0.016 A 
HETATM    4  C   UNK N   1      27.676  18.683   6.055  0.00  0.00    -0.008 A 
HETATM    5  C   UNK N   1      28.311  17.470   5.765  0.00  0.00     0.016 A 
HETATM    6  C   UNK N   1      29.218  16.917   6.664  0.00  0.00     0.037 A 
ENDROOT
BRANCH   1   7
HETATM    7  O   UNK N   1      30.368  17.030   8.777  0.00  0.00    -0.351 OA
BRANCH   7   8
HETATM    8  C   UNK N   1      31.699  16.779   8.501  0.00  0.00     0.177 C 
BRANCH   8   9
HETATM    9  C   UNK N   1      32.496  18.060   8.308  0.00  0.00     0.057 C 
BRANCH   9  10
HETATM   10  C   UNK N   1      33.680  17.757   7.403  0.00  0.00     0.275 C 
BRANCH  10  11
HETATM   11  N   UNK N   1      33.432  16.567   6.596  0.00  0.00     0.092 N 
HETATM   12  C   UNK N   1      34.553  15.644   6.740  0.00  0.00     0.273 C 
HETATM   13  C   UNK N   1      34.744  14.949   5.404  0.00  0.00     0.032 C 
HETATM   14  C   UNK N   1      33.865  15.707   4.436  0.00  0.00     0.037 C 
HETATM   15  C   UNK N   1      33.487  16.953   5.196  0.00  0.00     0.219 C 
HETATM   16  C   UNK N   1      32.146  17.479   4.717  0.00  0.00     0.043 C 
ENDBRANCH  10  11
ENDBRANCH   9  10
ENDBRANCH   8   9
ENDBRANCH   7   8
ENDBRANCH   1   7
BRANCH   4  17
HETATM   17  C   UNK N   1      26.719  19.249   5.084  0.00  0.00     0.058 A 
HETATM   18  C   UNK N   1      27.153  20.054   4.026  0.00  0.00     0.037 A 
HETATM   19  C   UNK N   1      26.219  20.568   3.129  0.00  0.00     0.078 A 
HETATM   20  C   UNK N   1      24.872  20.272   3.313  0.00  0.00     0.259 A 
HETATM   21  O   UNK N   1      24.038  20.713   2.544  0.00  0.00    -0.267 OA
HETATM   22  N   UNK N   1      24.490  19.482   4.363  0.00  0.00    -0.266 N 
HETATM   23  N   UNK N   1      25.388  18.986   5.215  0.00  0.00    -0.297 N 
HETATM   24  H   UNK N   1      23.536  19.276   4.491  0.00  0.00     0.190 HD
ATOM     25  HN  UNK N   1      25.071  18.397   5.986  1.00  0.00     0.187 HD
ENDBRANCH   4  17
TORSDOF 6
ENDMDL
MODEL 4
REMARK VINA RESULT:      -6.6      1.482      2.093
REMARK  6 active torsions:
REMARK  status: ('A' for Active; 'I' for Inactive)
REMARK    1  A    between atoms: N_6  and  C_7 
REMARK    2  A    between atoms: C_7  and  C_8 
REMARK    3  A    between atoms: C_8  and  C_9 
REMARK    4  A    between atoms: C_9  and  O_10 
REMARK    5  A    between atoms: O_10  and  C_11 
REMARK    6  A    between atoms: C_14  and  C_17 
ROOT
HETATM    1  C   UNK N   1      30.076  16.242   4.196  0.00  0.00     0.068 A 
HETATM    2  C   UNK N   1      29.902  15.602   5.428  0.00  0.00     0.037 A 
HETATM    3  C   UNK N   1      30.818  15.810   6.466  0.00  0.00     0.016 A 
HETATM    4  C   UNK N   1      31.911  16.675   6.284  0.00  0.00    -0.008 A 
HETATM    5  C   UNK N   1      32.078  17.316   5.051  0.00  0.00     0.016 A 
HETATM    6  C   UNK N   1      31.176  17.096   4.015  0.00  0.00     0.037 A 
ENDROOT
BRANCH   1   7
HETATM    7  O   UNK N   1      29.179  16.024   3.201  0.00  0.00    -0.351 OA
BRANCH   7   8
HETATM    8  C   UNK N   1      27.826  16.284   3.313  0.00  0.00     0.177 C 
BRANCH   8   9
HETATM    9  C   UNK N   1      27.553  17.678   3.861  0.00  0.00     0.057 C 
BRANCH   9  10
HETATM   10  C   UNK N   1      26.630  17.548   5.062  0.00  0.00     0.275 C 
BRANCH  10  11
HETATM   11  N   UNK N   1      26.558  18.800   5.806  0.00  0.00     0.092 N 
HETATM   12  C   UNK N   1      26.044  19.851   4.935  0.00  0.00     0.273 C 
HETATM   13  C   UNK N   1      26.739  21.144   5.322  0.00  0.00     0.032 C 
HETATM   14  C   UNK N   1      27.849  20.729   6.259  0.00  0.00     0.037 C 
HETATM   15  C   UNK N   1      27.916  19.232   6.095  0.00  0.00     0.219 C 
HETATM   16  C   UNK N   1      28.441  18.584   7.363  0.00  0.00     0.043 C 
ENDBRANCH  10  11
ENDBRANCH   9  10
ENDBRANCH   8   9
ENDBRANCH   7   8
ENDBRANCH   1   7
BRANCH   4  17
HETATM   17  C   UNK N   1      32.883  16.924   7.366  0.00  0.00     0.058 A 
HETATM   18  C   UNK N   1      33.814  17.964   7.276  0.00  0.00     0.037 A 
HETATM   19  C   UNK N   1      34.714  18.168   8.319  0.00  0.00     0.078 A 
HETATM   20  C   UNK N   1      34.669  17.326   9.426  0.00  0.00     0.259 A 
HETATM   21  O   UNK N   1      35.447  17.483  10.348  0.00  0.00    -0.267 OA
HETATM   22  N   UNK N   1      33.743  16.319   9.473  0.00  0.00    -0.266 N 
HETATM   23  N   UNK N   1      32.878  16.131   8.475  0.00  0.00    -0.297 N 
HETATM   24  H   UNK N   1      33.715  15.724  10.256  0.00  0.00     0.190 HD
ATOM     25  HN  UNK N   1      32.197  15.374   8.541  1.00  0.00     0.187 HD
ENDBRANCH   4  17
TORSDOF 6
ENDMDL
MODEL 5
REMARK VINA RESULT:      -6.5     10.651     12.823
REMARK  6 active torsions:
REMARK  status: ('A' for Active; 'I' for Inactive)
REMARK    1  A    between atoms: N_6  and  C_7 
REMARK    2  A    between atoms: C_7  and  C_8 
REMARK    3  A    between atoms: C_8  and  C_9 
REMARK    4  A    between atoms: C_9  and  O_10 
REMARK    5  A    between atoms: O_10  and  C_11 
REMARK    6  A    between atoms: C_14  and  C_17 
ROOT
HETATM    1  C   UNK N   1      28.042  23.786  -3.115  0.00  0.00     0.068 A 
HETATM    2  C   UNK N   1      28.695  23.235  -2.007  0.00  0.00     0.037 A 
HETATM    3  C   UNK N   1      29.832  22.438  -2.184  0.00  0.00     0.016 A 
HETATM    4  C   UNK N   1      30.336  22.198  -3.473  0.00  0.00    -0.008 A 
HETATM    5  C   UNK N   1      29.681  22.756  -4.578  0.00  0.00     0.016 A 
HETATM    6  C   UNK N   1      28.541  23.534  -4.403  0.00  0.00     0.037 A 
ENDROOT
BRANCH   1   7
HETATM    7  O   UNK N   1      26.938  24.552  -2.922  0.00  0.00    -0.351 OA
BRANCH   7   8
HETATM    8  C   UNK N   1      26.405  25.391  -3.883  0.00  0.00     0.177 C 
BRANCH   8   9
HETATM    9  C   UNK N   1      26.748  26.851  -3.623  0.00  0.00     0.057 C 
BRANCH   9  10
HETATM   10  C   UNK N   1      25.637  27.714  -4.198  0.00  0.00     0.275 C 
BRANCH  10  11
HETATM   11  N   UNK N   1      26.170  28.711  -5.122  0.00  0.00     0.092 N 
HETATM   12  C   UNK N   1      26.969  28.043  -6.143  0.00  0.00     0.273 C 
HETATM   13  C   UNK N   1      28.121  28.966  -6.494  0.00  0.00     0.032 C 
HETATM   14  C   UNK N   1      28.089  30.054  -5.446  0.00  0.00     0.037 C 
HETATM   15  C   UNK N   1      27.141  29.517  -4.402  0.00  0.00     0.219 C 
HETATM   16  C   UNK N   1      26.469  30.658  -3.661  0.00  0.00     0.043 C 
ENDBRANCH  10  11
ENDBRANCH   9  10
ENDBRANCH   8   9
ENDBRANCH   7   8
ENDBRANCH   1   7
BRANCH   4  17
HETATM   17  C   UNK N   1      31.543  21.376  -3.687  0.00  0.00     0.058 A 
HETATM   18  C   UNK N   1      31.731  20.663  -4.876  0.00  0.00     0.037 A 
HETATM   19  C   UNK N   1      32.884  19.900  -5.040  0.00  0.00     0.078 A 
HETATM   20  C   UNK N   1      33.819  19.858  -4.012  0.00  0.00     0.259 A 
HETATM   21  O   UNK N   1      34.832  19.195  -4.131  0.00  0.00    -0.267 OA
HETATM   22  N   UNK N   1      33.595  20.568  -2.864  0.00  0.00    -0.266 N 
HETATM   23  N   UNK N   1      32.493  21.305  -2.713  0.00  0.00    -0.297 N 
HETATM   24  H   UNK N   1      34.258  20.536  -2.137  0.00  0.00     0.190 HD
ATOM     25  HN  UNK N   1      32.357  21.826  -1.846  1.00  0.00     0.187 HD
ENDBRANCH   4  17
TORSDOF 6
ENDMDL
MODEL 6
REMARK VINA RESULT:      -6.5      5.572      7.663
REMARK  6 active torsions:
REMARK  status: ('A' for Active; 'I' for Inactive)
REMARK    1  A    between atoms: N_6  and  C_7 
REMARK    2  A    between atoms: C_7  and  C_8 
REMARK    3  A    between atoms: C_8  and  C_9 
REMARK    4  A    between atoms: C_9  and  O_10 
REMARK    5  A    between atoms: O_10  and  C_11 
REMARK    6  A    between atoms: C_14  and  C_17 
ROOT
HETATM    1  C   UNK N   1      24.455  14.524   5.817  0.00  0.00     0.068 A 
HETATM    2  C   UNK N   1      23.121  14.410   6.223  0.00  0.00     0.037 A 
HETATM    3  C   UNK N   1      22.811  13.892   7.486  0.00  0.00     0.016 A 
HETATM    4  C   UNK N   1      23.837  13.495   8.361  0.00  0.00    -0.008 A 
HETATM    5  C   UNK N   1      25.170  13.616   7.950  0.00  0.00     0.016 A 
HETATM    6  C   UNK N   1      25.477  14.116   6.689  0.00  0.00     0.037 A 
ENDROOT
BRANCH   1   7
HETATM    7  O   UNK N   1      24.734  15.026   4.586  0.00  0.00    -0.351 OA
BRANCH   7   8
HETATM    8  C   UNK N   1      24.352  16.286   4.163  0.00  0.00     0.177 C 
BRANCH   8   9
HETATM    9  C   UNK N   1      25.233  17.380   4.749  0.00  0.00     0.057 C 
BRANCH   9  10
HETATM   10  C   UNK N   1      26.379  17.641   3.785  0.00  0.00     0.275 C 
BRANCH  10  11
HETATM   11  N   UNK N   1      27.146  18.815   4.186  0.00  0.00     0.092 N 
HETATM   12  C   UNK N   1      27.625  18.635   5.552  0.00  0.00     0.273 C 
HETATM   13  C   UNK N   1      27.611  19.997   6.222  0.00  0.00     0.032 C 
HETATM   14  C   UNK N   1      26.859  20.897   5.270  0.00  0.00     0.037 C 
HETATM   15  C   UNK N   1      26.229  19.937   4.293  0.00  0.00     0.219 C 
HETATM   16  C   UNK N   1      26.025  20.611   2.947  0.00  0.00     0.043 C 
ENDBRANCH  10  11
ENDBRANCH   9  10
ENDBRANCH   8   9
ENDBRANCH   7   8
ENDBRANCH   1   7
BRANCH   4  17
HETATM   17  C   UNK N   1      23.540  12.960   9.703  0.00  0.00     0.058 A 
HETATM   18  C   UNK N   1      22.226  12.684  10.097  0.00  0.00     0.037 A 
HETATM   19  C   UNK N   1      21.986  12.178  11.372  0.00  0.00     0.078 A 
HETATM   20  C   UNK N   1      23.062  11.967  12.229  0.00  0.00     0.259 A 
HETATM   21  O   UNK N   1      22.876  11.529  13.349  0.00  0.00    -0.267 OA
HETATM   22  N   UNK N   1      24.331  12.253  11.805  0.00  0.00    -0.266 N 
HETATM   23  N   UNK N   1      24.558  12.731  10.580  0.00  0.00    -0.297 N 
HETATM   24  H   UNK N   1      25.090  12.104  12.414  0.00  0.00     0.190 HD
ATOM     25  HN  UNK N   1      25.516  12.930  10.292  1.00  0.00     0.187 HD
ENDBRANCH   4  17
TORSDOF 6
ENDMDL
MODEL 7
REMARK VINA RESULT:      -6.5      2.537      7.702
REMARK  6 active torsions:
REMARK  status: ('A' for Active; 'I' for Inactive)
REMARK    1  A    between atoms: N_6  and  C_7 
REMARK    2  A    between atoms: C_7  and  C_8 
REMARK    3  A    between atoms: C_8  and  C_9 
REMARK    4  A    between atoms: C_9  and  O_10 
REMARK    5  A    between atoms: O_10  and  C_11 
REMARK    6  A    between atoms: C_14  and  C_17 
ROOT
HETATM    1  C   UNK N   1      30.621  16.815   7.660  0.00  0.00     0.068 A 
HETATM    2  C   UNK N   1      30.281  16.360   6.381  0.00  0.00     0.037 A 
HETATM    3  C   UNK N   1      29.239  16.969   5.671  0.00  0.00     0.016 A 
HETATM    4  C   UNK N   1      28.536  18.049   6.231  0.00  0.00    -0.008 A 
HETATM    5  C   UNK N   1      28.884  18.503   7.509  0.00  0.00     0.016 A 
HETATM    6  C   UNK N   1      29.908  17.888   8.220  0.00  0.00     0.037 A 
ENDROOT
BRANCH   1   7
HETATM    7  O   UNK N   1      31.632  16.209   8.334  0.00  0.00    -0.351 OA
BRANCH   7   8
HETATM    8  C   UNK N   1      32.813  16.838   8.681  0.00  0.00     0.177 C 
BRANCH   8   9
HETATM    9  C   UNK N   1      33.540  17.403   7.469  0.00  0.00     0.057 C 
BRANCH   9  10
HETATM   10  C   UNK N   1      34.230  16.256   6.747  0.00  0.00     0.275 C 
BRANCH  10  11
HETATM   11  N   UNK N   1      34.175  16.437   5.300  0.00  0.00     0.092 N 
HETATM   12  C   UNK N   1      33.351  17.601   4.991  0.00  0.00     0.273 C 
HETATM   13  C   UNK N   1      32.613  17.304   3.698  0.00  0.00     0.032 C 
HETATM   14  C   UNK N   1      32.849  15.835   3.437  0.00  0.00     0.037 C 
HETATM   15  C   UNK N   1      33.423  15.329   4.737  0.00  0.00     0.219 C 
HETATM   16  C   UNK N   1      34.318  14.128   4.487  0.00  0.00     0.043 C 
ENDBRANCH  10  11
ENDBRANCH   9  10
ENDBRANCH   8   9
ENDBRANCH   7   8
ENDBRANCH   1   7
BRANCH   4  17
HETATM   17  C   UNK N   1      27.444  18.719   5.498  0.00  0.00     0.058 A 
HETATM   18  C   UNK N   1      27.715  19.632   4.473  0.00  0.00     0.037 A 
HETATM   19  C   UNK N   1      26.656  20.242   3.804  0.00  0.00     0.078 A 
HETATM   20  C   UNK N   1      25.352  19.933   4.178  0.00  0.00     0.259 A 
HETATM   21  O   UNK N   1      24.412  20.457   3.610  0.00  0.00    -0.267 OA
HETATM   22  N   UNK N   1      25.132  19.036   5.187  0.00  0.00    -0.266 N 
HETATM   23  N   UNK N   1      26.148  18.448   5.821  0.00  0.00    -0.297 N 
HETATM   24  H   UNK N   1      24.208  18.821   5.450  0.00  0.00     0.190 HD
ATOM     25  HN  UNK N   1      25.951  17.781   6.567  1.00  0.00     0.187 HD
ENDBRANCH   4  17
TORSDOF 6
ENDMDL
MODEL 8
REMARK VINA RESULT:      -6.4     11.505     16.162
REMARK  6 active torsions:
REMARK  status: ('A' for Active; 'I' for Inactive)
REMARK    1  A    between atoms: N_6  and  C_7 
REMARK    2  A    between atoms: C_7  and  C_8 
REMARK    3  A    between atoms: C_8  and  C_9 
REMARK    4  A    between atoms: C_9  and  O_10 
REMARK    5  A    between atoms: O_10  and  C_11 
REMARK    6  A    between atoms: C_14  and  C_17 
ROOT
HETATM    1  C   UNK N   1      35.290  11.805  19.069  0.00  0.00     0.068 A 
HETATM    2  C   UNK N   1      35.145  13.173  18.811  0.00  0.00     0.037 A 
HETATM    3  C   UNK N   1      35.300  13.664  17.509  0.00  0.00     0.016 A 
HETATM    4  C   UNK N   1      35.588  12.786  16.450  0.00  0.00    -0.008 A 
HETATM    5  C   UNK N   1      35.726  11.418  16.714  0.00  0.00     0.016 A 
HETATM    6  C   UNK N   1      35.588  10.933  18.010  0.00  0.00     0.037 A 
ENDROOT
BRANCH   1   7
HETATM    7  O   UNK N   1      35.139  11.350  20.339  0.00  0.00    -0.351 OA
BRANCH   7   8
HETATM    8  C   UNK N   1      35.502  10.082  20.752  0.00  0.00     0.177 C 
BRANCH   8   9
HETATM    9  C   UNK N   1      34.646   9.586  21.908  0.00  0.00     0.057 C 
BRANCH   9  10
HETATM   10  C   UNK N   1      33.319  10.327  21.873  0.00  0.00     0.275 C 
BRANCH  10  11
HETATM   11  N   UNK N   1      32.216   9.446  22.246  0.00  0.00     0.092 N 
HETATM   12  C   UNK N   1      32.493   8.851  23.548  0.00  0.00     0.273 C 
HETATM   13  C   UNK N   1      31.928   7.443  23.535  0.00  0.00     0.032 C 
HETATM   14  C   UNK N   1      31.562   7.179  22.093  0.00  0.00     0.037 C 
HETATM   15  C   UNK N   1      32.225   8.307  21.343  0.00  0.00     0.219 C 
HETATM   16  C   UNK N   1      31.464   8.612  20.065  0.00  0.00     0.043 C 
ENDBRANCH  10  11
ENDBRANCH   9  10
ENDBRANCH   8   9
ENDBRANCH   7   8
ENDBRANCH   1   7
BRANCH   4  17
HETATM   17  C   UNK N   1      35.741  13.274  15.066  0.00  0.00     0.058 A 
HETATM   18  C   UNK N   1      35.041  12.684  14.009  0.00  0.00     0.037 A 
HETATM   19  C   UNK N   1      35.211  13.175  12.717  0.00  0.00     0.078 A 
HETATM   20  C   UNK N   1      36.082  14.239  12.507  0.00  0.00     0.259 A 
HETATM   21  O   UNK N   1      36.249  14.682  11.386  0.00  0.00    -0.267 OA
HETATM   22  N   UNK N   1      36.749  14.786  13.569  0.00  0.00    -0.266 N 
HETATM   23  N   UNK N   1      36.578  14.318  14.807  0.00  0.00    -0.297 N 
HETATM   24  H   UNK N   1      37.366  15.538  13.417  0.00  0.00     0.190 HD
ATOM     25  HN  UNK N   1      37.087  14.751  15.578  1.00  0.00     0.187 HD
ENDBRANCH   4  17
TORSDOF 6
ENDMDL
MODEL 9
REMARK VINA RESULT:      -6.4      2.222      9.076
REMARK  6 active torsions:
REMARK  status: ('A' for Active; 'I' for Inactive)
REMARK    1  A    between atoms: N_6  and  C_7 
REMARK    2  A    between atoms: C_7  and  C_8 
REMARK    3  A    between atoms: C_8  and  C_9 
REMARK    4  A    between atoms: C_9  and  O_10 
REMARK    5  A    between atoms: O_10  and  C_11 
REMARK    6  A    between atoms: C_14  and  C_17 
ROOT
HETATM    1  C   UNK N   1      30.149  17.404   7.145  0.00  0.00     0.068 A 
HETATM    2  C   UNK N   1      30.039  17.138   5.775  0.00  0.00     0.037 A 
HETATM    3  C   UNK N   1      28.962  17.652   5.042  0.00  0.00     0.016 A 
HETATM    4  C   UNK N   1      27.992  18.450   5.672  0.00  0.00    -0.008 A 
HETATM    5  C   UNK N   1      28.110  18.716   7.041  0.00  0.00     0.016 A 
HETATM    6  C   UNK N   1      29.171  18.193   7.772  0.00  0.00     0.037 A 
ENDROOT
BRANCH   1   7
HETATM    7  O   UNK N   1      31.198  16.894   7.838  0.00  0.00    -0.351 OA
BRANCH   7   8
HETATM    8  C   UNK N   1      32.145  17.668   8.483  0.00  0.00     0.177 C 
BRANCH   8   9
HETATM    9  C   UNK N   1      33.409  17.838   7.652  0.00  0.00     0.057 C 
BRANCH   9  10
HETATM   10  C   UNK N   1      34.400  16.760   8.060  0.00  0.00     0.275 C 
BRANCH  10  11
HETATM   11  N   UNK N   1      34.148  16.303   9.422  0.00  0.00     0.092 N 
HETATM   12  C   UNK N   1      35.170  16.847  10.310  0.00  0.00     0.273 C 
HETATM   13  C   UNK N   1      35.450  15.802  11.375  0.00  0.00     0.032 C 
HETATM   14  C   UNK N   1      34.744  14.554  10.898  0.00  0.00     0.037 C 
HETATM   15  C   UNK N   1      34.385  14.870   9.468  0.00  0.00     0.219 C 
HETATM   16  C   UNK N   1      33.149  14.094   9.049  0.00  0.00     0.043 C 
ENDBRANCH  10  11
ENDBRANCH   9  10
ENDBRANCH   8   9
ENDBRANCH   7   8
ENDBRANCH   1   7
BRANCH   4  17
HETATM   17  C   UNK N   1      26.856  19.016   4.920  0.00  0.00     0.058 A 
HETATM   18  C   UNK N   1      27.062  19.908   3.862  0.00  0.00     0.037 A 
HETATM   19  C   UNK N   1      25.963  20.420   3.176  0.00  0.00     0.078 A 
HETATM   20  C   UNK N   1      24.684  20.037   3.565  0.00  0.00     0.259 A 
HETATM   21  O   UNK N   1      23.709  20.474   2.983  0.00  0.00    -0.267 OA
HETATM   22  N   UNK N   1      24.527  19.164   4.608  0.00  0.00    -0.266 N 
HETATM   23  N   UNK N   1      25.582  18.670   5.258  0.00  0.00    -0.297 N 
HETATM   24  H   UNK N   1      23.620  18.897   4.883  0.00  0.00     0.190 HD
ATOM     25  HN  UNK N   1      25.432  18.018   6.029  1.00  0.00     0.187 HD
ENDBRANCH   4  17
TORSDOF 6
ENDMDL
