MODEL 1
REMARK VINA RESULT:      -8.9      0.000      0.000
REMARK  12 active torsions:
REMARK  status: ('A' for Active; 'I' for Inactive)
REMARK    1  A    between atoms: C_9  and  C_6 
REMARK    2  A    between atoms: C_17  and  C_6 
REMARK    3  A    between atoms: C_23  and  C_9 
REMARK    4  A    between atoms: C_22  and  C_13 
REMARK    5  A    between atoms: N_41  and  C_13 
REMARK    6  A    between atoms: N_41  and  C_16 
REMARK    7  A    between atoms: C_30  and  C_18 
REMARK    8  A    between atoms: C_19  and  N_41 
REMARK    9  A    between atoms: C_25  and  O_43 
REMARK   10  A    between atoms: C_26  and  O_44 
REMARK   11  A    between atoms: N_31  and  C_27 
REMARK   12  A    between atoms: C_29  and  N_42 
ROOT
HETATM    1  C   UNK N   1      31.989  17.324   8.706  0.00  0.00     0.307 C 
ENDROOT
BRANCH   1   2
HETATM    2  C   UNK N   1      30.798  18.258   8.464  0.00  0.00     0.183 C 
HETATM    3  C   UNK N   1      29.738  18.309   9.595  0.00  0.00     0.182 C 
HETATM    4  C   UNK N   1      28.466  18.327   8.759  0.00  0.00     0.198 C 
HETATM    5  C   UNK N   1      28.917  17.335   7.698  0.00  0.00     0.262 C 
HETATM    6  O   UNK N   1      30.159  17.832   7.286  0.00  0.00    -0.354 OA
BRANCH   3   7
HETATM    7  O   UNK N   1      29.776  17.138  10.366  0.00  0.00    -0.390 OA
HETATM    8  H   UNK N   1      29.326  16.419  10.836  0.00  0.00     0.210 HD
ENDBRANCH   3   7
BRANCH   4   9
HETATM    9  O   UNK N   1      27.343  17.907   9.477  0.00  0.00    -0.388 OA
HETATM   10  H   UNK N   1      26.396  17.713   9.546  0.00  0.00     0.210 HD
ENDBRANCH   4   9
BRANCH   5  11
HETATM   11  N   UNK N   1      28.099  17.110   6.514  0.00  0.00    -0.297 N 
HETATM   12  C   UNK N   1      28.444  17.616   5.301  0.00  0.00     0.188 A 
HETATM   13  N   UNK N   1      27.541  17.289   4.343  0.00  0.00    -0.346 N 
HETATM   14  C   UNK N   1      26.622  16.563   4.996  0.00  0.00     0.122 A 
ATOM     15  HN  UNK N   1      27.558  17.538   3.354  1.00  0.00     0.167 HD
HETATM   16  C   UNK N   1      25.474  15.973   4.513  0.00  0.00     0.131 A 
HETATM   17  C   UNK N   1      26.954  16.451   6.300  0.00  0.00     0.142 A 
HETATM   18  N   UNK N   1      24.695  15.281   5.393  0.00  0.00    -0.337 N 
HETATM   19  C   UNK N   1      25.048  15.176   6.720  0.00  0.00     0.183 A 
ATOM     20  HN  UNK N   1      23.838  14.833   5.064  1.00  0.00     0.168 HD
HETATM   21  N   UNK N   1      26.192  15.769   7.186  0.00  0.00    -0.336 N 
ATOM     22  HN  UNK N   1      26.462  15.698   8.167  1.00  0.00     0.168 HD
BRANCH  16  23
HETATM   23  N   UNK N   1      25.113  16.084   3.155  0.00  0.00    -0.383 N 
HETATM   24  H   UNK N   1      25.530  15.506   2.475  0.00  0.00     0.157 HD
HETATM   25  H   UNK N   1      24.437  16.746   2.882  0.00  0.00     0.157 HD
ENDBRANCH  16  23
ENDBRANCH   5  11
ENDBRANCH   1   2
BRANCH   1  26
HETATM   26  N   UNK N   1      32.362  16.562   7.489  0.00  0.00     0.099 N 
BRANCH  26  27
HETATM   27  C   UNK N   1      33.619  17.082   6.914  0.00  0.00     0.215 C 
HETATM   28  C   UNK N   1      34.209  18.194   7.766  0.00  0.00     0.042 C 
HETATM   29  C   UNK N   1      33.504  17.505   5.457  0.00  0.00     0.042 C 
ENDBRANCH  26  27
BRANCH  26  30
HETATM   30  C   UNK N   1      32.392  15.092   7.677  0.00  0.00     0.224 C 
HETATM   31  C   UNK N   1      33.789  14.497   7.639  0.00  0.00     0.040 C 
HETATM   32  C   UNK N   1      33.709  14.274   9.144  0.00  0.00    -0.010 C 
HETATM   33  C   UNK N   1      32.261  14.712   9.141  0.00  0.00     0.040 C 
BRANCH  32  34
HETATM   34  C   UNK N   1      34.534  15.282   9.963  0.00  0.00     0.012 C 
BRANCH  34  35
HETATM   35  C   UNK N   1      35.984  14.852  10.156  0.00  0.00     0.077 C 
BRANCH  35  36
HETATM   36  C   UNK N   1      36.146  14.302  11.518  0.00  0.00     0.082 A 
HETATM   37  N   UNK N   1      36.550  15.039  12.581  0.00  0.00    -0.344 N 
HETATM   38  C   UNK N   1      36.415  14.199  13.614  0.00  0.00     0.060 A 
ATOM     39  HN  UNK N   1      36.879  16.005  12.593  1.00  0.00     0.167 HD
HETATM   40  C   UNK N   1      36.678  14.443  14.954  0.00  0.00     0.032 A 
HETATM   41  C   UNK N   1      35.933  13.006  13.176  0.00  0.00     0.061 A 
HETATM   42  C   UNK N   1      36.419  13.400  15.862  0.00  0.00     0.010 A 
HETATM   43  C   UNK N   1      35.899  12.152  15.415  0.00  0.00    -0.048 A 
HETATM   44  C   UNK N   1      35.655  11.956  14.035  0.00  0.00     0.039 A 
HETATM   45  N   UNK N   1      35.757  13.048  11.851  0.00  0.00    -0.344 N 
HETATM   46  H   UNK N   1      35.422  12.336  11.260  0.00  0.00     0.167 HD
BRANCH  43  47
HETATM   47  C   UNK N   1      35.610  11.056  16.418  0.00  0.00    -0.024 C 
HETATM   48  C   UNK N   1      34.420  10.236  15.954  0.00  0.00     0.019 C 
HETATM   49  C   UNK N   1      35.287  11.674  17.765  0.00  0.00     0.019 C 
HETATM   50  C   UNK N   1      36.784  10.105  16.608  0.00  0.00     0.019 C 
ENDBRANCH  43  47
ENDBRANCH  35  36
ENDBRANCH  34  35
ENDBRANCH  32  34
ENDBRANCH  26  30
ENDBRANCH   1  26
TORSDOF 12
ENDMDL
MODEL 2
REMARK VINA RESULT:      -8.5      5.908      9.768
REMARK  12 active torsions:
REMARK  status: ('A' for Active; 'I' for Inactive)
REMARK    1  A    between atoms: C_9  and  C_6 
REMARK    2  A    between atoms: C_17  and  C_6 
REMARK    3  A    between atoms: C_23  and  C_9 
REMARK    4  A    between atoms: C_22  and  C_13 
REMARK    5  A    between atoms: N_41  and  C_13 
REMARK    6  A    between atoms: N_41  and  C_16 
REMARK    7  A    between atoms: C_30  and  C_18 
REMARK    8  A    between atoms: C_19  and  N_41 
REMARK    9  A    between atoms: C_25  and  O_43 
REMARK   10  A    between atoms: C_26  and  O_44 
REMARK   11  A    between atoms: N_31  and  C_27 
REMARK   12  A    between atoms: C_29  and  N_42 
ROOT
HETATM    1  C   UNK N   1      22.594  14.291   6.154  0.00  0.00     0.307 C 
ENDROOT
BRANCH   1   2
HETATM    2  C   UNK N   1      21.675  15.477   6.471  0.00  0.00     0.183 C 
HETATM    3  C   UNK N   1      20.199  15.122   6.789  0.00  0.00     0.182 C 
HETATM    4  C   UNK N   1      19.495  16.240   6.034  0.00  0.00     0.198 C 
HETATM    5  C   UNK N   1      20.399  16.251   4.812  0.00  0.00     0.262 C 
HETATM    6  O   UNK N   1      21.687  16.332   5.355  0.00  0.00    -0.354 OA
BRANCH   3   7
HETATM    7  O   UNK N   1      19.853  13.885   6.226  0.00  0.00    -0.390 OA
HETATM    8  H   UNK N   1      19.772  13.297   5.459  0.00  0.00     0.210 HD
ENDBRANCH   3   7
BRANCH   4   9
HETATM    9  O   UNK N   1      18.162  15.936   5.742  0.00  0.00    -0.388 OA
HETATM   10  H   UNK N   1      17.456  15.695   5.122  0.00  0.00     0.210 HD
ENDBRANCH   4   9
BRANCH   5  11
HETATM   11  N   UNK N   1      20.260  17.297   3.809  0.00  0.00    -0.297 N 
HETATM   12  C   UNK N   1      19.169  17.371   3.002  0.00  0.00     0.188 A 
HETATM   13  N   UNK N   1      19.249  18.416   2.141  0.00  0.00    -0.346 N 
HETATM   14  C   UNK N   1      20.423  18.992   2.435  0.00  0.00     0.122 A 
ATOM     15  HN  UNK N   1      18.570  18.698   1.433  1.00  0.00     0.167 HD
HETATM   16  C   UNK N   1      21.019  20.097   1.867  0.00  0.00     0.131 A 
HETATM   17  C   UNK N   1      21.034  18.324   3.437  0.00  0.00     0.142 A 
HETATM   18  N   UNK N   1      22.234  20.485   2.350  0.00  0.00    -0.337 N 
HETATM   19  C   UNK N   1      22.842  19.794   3.373  0.00  0.00     0.183 A 
ATOM     20  HN  UNK N   1      22.699  21.301   1.948  1.00  0.00     0.168 HD
HETATM   21  N   UNK N   1      22.239  18.695   3.928  0.00  0.00    -0.336 N 
ATOM     22  HN  UNK N   1      22.682  18.175   4.685  1.00  0.00     0.168 HD
BRANCH  16  23
HETATM   23  N   UNK N   1      20.395  20.802   0.817  0.00  0.00    -0.383 N 
HETATM   24  H   UNK N   1      20.906  21.442   0.269  0.00  0.00     0.157 HD
HETATM   25  H   UNK N   1      19.440  20.656   0.631  0.00  0.00     0.157 HD
ENDBRANCH  16  23
ENDBRANCH   5  11
ENDBRANCH   1   2
BRANCH   1  26
HETATM   26  N   UNK N   1      23.615  14.074   7.209  0.00  0.00     0.099 N 
BRANCH  26  27
HETATM   27  C   UNK N   1      23.151  13.062   8.180  0.00  0.00     0.215 C 
HETATM   28  C   UNK N   1      23.979  13.086   9.455  0.00  0.00     0.042 C 
HETATM   29  C   UNK N   1      23.057  11.655   7.610  0.00  0.00     0.042 C 
ENDBRANCH  26  27
BRANCH  26  30
HETATM   30  C   UNK N   1      24.972  13.781   6.692  0.00  0.00     0.224 C 
HETATM   31  C   UNK N   1      25.137  14.065   5.208  0.00  0.00     0.040 C 
HETATM   32  C   UNK N   1      25.982  15.283   5.560  0.00  0.00    -0.010 C 
HETATM   33  C   UNK N   1      25.950  14.895   7.023  0.00  0.00     0.040 C 
BRANCH  32  34
HETATM   34  C   UNK N   1      25.244  16.620   5.382  0.00  0.00     0.012 C 
BRANCH  34  35
HETATM   35  C   UNK N   1      26.102  17.696   4.728  0.00  0.00     0.077 C 
BRANCH  35  36
HETATM   36  C   UNK N   1      27.386  17.796   5.453  0.00  0.00     0.082 A 
HETATM   37  N   UNK N   1      27.482  18.126   6.765  0.00  0.00    -0.344 N 
HETATM   38  C   UNK N   1      28.781  17.953   7.036  0.00  0.00     0.060 A 
ATOM     39  HN  UNK N   1      26.741  18.434   7.395  1.00  0.00     0.167 HD
HETATM   40  C   UNK N   1      29.433  18.138   8.247  0.00  0.00     0.032 A 
HETATM   41  C   UNK N   1      29.429  17.520   5.923  0.00  0.00     0.061 A 
HETATM   42  C   UNK N   1      30.810  17.852   8.288  0.00  0.00     0.010 A 
HETATM   43  C   UNK N   1      31.495  17.383   7.131  0.00  0.00    -0.048 A 
HETATM   44  C   UNK N   1      30.781  17.218   5.921  0.00  0.00     0.039 A 
HETATM   45  N   UNK N   1      28.566  17.415   4.908  0.00  0.00    -0.344 N 
HETATM   46  H   UNK N   1      28.746  17.127   3.985  0.00  0.00     0.167 HD
BRANCH  43  47
HETATM   47  C   UNK N   1      32.972  17.062   7.212  0.00  0.00    -0.024 C 
HETATM   48  C   UNK N   1      33.161  15.608   7.604  0.00  0.00     0.019 C 
HETATM   49  C   UNK N   1      33.626  17.943   8.259  0.00  0.00     0.019 C 
HETATM   50  C   UNK N   1      33.698  17.285   5.892  0.00  0.00     0.019 C 
ENDBRANCH  43  47
ENDBRANCH  35  36
ENDBRANCH  34  35
ENDBRANCH  32  34
ENDBRANCH  26  30
ENDBRANCH   1  26
TORSDOF 12
ENDMDL
MODEL 3
REMARK VINA RESULT:      -8.5      5.924      9.668
REMARK  12 active torsions:
REMARK  status: ('A' for Active; 'I' for Inactive)
REMARK    1  A    between atoms: C_9  and  C_6 
REMARK    2  A    between atoms: C_17  and  C_6 
REMARK    3  A    between atoms: C_23  and  C_9 
REMARK    4  A    between atoms: C_22  and  C_13 
REMARK    5  A    between atoms: N_41  and  C_13 
REMARK    6  A    between atoms: N_41  and  C_16 
REMARK    7  A    between atoms: C_30  and  C_18 
REMARK    8  A    between atoms: C_19  and  N_41 
REMARK    9  A    between atoms: C_25  and  O_43 
REMARK   10  A    between atoms: C_26  and  O_44 
REMARK   11  A    between atoms: N_31  and  C_27 
REMARK   12  A    between atoms: C_29  and  N_42 
ROOT
HETATM    1  C   UNK N   1      22.099  13.307   8.307  0.00  0.00     0.307 C 
ENDROOT
BRANCH   1   2
HETATM    2  C   UNK N   1      21.803  14.810   8.340  0.00  0.00     0.183 C 
HETATM    3  C   UNK N   1      20.519  15.231   9.102  0.00  0.00     0.182 C 
HETATM    4  C   UNK N   1      19.994  16.301   8.156  0.00  0.00     0.198 C 
HETATM    5  C   UNK N   1      20.335  15.594   6.854  0.00  0.00     0.262 C 
HETATM    6  O   UNK N   1      21.682  15.247   7.008  0.00  0.00    -0.354 OA
BRANCH   3   7
HETATM    7  O   UNK N   1      19.606  14.168   9.162  0.00  0.00    -0.390 OA
HETATM    8  H   UNK N   1      18.810  13.757   9.532  0.00  0.00     0.210 HD
ENDBRANCH   3   7
BRANCH   4   9
HETATM    9  O   UNK N   1      18.627  16.542   8.321  0.00  0.00    -0.388 OA
HETATM   10  H   UNK N   1      17.887  17.053   8.683  0.00  0.00     0.210 HD
ENDBRANCH   4   9
BRANCH   5  11
HETATM   11  N   UNK N   1      20.185  16.290   5.583  0.00  0.00    -0.297 N 
HETATM   12  C   UNK N   1      19.124  16.064   4.765  0.00  0.00     0.188 A 
HETATM   13  N   UNK N   1      19.188  16.813   3.637  0.00  0.00    -0.346 N 
HETATM   14  C   UNK N   1      20.322  17.515   3.776  0.00  0.00     0.122 A 
ATOM     15  HN  UNK N   1      18.525  16.837   2.862  1.00  0.00     0.167 HD
HETATM   16  C   UNK N   1      20.886  18.437   2.921  0.00  0.00     0.131 A 
HETATM   17  C   UNK N   1      20.924  17.206   4.944  0.00  0.00     0.142 A 
HETATM   18  N   UNK N   1      22.063  19.018   3.296  0.00  0.00    -0.337 N 
HETATM   19  C   UNK N   1      22.663  18.691   4.492  0.00  0.00     0.183 A 
ATOM     20  HN  UNK N   1      22.504  19.704   2.683  1.00  0.00     0.168 HD
HETATM   21  N   UNK N   1      22.091  17.771   5.331  0.00  0.00    -0.336 N 
ATOM     22  HN  UNK N   1      22.528  17.522   6.218  1.00  0.00     0.168 HD
BRANCH  16  23
HETATM   23  N   UNK N   1      20.272  18.768   1.696  0.00  0.00    -0.383 N 
HETATM   24  H   UNK N   1      19.775  18.089   1.184  0.00  0.00     0.157 HD
HETATM   25  H   UNK N   1      20.340  19.686   1.349  0.00  0.00     0.157 HD
ENDBRANCH  16  23
ENDBRANCH   5  11
ENDBRANCH   1   2
BRANCH   1  26
HETATM   26  N   UNK N   1      23.551  13.017   8.410  0.00  0.00     0.099 N 
BRANCH  26  27
HETATM   27  C   UNK N   1      23.825  12.139   9.566  0.00  0.00     0.215 C 
HETATM   28  C   UNK N   1      22.548  11.765  10.302  0.00  0.00     0.042 C 
HETATM   29  C   UNK N   1      24.874  12.686  10.523  0.00  0.00     0.042 C 
ENDBRANCH  26  27
BRANCH  26  30
HETATM   30  C   UNK N   1      24.161  12.511   7.158  0.00  0.00     0.224 C 
HETATM   31  C   UNK N   1      23.657  13.207   5.905  0.00  0.00     0.040 C 
HETATM   32  C   UNK N   1      25.000  13.916   5.788  0.00  0.00    -0.010 C 
HETATM   33  C   UNK N   1      25.545  13.093   6.935  0.00  0.00     0.040 C 
BRANCH  32  34
HETATM   34  C   UNK N   1      24.958  15.394   6.209  0.00  0.00     0.012 C 
BRANCH  34  35
HETATM   35  C   UNK N   1      25.694  16.314   5.242  0.00  0.00     0.077 C 
BRANCH  35  36
HETATM   36  C   UNK N   1      26.986  16.710   5.841  0.00  0.00     0.082 A 
HETATM   37  N   UNK N   1      27.107  17.222   7.090  0.00  0.00    -0.344 N 
HETATM   38  C   UNK N   1      28.432  17.292   7.272  0.00  0.00     0.060 A 
ATOM     39  HN  UNK N   1      26.366  17.491   7.738  1.00  0.00     0.167 HD
HETATM   40  C   UNK N   1      29.117  17.737   8.393  0.00  0.00     0.032 A 
HETATM   41  C   UNK N   1      29.072  16.822   6.170  0.00  0.00     0.061 A 
HETATM   42  C   UNK N   1      30.522  17.678   8.353  0.00  0.00     0.010 A 
HETATM   43  C   UNK N   1      31.203  17.173   7.209  0.00  0.00    -0.048 A 
HETATM   44  C   UNK N   1      30.452  16.738   6.091  0.00  0.00     0.039 A 
HETATM   45  N   UNK N   1      28.176  16.449   5.250  0.00  0.00    -0.344 N 
HETATM   46  H   UNK N   1      28.344  16.073   4.356  0.00  0.00     0.167 HD
BRANCH  43  47
HETATM   47  C   UNK N   1      32.715  17.101   7.205  0.00  0.00    -0.024 C 
HETATM   48  C   UNK N   1      33.162  15.671   7.447  0.00  0.00     0.019 C 
HETATM   49  C   UNK N   1      33.267  17.982   8.309  0.00  0.00     0.019 C 
HETATM   50  C   UNK N   1      33.324  17.562   5.888  0.00  0.00     0.019 C 
ENDBRANCH  43  47
ENDBRANCH  35  36
ENDBRANCH  34  35
ENDBRANCH  32  34
ENDBRANCH  26  30
ENDBRANCH   1  26
TORSDOF 12
ENDMDL
MODEL 4
REMARK VINA RESULT:      -8.3      3.092      5.218
REMARK  12 active torsions:
REMARK  status: ('A' for Active; 'I' for Inactive)
REMARK    1  A    between atoms: C_9  and  C_6 
REMARK    2  A    between atoms: C_17  and  C_6 
REMARK    3  A    between atoms: C_23  and  C_9 
REMARK    4  A    between atoms: C_22  and  C_13 
REMARK    5  A    between atoms: N_41  and  C_13 
REMARK    6  A    between atoms: N_41  and  C_16 
REMARK    7  A    between atoms: C_30  and  C_18 
REMARK    8  A    between atoms: C_19  and  N_41 
REMARK    9  A    between atoms: C_25  and  O_43 
REMARK   10  A    between atoms: C_26  and  O_44 
REMARK   11  A    between atoms: N_31  and  C_27 
REMARK   12  A    between atoms: C_29  and  N_42 
ROOT
HETATM    1  C   UNK N   1      27.795  18.703   6.667  0.00  0.00     0.307 C 
ENDROOT
BRANCH   1   2
HETATM    2  C   UNK N   1      27.373  18.424   5.220  0.00  0.00     0.183 C 
HETATM    3  C   UNK N   1      27.467  19.625   4.244  0.00  0.00     0.182 C 
HETATM    4  C   UNK N   1      26.177  19.425   3.460  0.00  0.00     0.198 C 
HETATM    5  C   UNK N   1      25.302  19.007   4.631  0.00  0.00     0.262 C 
HETATM    6  O   UNK N   1      26.036  17.987   5.247  0.00  0.00    -0.354 OA
BRANCH   3   7
HETATM    7  O   UNK N   1      27.409  20.839   4.942  0.00  0.00    -0.390 OA
HETATM    8  H   UNK N   1      27.721  21.745   5.092  0.00  0.00     0.210 HD
ENDBRANCH   3   7
BRANCH   4   9
HETATM    9  O   UNK N   1      25.746  20.594   2.827  0.00  0.00    -0.388 OA
HETATM   10  H   UNK N   1      25.759  21.556   2.707  0.00  0.00     0.210 HD
ENDBRANCH   4   9
BRANCH   5  11
HETATM   11  N   UNK N   1      23.950  18.519   4.394  0.00  0.00    -0.297 N 
HETATM   12  C   UNK N   1      23.535  17.312   4.862  0.00  0.00     0.188 A 
HETATM   13  N   UNK N   1      22.247  17.057   4.524  0.00  0.00    -0.346 N 
HETATM   14  C   UNK N   1      21.871  18.141   3.830  0.00  0.00     0.122 A 
ATOM     15  HN  UNK N   1      21.692  16.230   4.746  1.00  0.00     0.167 HD
HETATM   16  C   UNK N   1      20.657  18.420   3.240  0.00  0.00     0.131 A 
HETATM   17  C   UNK N   1      22.890  19.023   3.750  0.00  0.00     0.142 A 
HETATM   18  N   UNK N   1      20.527  19.608   2.580  0.00  0.00    -0.337 N 
HETATM   19  C   UNK N   1      21.577  20.496   2.510  0.00  0.00     0.183 A 
ATOM     20  HN  UNK N   1      19.640  19.842   2.133  1.00  0.00     0.168 HD
HETATM   21  N   UNK N   1      22.779  20.204   3.100  0.00  0.00    -0.336 N 
ATOM     22  HN  UNK N   1      23.563  20.855   3.053  1.00  0.00     0.168 HD
BRANCH  16  23
HETATM   23  N   UNK N   1      19.585  17.509   3.311  0.00  0.00    -0.383 N 
HETATM   24  H   UNK N   1      19.044  17.305   2.513  0.00  0.00     0.157 HD
HETATM   25  H   UNK N   1      19.372  17.071   4.167  0.00  0.00     0.157 HD
ENDBRANCH  16  23
ENDBRANCH   5  11
ENDBRANCH   1   2
BRANCH   1  26
HETATM   26  N   UNK N   1      29.149  18.176   6.969  0.00  0.00     0.099 N 
BRANCH  26  27
HETATM   27  C   UNK N   1      29.235  17.739   8.377  0.00  0.00     0.215 C 
HETATM   28  C   UNK N   1      27.861  17.448   8.960  0.00  0.00     0.042 C 
HETATM   29  C   UNK N   1      30.025  18.684   9.271  0.00  0.00     0.042 C 
ENDBRANCH  26  27
BRANCH  26  30
HETATM   30  C   UNK N   1      29.622  17.137   6.024  0.00  0.00     0.224 C 
HETATM   31  C   UNK N   1      30.785  17.582   5.154  0.00  0.00     0.040 C 
HETATM   32  C   UNK N   1      31.707  16.679   5.966  0.00  0.00    -0.010 C 
HETATM   33  C   UNK N   1      30.516  16.120   6.713  0.00  0.00     0.040 C 
BRANCH  32  34
HETATM   34  C   UNK N   1      32.604  17.441   6.956  0.00  0.00     0.012 C 
BRANCH  34  35
HETATM   35  C   UNK N   1      34.043  16.938   6.969  0.00  0.00     0.077 C 
BRANCH  35  36
HETATM   36  C   UNK N   1      34.202  15.960   8.066  0.00  0.00     0.082 A 
HETATM   37  N   UNK N   1      34.011  14.627   7.914  0.00  0.00    -0.344 N 
HETATM   38  C   UNK N   1      34.399  14.120   9.090  0.00  0.00     0.060 A 
ATOM     39  HN  UNK N   1      33.655  14.128   7.098  1.00  0.00     0.167 HD
HETATM   40  C   UNK N   1      34.424  12.788   9.480  0.00  0.00     0.032 A 
HETATM   41  C   UNK N   1      34.820  15.121   9.906  0.00  0.00     0.061 A 
HETATM   42  C   UNK N   1      34.915  12.503  10.768  0.00  0.00     0.010 A 
HETATM   43  C   UNK N   1      35.373  13.545  11.624  0.00  0.00    -0.048 A 
HETATM   44  C   UNK N   1      35.318  14.886  11.176  0.00  0.00     0.039 A 
HETATM   45  N   UNK N   1      34.703  16.296   9.278  0.00  0.00    -0.344 N 
HETATM   46  H   UNK N   1      34.928  17.192   9.618  0.00  0.00     0.167 HD
BRANCH  43  47
HETATM   47  C   UNK N   1      35.915  13.204  12.996  0.00  0.00    -0.024 C 
HETATM   48  C   UNK N   1      36.367  14.472  13.698  0.00  0.00     0.019 C 
HETATM   49  C   UNK N   1      37.102  12.270  12.855  0.00  0.00     0.019 C 
HETATM   50  C   UNK N   1      34.884  12.523  13.886  0.00  0.00     0.019 C 
ENDBRANCH  43  47
ENDBRANCH  35  36
ENDBRANCH  34  35
ENDBRANCH  32  34
ENDBRANCH  26  30
ENDBRANCH   1  26
TORSDOF 12
ENDMDL
MODEL 5
REMARK VINA RESULT:      -8.2      6.111     10.859
REMARK  12 active torsions:
REMARK  status: ('A' for Active; 'I' for Inactive)
REMARK    1  A    between atoms: C_9  and  C_6 
REMARK    2  A    between atoms: C_17  and  C_6 
REMARK    3  A    between atoms: C_23  and  C_9 
REMARK    4  A    between atoms: C_22  and  C_13 
REMARK    5  A    between atoms: N_41  and  C_13 
REMARK    6  A    between atoms: N_41  and  C_16 
REMARK    7  A    between atoms: C_30  and  C_18 
REMARK    8  A    between atoms: C_19  and  N_41 
REMARK    9  A    between atoms: C_25  and  O_43 
REMARK   10  A    between atoms: C_26  and  O_44 
REMARK   11  A    between atoms: N_31  and  C_27 
REMARK   12  A    between atoms: C_29  and  N_42 
ROOT
HETATM    1  C   UNK N   1      20.443  16.298   4.849  0.00  0.00     0.307 C 
ENDROOT
BRANCH   1   2
HETATM    2  C   UNK N   1      21.166  14.950   4.746  0.00  0.00     0.183 C 
HETATM    3  C   UNK N   1      20.256  13.694   4.734  0.00  0.00     0.182 C 
HETATM    4  C   UNK N   1      21.069  12.775   5.635  0.00  0.00     0.198 C 
HETATM    5  C   UNK N   1      21.503  13.826   6.644  0.00  0.00     0.262 C 
HETATM    6  O   UNK N   1      22.032  14.850   5.849  0.00  0.00    -0.354 OA
BRANCH   3   7
HETATM    7  O   UNK N   1      19.020  13.969   5.337  0.00  0.00    -0.390 OA
HETATM    8  H   UNK N   1      18.109  13.717   5.554  0.00  0.00     0.210 HD
ENDBRANCH   3   7
BRANCH   4   9
HETATM    9  O   UNK N   1      20.300  11.748   6.190  0.00  0.00    -0.388 OA
HETATM   10  H   UNK N   1      19.461  11.390   6.518  0.00  0.00     0.210 HD
ENDBRANCH   4   9
BRANCH   5  11
HETATM   11  N   UNK N   1      22.480  13.493   7.671  0.00  0.00    -0.297 N 
HETATM   12  C   UNK N   1      23.816  13.624   7.456  0.00  0.00     0.188 A 
HETATM   13  N   UNK N   1      24.540  13.254   8.541  0.00  0.00    -0.346 N 
HETATM   14  C   UNK N   1      23.616  12.889   9.441  0.00  0.00     0.122 A 
ATOM     15  HN  UNK N   1      25.555  13.255   8.648  1.00  0.00     0.167 HD
HETATM   16  C   UNK N   1      23.787  12.421  10.726  0.00  0.00     0.131 A 
HETATM   17  C   UNK N   1      22.376  13.031   8.923  0.00  0.00     0.142 A 
HETATM   18  N   UNK N   1      22.670  12.112  11.446  0.00  0.00    -0.337 N 
HETATM   19  C   UNK N   1      21.414  12.264  10.903  0.00  0.00     0.183 A 
ATOM     20  HN  UNK N   1      22.766  11.763  12.400  1.00  0.00     0.168 HD
HETATM   21  N   UNK N   1      21.259  12.729   9.623  0.00  0.00    -0.336 N 
ATOM     22  HN  UNK N   1      20.332  12.844   9.211  1.00  0.00     0.168 HD
BRANCH  16  23
HETATM   23  N   UNK N   1      25.074  12.263  11.279  0.00  0.00    -0.383 N 
HETATM   24  H   UNK N   1      25.242  11.589  11.976  0.00  0.00     0.157 HD
HETATM   25  H   UNK N   1      25.813  12.833  10.965  0.00  0.00     0.157 HD
ENDBRANCH  16  23
ENDBRANCH   5  11
ENDBRANCH   1   2
BRANCH   1  26
HETATM   26  N   UNK N   1      20.903  17.262   3.819  0.00  0.00     0.099 N 
BRANCH  26  27
HETATM   27  C   UNK N   1      19.842  17.501   2.819  0.00  0.00     0.215 C 
HETATM   28  C   UNK N   1      20.241  16.989   1.444  0.00  0.00     0.042 C 
HETATM   29  C   UNK N   1      19.367  18.944   2.754  0.00  0.00     0.042 C 
ENDBRANCH  26  27
BRANCH  26  30
HETATM   30  C   UNK N   1      21.456  18.522   4.369  0.00  0.00     0.224 C 
HETATM   31  C   UNK N   1      22.391  18.319   5.549  0.00  0.00     0.040 C 
HETATM   32  C   UNK N   1      23.567  18.679   4.648  0.00  0.00    -0.010 C 
HETATM   33  C   UNK N   1      22.612  19.039   3.531  0.00  0.00     0.040 C 
BRANCH  32  34
HETATM   34  C   UNK N   1      24.407  17.466   4.215  0.00  0.00     0.012 C 
BRANCH  34  35
HETATM   35  C   UNK N   1      25.707  17.856   3.520  0.00  0.00     0.077 C 
BRANCH  35  36
HETATM   36  C   UNK N   1      26.808  17.827   4.505  0.00  0.00     0.082 A 
HETATM   37  N   UNK N   1      26.612  17.774   5.846  0.00  0.00    -0.344 N 
HETATM   38  C   UNK N   1      27.848  17.614   6.336  0.00  0.00     0.060 A 
ATOM     39  HN  UNK N   1      25.734  17.840   6.360  1.00  0.00     0.167 HD
HETATM   40  C   UNK N   1      28.230  17.487   7.663  0.00  0.00     0.032 A 
HETATM   41  C   UNK N   1      28.743  17.560   5.315  0.00  0.00     0.061 A 
HETATM   42  C   UNK N   1      29.599  17.291   7.923  0.00  0.00     0.010 A 
HETATM   43  C   UNK N   1      30.543  17.217   6.859  0.00  0.00    -0.048 A 
HETATM   44  C   UNK N   1      30.097  17.360   5.524  0.00  0.00     0.039 A 
HETATM   45  N   UNK N   1      28.107  17.694   4.147  0.00  0.00    -0.344 N 
HETATM   46  H   UNK N   1      28.493  17.695   3.242  0.00  0.00     0.167 HD
BRANCH  43  47
HETATM   47  C   UNK N   1      32.007  16.983   7.169  0.00  0.00    -0.024 C 
HETATM   48  C   UNK N   1      32.841  17.236   5.927  0.00  0.00     0.019 C 
HETATM   49  C   UNK N   1      32.208  15.547   7.613  0.00  0.00     0.019 C 
HETATM   50  C   UNK N   1      32.529  17.893   8.273  0.00  0.00     0.019 C 
ENDBRANCH  43  47
ENDBRANCH  35  36
ENDBRANCH  34  35
ENDBRANCH  32  34
ENDBRANCH  26  30
ENDBRANCH   1  26
TORSDOF 12
ENDMDL
MODEL 6
REMARK VINA RESULT:      -8.1      1.950      3.080
REMARK  12 active torsions:
REMARK  status: ('A' for Active; 'I' for Inactive)
REMARK    1  A    between atoms: C_9  and  C_6 
REMARK    2  A    between atoms: C_17  and  C_6 
REMARK    3  A    between atoms: C_23  and  C_9 
REMARK    4  A    between atoms: C_22  and  C_13 
REMARK    5  A    between atoms: N_41  and  C_13 
REMARK    6  A    between atoms: N_41  and  C_16 
REMARK    7  A    between atoms: C_30  and  C_18 
REMARK    8  A    between atoms: C_19  and  N_41 
REMARK    9  A    between atoms: C_25  and  O_43 
REMARK   10  A    between atoms: C_26  and  O_44 
REMARK   11  A    between atoms: N_31  and  C_27 
REMARK   12  A    between atoms: C_29  and  N_42 
ROOT
HETATM    1  C   UNK N   1      32.507  17.174   5.992  0.00  0.00     0.307 C 
ENDROOT
BRANCH   1   2
HETATM    2  C   UNK N   1      31.471  16.178   5.459  0.00  0.00     0.183 C 
HETATM    3  C   UNK N   1      31.479  15.949   3.925  0.00  0.00     0.182 C 
HETATM    4  C   UNK N   1      29.981  15.908   3.660  0.00  0.00     0.198 C 
HETATM    5  C   UNK N   1      29.583  17.019   4.618  0.00  0.00     0.262 C 
HETATM    6  O   UNK N   1      30.199  16.655   5.822  0.00  0.00    -0.354 OA
BRANCH   3   7
HETATM    7  O   UNK N   1      32.044  17.048   3.261  0.00  0.00    -0.390 OA
HETATM    8  H   UNK N   1      32.558  17.870   3.272  0.00  0.00     0.210 HD
ENDBRANCH   3   7
BRANCH   4   9
HETATM    9  O   UNK N   1      29.663  16.178   2.326  0.00  0.00    -0.388 OA
HETATM   10  H   UNK N   1      29.874  16.547   1.455  0.00  0.00     0.210 HD
ENDBRANCH   4   9
BRANCH   5  11
HETATM   11  N   UNK N   1      28.177  17.285   4.886  0.00  0.00    -0.297 N 
HETATM   12  C   UNK N   1      27.420  16.439   5.635  0.00  0.00     0.188 A 
HETATM   13  N   UNK N   1      26.142  16.877   5.752  0.00  0.00    -0.346 N 
HETATM   14  C   UNK N   1      26.124  18.021   5.054  0.00  0.00     0.122 A 
ATOM     15  HN  UNK N   1      25.372  16.436   6.257  1.00  0.00     0.167 HD
HETATM   16  C   UNK N   1      25.077  18.890   4.832  0.00  0.00     0.131 A 
HETATM   17  C   UNK N   1      27.344  18.271   4.533  0.00  0.00     0.142 A 
HETATM   18  N   UNK N   1      25.319  19.998   4.074  0.00  0.00    -0.337 N 
HETATM   19  C   UNK N   1      26.570  20.239   3.551  0.00  0.00     0.183 A 
ATOM     20  HN  UNK N   1      24.563  20.660   3.893  1.00  0.00     0.168 HD
HETATM   21  N   UNK N   1      27.600  19.365   3.779  0.00  0.00    -0.336 N 
ATOM     22  HN  UNK N   1      28.531  19.533   3.394  1.00  0.00     0.168 HD
BRANCH  16  23
HETATM   23  N   UNK N   1      23.797  18.641   5.366  0.00  0.00    -0.383 N 
HETATM   24  H   UNK N   1      23.151  18.077   4.881  0.00  0.00     0.157 HD
HETATM   25  H   UNK N   1      23.545  19.034   6.232  0.00  0.00     0.157 HD
ENDBRANCH  16  23
ENDBRANCH   5  11
ENDBRANCH   1   2
BRANCH   1  26
HETATM   26  N   UNK N   1      33.352  16.588   7.062  0.00  0.00     0.099 N 
BRANCH  26  27
HETATM   27  C   UNK N   1      33.375  17.469   8.248  0.00  0.00     0.215 C 
HETATM   28  C   UNK N   1      32.064  18.221   8.414  0.00  0.00     0.042 C 
HETATM   29  C   UNK N   1      34.564  18.416   8.292  0.00  0.00     0.042 C 
ENDBRANCH  26  27
BRANCH  26  30
HETATM   30  C   UNK N   1      33.015  15.186   7.404  0.00  0.00     0.224 C 
HETATM   31  C   UNK N   1      34.092  14.186   7.023  0.00  0.00     0.040 C 
HETATM   32  C   UNK N   1      34.436  14.030   8.500  0.00  0.00    -0.010 C 
HETATM   33  C   UNK N   1      33.254  14.897   8.876  0.00  0.00     0.040 C 
BRANCH  32  34
HETATM   34  C   UNK N   1      35.732  14.748   8.911  0.00  0.00     0.012 C 
BRANCH  34  35
HETATM   35  C   UNK N   1      36.845  13.788   9.319  0.00  0.00     0.077 C 
BRANCH  35  36
HETATM   36  C   UNK N   1      36.763  13.544  10.774  0.00  0.00     0.082 A 
HETATM   37  N   UNK N   1      36.763  14.533  11.701  0.00  0.00    -0.344 N 
HETATM   38  C   UNK N   1      36.526  13.886  12.848  0.00  0.00     0.060 A 
ATOM     39  HN  UNK N   1      36.909  15.533  11.559  1.00  0.00     0.167 HD
HETATM   40  C   UNK N   1      36.410  14.422  14.123  0.00  0.00     0.032 A 
HETATM   41  C   UNK N   1      36.377  12.558  12.604  0.00  0.00     0.061 A 
HETATM   42  C   UNK N   1      36.119  13.530  15.172  0.00  0.00     0.010 A 
HETATM   43  C   UNK N   1      35.946  12.139  14.924  0.00  0.00    -0.048 A 
HETATM   44  C   UNK N   1      36.082  11.647  13.605  0.00  0.00     0.039 A 
HETATM   45  N   UNK N   1      36.524  12.318  11.297  0.00  0.00    -0.344 N 
HETATM   46  H   UNK N   1      36.470  11.455  10.828  0.00  0.00     0.167 HD
BRANCH  43  47
HETATM   47  C   UNK N   1      35.613  11.208  16.071  0.00  0.00    -0.024 C 
HETATM   48  C   UNK N   1      34.408  10.358  15.708  0.00  0.00     0.019 C 
HETATM   49  C   UNK N   1      35.285  12.023  17.307  0.00  0.00     0.019 C 
HETATM   50  C   UNK N   1      36.758  10.267  16.419  0.00  0.00     0.019 C 
ENDBRANCH  43  47
ENDBRANCH  35  36
ENDBRANCH  34  35
ENDBRANCH  32  34
ENDBRANCH  26  30
ENDBRANCH   1  26
TORSDOF 12
ENDMDL
MODEL 7
REMARK VINA RESULT:      -8.0      2.396      4.427
REMARK  12 active torsions:
REMARK  status: ('A' for Active; 'I' for Inactive)
REMARK    1  A    between atoms: C_9  and  C_6 
REMARK    2  A    between atoms: C_17  and  C_6 
REMARK    3  A    between atoms: C_23  and  C_9 
REMARK    4  A    between atoms: C_22  and  C_13 
REMARK    5  A    between atoms: N_41  and  C_13 
REMARK    6  A    between atoms: N_41  and  C_16 
REMARK    7  A    between atoms: C_30  and  C_18 
REMARK    8  A    between atoms: C_19  and  N_41 
REMARK    9  A    between atoms: C_25  and  O_43 
REMARK   10  A    between atoms: C_26  and  O_44 
REMARK   11  A    between atoms: N_31  and  C_27 
REMARK   12  A    between atoms: C_29  and  N_42 
ROOT
HETATM    1  C   UNK N   1      28.304  18.073   6.720  0.00  0.00     0.307 C 
ENDROOT
BRANCH   1   2
HETATM    2  C   UNK N   1      27.950  16.889   5.812  0.00  0.00     0.183 C 
HETATM    3  C   UNK N   1      27.871  17.200   4.295  0.00  0.00     0.182 C 
HETATM    4  C   UNK N   1      26.639  16.386   3.927  0.00  0.00     0.198 C 
HETATM    5  C   UNK N   1      25.823  16.694   5.171  0.00  0.00     0.262 C 
HETATM    6  O   UNK N   1      26.697  16.401   6.223  0.00  0.00    -0.354 OA
BRANCH   3   7
HETATM    7  O   UNK N   1      27.615  18.562   4.079  0.00  0.00    -0.390 OA
HETATM    8  H   UNK N   1      27.781  19.388   3.600  0.00  0.00     0.210 HD
ENDBRANCH   3   7
BRANCH   4   9
HETATM    9  O   UNK N   1      26.041  16.821   2.741  0.00  0.00    -0.388 OA
HETATM   10  H   UNK N   1      25.265  16.966   2.178  0.00  0.00     0.210 HD
ENDBRANCH   4   9
BRANCH   5  11
HETATM   11  N   UNK N   1      24.567  15.997   5.412  0.00  0.00    -0.297 N 
HETATM   12  C   UNK N   1      24.484  14.641   5.379  0.00  0.00     0.188 A 
HETATM   13  N   UNK N   1      23.224  14.207   5.627  0.00  0.00    -0.346 N 
HETATM   14  C   UNK N   1      22.522  15.333   5.815  0.00  0.00     0.122 A 
ATOM     15  HN  UNK N   1      22.888  13.244   5.661  1.00  0.00     0.167 HD
HETATM   16  C   UNK N   1      21.181  15.488   6.097  0.00  0.00     0.131 A 
HETATM   17  C   UNK N   1      23.324  16.412   5.688  0.00  0.00     0.142 A 
HETATM   18  N   UNK N   1      20.703  16.757   6.241  0.00  0.00    -0.337 N 
HETATM   19  C   UNK N   1      21.536  17.846   6.110  0.00  0.00     0.183 A 
ATOM     20  HN  UNK N   1      19.715  16.903   6.451  1.00  0.00     0.168 HD
HETATM   21  N   UNK N   1      22.866  17.677   5.828  0.00  0.00    -0.336 N 
ATOM     22  HN  UNK N   1      23.491  18.478   5.728  1.00  0.00     0.168 HD
BRANCH  16  23
HETATM   23  N   UNK N   1      20.330  14.372   6.228  0.00  0.00    -0.383 N 
HETATM   24  H   UNK N   1      20.613  13.484   5.909  0.00  0.00     0.157 HD
HETATM   25  H   UNK N   1      19.444  14.481   6.642  0.00  0.00     0.157 HD
ENDBRANCH  16  23
ENDBRANCH   5  11
ENDBRANCH   1   2
BRANCH   1  26
HETATM   26  N   UNK N   1      29.618  17.898   7.385  0.00  0.00     0.099 N 
BRANCH  26  27
HETATM   27  C   UNK N   1      29.449  17.775   8.848  0.00  0.00     0.215 C 
HETATM   28  C   UNK N   1      28.020  17.409   9.218  0.00  0.00     0.042 C 
HETATM   29  C   UNK N   1      29.929  18.987   9.631  0.00  0.00     0.042 C 
ENDBRANCH  26  27
BRANCH  26  30
HETATM   30  C   UNK N   1      30.448  16.809   6.818  0.00  0.00     0.224 C 
HETATM   31  C   UNK N   1      31.689  17.298   6.091  0.00  0.00     0.040 C 
HETATM   32  C   UNK N   1      32.539  16.785   7.247  0.00  0.00    -0.010 C 
HETATM   33  C   UNK N   1      31.316  16.157   7.880  0.00  0.00     0.040 C 
BRANCH  32  34
HETATM   34  C   UNK N   1      33.062  17.898   8.171  0.00  0.00     0.012 C 
BRANCH  34  35
HETATM   35  C   UNK N   1      34.561  17.804   8.433  0.00  0.00     0.077 C 
BRANCH  35  36
HETATM   36  C   UNK N   1      34.821  16.667   9.340  0.00  0.00     0.082 A 
HETATM   37  N   UNK N   1      35.188  15.434   8.910  0.00  0.00    -0.344 N 
HETATM   38  C   UNK N   1      35.459  14.776  10.044  0.00  0.00     0.060 A 
ATOM     39  HN  UNK N   1      35.244  15.090   7.952  1.00  0.00     0.167 HD
HETATM   40  C   UNK N   1      35.894  13.467  10.188  0.00  0.00     0.032 A 
HETATM   41  C   UNK N   1      35.272  15.599  11.109  0.00  0.00     0.061 A 
HETATM   42  C   UNK N   1      36.147  13.013  11.495  0.00  0.00     0.010 A 
HETATM   43  C   UNK N   1      35.969  13.872  12.617  0.00  0.00    -0.048 A 
HETATM   44  C   UNK N   1      35.517  15.197  12.411  0.00  0.00     0.039 A 
HETATM   45  N   UNK N   1      34.867  16.801  10.687  0.00  0.00    -0.344 N 
HETATM   46  H   UNK N   1      34.654  17.595  11.228  0.00  0.00     0.167 HD
BRANCH  43  47
HETATM   47  C   UNK N   1      36.271  13.361  14.009  0.00  0.00    -0.024 C 
HETATM   48  C   UNK N   1      37.286  12.235  13.934  0.00  0.00     0.019 C 
HETATM   49  C   UNK N   1      34.998  12.833  14.643  0.00  0.00     0.019 C 
HETATM   50  C   UNK N   1      36.839  14.438  14.923  0.00  0.00     0.019 C 
ENDBRANCH  43  47
ENDBRANCH  35  36
ENDBRANCH  34  35
ENDBRANCH  32  34
ENDBRANCH  26  30
ENDBRANCH   1  26
TORSDOF 12
ENDMDL
MODEL 8
REMARK VINA RESULT:      -8.0      8.688     11.959
REMARK  12 active torsions:
REMARK  status: ('A' for Active; 'I' for Inactive)
REMARK    1  A    between atoms: C_9  and  C_6 
REMARK    2  A    between atoms: C_17  and  C_6 
REMARK    3  A    between atoms: C_23  and  C_9 
REMARK    4  A    between atoms: C_22  and  C_13 
REMARK    5  A    between atoms: N_41  and  C_13 
REMARK    6  A    between atoms: N_41  and  C_16 
REMARK    7  A    between atoms: C_30  and  C_18 
REMARK    8  A    between atoms: C_19  and  N_41 
REMARK    9  A    between atoms: C_25  and  O_43 
REMARK   10  A    between atoms: C_26  and  O_44 
REMARK   11  A    between atoms: N_31  and  C_27 
REMARK   12  A    between atoms: C_29  and  N_42 
ROOT
HETATM    1  C   UNK N   1      21.607  13.404   8.782  0.00  0.00     0.307 C 
ENDROOT
BRANCH   1   2
HETATM    2  C   UNK N   1      21.392  14.899   8.520  0.00  0.00     0.183 C 
HETATM    3  C   UNK N   1      20.128  15.525   9.165  0.00  0.00     0.182 C 
HETATM    4  C   UNK N   1      19.668  16.418   8.021  0.00  0.00     0.198 C 
HETATM    5  C   UNK N   1      19.979  15.456   6.886  0.00  0.00     0.262 C 
HETATM    6  O   UNK N   1      21.304  15.076   7.127  0.00  0.00    -0.354 OA
BRANCH   3   7
HETATM    7  O   UNK N   1      19.159  14.542   9.413  0.00  0.00    -0.390 OA
HETATM    8  H   UNK N   1      18.644  13.999  10.029  0.00  0.00     0.210 HD
ENDBRANCH   3   7
BRANCH   4   9
HETATM    9  O   UNK N   1      18.315  16.756   8.114  0.00  0.00    -0.388 OA
HETATM   10  H   UNK N   1      17.398  16.706   7.804  0.00  0.00     0.210 HD
ENDBRANCH   4   9
BRANCH   5  11
HETATM   11  N   UNK N   1      19.875  15.900   5.503  0.00  0.00    -0.297 N 
HETATM   12  C   UNK N   1      19.131  15.224   4.589  0.00  0.00     0.188 A 
HETATM   13  N   UNK N   1      19.180  15.809   3.367  0.00  0.00    -0.346 N 
HETATM   14  C   UNK N   1      19.978  16.872   3.545  0.00  0.00     0.122 A 
ATOM     15  HN  UNK N   1      18.715  15.509   2.509  1.00  0.00     0.167 HD
HETATM   16  C   UNK N   1      20.379  17.823   2.633  0.00  0.00     0.131 A 
HETATM   17  C   UNK N   1      20.397  16.932   4.828  0.00  0.00     0.142 A 
HETATM   18  N   UNK N   1      21.207  18.816   3.070  0.00  0.00    -0.337 N 
HETATM   19  C   UNK N   1      21.625  18.863   4.381  0.00  0.00     0.183 A 
ATOM     20  HN  UNK N   1      21.521  19.534   2.416  1.00  0.00     0.168 HD
HETATM   21  N   UNK N   1      21.218  17.909   5.277  0.00  0.00    -0.336 N 
ATOM     22  HN  UNK N   1      21.523  17.934   6.250  1.00  0.00     0.168 HD
BRANCH  16  23
HETATM   23  N   UNK N   1      19.953  17.772   1.290  0.00  0.00    -0.383 N 
HETATM   24  H   UNK N   1      19.107  18.196   1.016  0.00  0.00     0.157 HD
HETATM   25  H   UNK N   1      20.505  17.308   0.620  0.00  0.00     0.157 HD
ENDBRANCH  16  23
ENDBRANCH   5  11
ENDBRANCH   1   2
BRANCH   1  26
HETATM   26  N   UNK N   1      23.023  12.999   8.600  0.00  0.00     0.099 N 
BRANCH  26  27
HETATM   27  C   UNK N   1      23.736  13.004   9.893  0.00  0.00     0.215 C 
HETATM   28  C   UNK N   1      25.206  13.353   9.722  0.00  0.00     0.042 C 
HETATM   29  C   UNK N   1      23.563  11.726  10.699  0.00  0.00     0.042 C 
ENDBRANCH  26  27
BRANCH  26  30
HETATM   30  C   UNK N   1      23.201  11.727   7.860  0.00  0.00     0.224 C 
HETATM   31  C   UNK N   1      22.033  11.376   6.954  0.00  0.00     0.040 C 
HETATM   32  C   UNK N   1      22.897  11.721   5.747  0.00  0.00    -0.010 C 
HETATM   33  C   UNK N   1      24.098  11.906   6.648  0.00  0.00     0.040 C 
BRANCH  32  34
HETATM   34  C   UNK N   1      22.545  13.072   5.101  0.00  0.00     0.012 C 
BRANCH  34  35
HETATM   35  C   UNK N   1      23.256  13.304   3.773  0.00  0.00     0.077 C 
BRANCH  35  36
HETATM   36  C   UNK N   1      24.219  14.414   3.929  0.00  0.00     0.082 A 
HETATM   37  N   UNK N   1      25.530  14.321   3.597  0.00  0.00    -0.344 N 
HETATM   38  C   UNK N   1      25.981  15.572   3.755  0.00  0.00     0.060 A 
ATOM     39  HN  UNK N   1      26.050  13.496   3.299  1.00  0.00     0.167 HD
HETATM   40  C   UNK N   1      27.266  16.050   3.538  0.00  0.00     0.032 A 
HETATM   41  C   UNK N   1      24.965  16.380   4.154  0.00  0.00     0.061 A 
HETATM   42  C   UNK N   1      27.484  17.425   3.741  0.00  0.00     0.010 A 
HETATM   43  C   UNK N   1      26.422  18.283   4.144  0.00  0.00    -0.048 A 
HETATM   44  C   UNK N   1      25.133  17.740   4.356  0.00  0.00     0.039 A 
HETATM   45  N   UNK N   1      23.840  15.669   4.271  0.00  0.00    -0.344 N 
HETATM   46  H   UNK N   1      22.947  15.983   4.542  0.00  0.00     0.167 HD
BRANCH  43  47
HETATM   47  C   UNK N   1      26.682  19.762   4.333  0.00  0.00    -0.024 C 
HETATM   48  C   UNK N   1      26.217  20.526   3.106  0.00  0.00     0.019 C 
HETATM   49  C   UNK N   1      28.169  19.996   4.522  0.00  0.00     0.019 C 
HETATM   50  C   UNK N   1      25.959  20.339   5.542  0.00  0.00     0.019 C 
ENDBRANCH  43  47
ENDBRANCH  35  36
ENDBRANCH  34  35
ENDBRANCH  32  34
ENDBRANCH  26  30
ENDBRANCH   1  26
TORSDOF 12
ENDMDL
MODEL 9
REMARK VINA RESULT:      -8.0      3.079     12.447
REMARK  12 active torsions:
REMARK  status: ('A' for Active; 'I' for Inactive)
REMARK    1  A    between atoms: C_9  and  C_6 
REMARK    2  A    between atoms: C_17  and  C_6 
REMARK    3  A    between atoms: C_23  and  C_9 
REMARK    4  A    between atoms: C_22  and  C_13 
REMARK    5  A    between atoms: N_41  and  C_13 
REMARK    6  A    between atoms: N_41  and  C_16 
REMARK    7  A    between atoms: C_30  and  C_18 
REMARK    8  A    between atoms: C_19  and  N_41 
REMARK    9  A    between atoms: C_25  and  O_43 
REMARK   10  A    between atoms: C_26  and  O_44 
REMARK   11  A    between atoms: N_31  and  C_27 
REMARK   12  A    between atoms: C_29  and  N_42 
ROOT
HETATM    1  C   UNK N   1      32.907  16.455   6.202  0.00  0.00     0.307 C 
ENDROOT
BRANCH   1   2
HETATM    2  C   UNK N   1      33.008  16.523   7.730  0.00  0.00     0.183 C 
HETATM    3  C   UNK N   1      33.704  17.784   8.306  0.00  0.00     0.182 C 
HETATM    4  C   UNK N   1      34.527  17.143   9.415  0.00  0.00     0.198 C 
HETATM    5  C   UNK N   1      34.939  15.892   8.654  0.00  0.00     0.262 C 
HETATM    6  O   UNK N   1      33.729  15.393   8.157  0.00  0.00    -0.354 OA
BRANCH   3   7
HETATM    7  O   UNK N   1      34.562  18.356   7.355  0.00  0.00    -0.390 OA
HETATM    8  H   UNK N   1      35.429  18.708   7.102  0.00  0.00     0.210 HD
ENDBRANCH   3   7
BRANCH   4   9
HETATM    9  O   UNK N   1      35.606  17.937   9.812  0.00  0.00    -0.388 OA
HETATM   10  H   UNK N   1      36.032  18.555  10.426  0.00  0.00     0.210 HD
ENDBRANCH   4   9
BRANCH   5  11
HETATM   11  N   UNK N   1      35.630  14.812   9.343  0.00  0.00    -0.297 N 
HETATM   12  C   UNK N   1      36.094  13.721   8.678  0.00  0.00     0.188 A 
HETATM   13  N   UNK N   1      36.699  12.841   9.513  0.00  0.00    -0.346 N 
HETATM   14  C   UNK N   1      36.599  13.416  10.720  0.00  0.00     0.122 A 
ATOM     15  HN  UNK N   1      37.131  11.948   9.276  1.00  0.00     0.167 HD
HETATM   16  C   UNK N   1      37.043  12.958  11.943  0.00  0.00     0.131 A 
HETATM   17  C   UNK N   1      35.959  14.601  10.623  0.00  0.00     0.142 A 
HETATM   18  N   UNK N   1      36.813  13.740  13.037  0.00  0.00    -0.337 N 
HETATM   19  C   UNK N   1      36.159  14.946  12.920  0.00  0.00     0.183 A 
ATOM     20  HN  UNK N   1      37.130  13.426  13.955  1.00  0.00     0.168 HD
HETATM   21  N   UNK N   1      35.722  15.387  11.699  0.00  0.00    -0.336 N 
ATOM     22  HN  UNK N   1      35.236  16.279  11.602  1.00  0.00     0.168 HD
BRANCH  16  23
HETATM   23  N   UNK N   1      37.709  11.722  12.060  0.00  0.00    -0.383 N 
HETATM   24  H   UNK N   1      37.446  11.073  12.753  0.00  0.00     0.157 HD
HETATM   25  H   UNK N   1      38.446  11.504  11.445  0.00  0.00     0.157 HD
ENDBRANCH  16  23
ENDBRANCH   5  11
ENDBRANCH   1   2
BRANCH   1  26
HETATM   26  N   UNK N   1      31.523  16.690   5.720  0.00  0.00     0.099 N 
BRANCH  26  27
HETATM   27  C   UNK N   1      31.291  15.987   4.441  0.00  0.00     0.215 C 
HETATM   28  C   UNK N   1      31.989  14.636   4.409  0.00  0.00     0.042 C 
HETATM   29  C   UNK N   1      31.631  16.813   3.210  0.00  0.00     0.042 C 
ENDBRANCH  26  27
BRANCH  26  30
HETATM   30  C   UNK N   1      30.471  16.401   6.723  0.00  0.00     0.224 C 
HETATM   31  C   UNK N   1      29.857  17.645   7.343  0.00  0.00     0.040 C 
HETATM   32  C   UNK N   1      28.586  17.387   6.542  0.00  0.00    -0.010 C 
HETATM   33  C   UNK N   1      29.146  16.065   6.063  0.00  0.00     0.040 C 
BRANCH  32  34
HETATM   34  C   UNK N   1      28.415  18.324   5.335  0.00  0.00     0.012 C 
BRANCH  34  35
HETATM   35  C   UNK N   1      27.269  19.315   5.503  0.00  0.00     0.077 C 
BRANCH  35  36
HETATM   36  C   UNK N   1      26.055  18.761   4.869  0.00  0.00     0.082 A 
HETATM   37  N   UNK N   1      25.866  17.437   4.642  0.00  0.00    -0.344 N 
HETATM   38  C   UNK N   1      24.603  17.373   4.203  0.00  0.00     0.060 A 
ATOM     39  HN  UNK N   1      26.528  16.672   4.773  1.00  0.00     0.167 HD
HETATM   40  C   UNK N   1      23.884  16.246   3.832  0.00  0.00     0.032 A 
HETATM   41  C   UNK N   1      24.059  18.618   4.186  0.00  0.00     0.061 A 
HETATM   42  C   UNK N   1      22.547  16.436   3.438  0.00  0.00     0.010 A 
HETATM   43  C   UNK N   1      21.963  17.735   3.431  0.00  0.00    -0.048 A 
HETATM   44  C   UNK N   1      22.746  18.850   3.814  0.00  0.00     0.039 A 
HETATM   45  N   UNK N   1      24.961  19.512   4.603  0.00  0.00    -0.344 N 
HETATM   46  H   UNK N   1      24.853  20.486   4.695  0.00  0.00     0.167 HD
BRANCH  43  47
HETATM   47  C   UNK N   1      20.515  17.905   3.022  0.00  0.00    -0.024 C 
HETATM   48  C   UNK N   1      19.617  17.158   3.992  0.00  0.00     0.019 C 
HETATM   49  C   UNK N   1      20.312  17.340   1.629  0.00  0.00     0.019 C 
HETATM   50  C   UNK N   1      20.073  19.362   3.007  0.00  0.00     0.019 C 
ENDBRANCH  43  47
ENDBRANCH  35  36
ENDBRANCH  34  35
ENDBRANCH  32  34
ENDBRANCH  26  30
ENDBRANCH   1  26
TORSDOF 12
ENDMDL
