MODEL 1
REMARK VINA RESULT:      -7.5      0.000      0.000
REMARK  7 active torsions:
REMARK  status: ('A' for Active; 'I' for Inactive)
REMARK    1  A    between atoms: C_2  and  C_3 
REMARK    2  A    between atoms: C_2  and  N_19 
REMARK    3  A    between atoms: C_3  and  N_4 
REMARK    4  A    between atoms: C_7  and  C_10 
REMARK       I    between atoms: N_19  and  C_20 
REMARK    5  A    between atoms: C_20  and  C_22 
REMARK    6  A    between atoms: C_24  and  C_28 
REMARK    7  A    between atoms: C_28  and  O_30 
ROOT
HETATM    1  C   UNK N   1      27.560  17.710   4.304  0.00  0.00    -0.006 A 
HETATM    2  C   UNK N   1      26.534  17.328   3.453  0.00  0.00     0.015 A 
HETATM    3  C   UNK N   1      25.454  18.162   3.246  0.00  0.00     0.025 A 
HETATM    4  C   UNK N   1      25.415  19.421   3.834  0.00  0.00     0.066 A 
HETATM    5  C   UNK N   1      26.424  19.813   4.740  0.00  0.00     0.055 A 
HETATM    6  C   UNK N   1      27.502  18.945   4.977  0.00  0.00     0.039 A 
HETATM    7 Cl   UNK N   1      26.440  21.421   5.457  0.00  0.00    -0.083 Cl
HETATM    8  C   UNK N   1      24.372  20.304   3.400  0.00  0.00     0.101 C 
HETATM    9  N   UNK N   1      23.513  20.976   3.019  0.00  0.00    -0.191 NA
ENDROOT
BRANCH   1  10
HETATM   10  C   UNK N   1      28.835  17.032   4.167  0.00  0.00     0.059 A 
HETATM   11  C   UNK N   1      29.129  16.206   3.091  0.00  0.00     0.050 A 
HETATM   12  C   UNK N   1      30.503  16.120   3.088  0.00  0.00     0.112 A 
HETATM   13  N   UNK N   1      30.957  16.843   4.124  0.00  0.00    -0.301 N 
HETATM   14  N   UNK N   1      29.957  17.418   4.759  0.00  0.00    -0.298 N 
ATOM     15  HN  UNK N   1      30.033  18.046   5.560  1.00  0.00     0.187 HD
BRANCH  13  16
HETATM   16  C   UNK N   1      32.295  17.357   4.211  0.00  0.00     0.172 C 
BRANCH  16  17
HETATM   17  C   UNK N   1      32.879  16.763   5.490  0.00  0.00     0.100 C 
HETATM   18  C   UNK N   1      33.551  15.413   5.274  0.00  0.00     0.034 C 
BRANCH  17  19
HETATM   19  N   UNK N   1      33.854  17.656   6.073  0.00  0.00    -0.350 N 
HETATM   20  C   UNK N   1      33.831  17.923   7.385  0.00  0.00     0.270 C 
HETATM   21  O   UNK N   1      34.776  18.493   7.907  0.00  0.00    -0.266 OA
HETATM   22  H   UNK N   1      34.539  18.071   5.502  0.00  0.00     0.163 HD
BRANCH  20  23
HETATM   23  C   UNK N   1      32.710  17.472   8.197  0.00  0.00     0.117 A 
HETATM   24  C   UNK N   1      31.530  18.131   8.318  0.00  0.00     0.065 A 
HETATM   25  C   UNK N   1      30.792  17.315   9.137  0.00  0.00     0.056 A 
HETATM   26  N   UNK N   1      31.496  16.210   9.453  0.00  0.00    -0.302 N 
HETATM   27  N   UNK N   1      32.683  16.317   8.892  0.00  0.00    -0.295 N 
HETATM   28  H   UNK N   1      31.179  15.457  10.003  0.00  0.00     0.186 HD
ATOM     29  HN  UNK N   1      33.446  15.645   8.970  1.00  0.00     0.187 HD
BRANCH  25  30
HETATM   30  C   UNK N   1      29.354  17.528   9.414  0.00  0.00     0.165 C 
HETATM   31  C   UNK N   1      28.583  17.578   8.112  0.00  0.00     0.046 C 
BRANCH  30  32
HETATM   32  O   UNK N   1      29.213  18.760  10.057  0.00  0.00    -0.390 OA
HETATM   33  H   UNK N   1      29.581  19.036  10.911  0.00  0.00     0.210 HD
ENDBRANCH  30  32
ENDBRANCH  25  30
ENDBRANCH  20  23
ENDBRANCH  17  19
ENDBRANCH  16  17
ENDBRANCH  13  16
ENDBRANCH   1  10
TORSDOF 7
ENDMDL
MODEL 2
REMARK VINA RESULT:      -7.5      5.811     10.263
REMARK  7 active torsions:
REMARK  status: ('A' for Active; 'I' for Inactive)
REMARK    1  A    between atoms: C_2  and  C_3 
REMARK    2  A    between atoms: C_2  and  N_19 
REMARK    3  A    between atoms: C_3  and  N_4 
REMARK    4  A    between atoms: C_7  and  C_10 
REMARK       I    between atoms: N_19  and  C_20 
REMARK    5  A    between atoms: C_20  and  C_22 
REMARK    6  A    between atoms: C_24  and  C_28 
REMARK    7  A    between atoms: C_28  and  O_30 
ROOT
HETATM    1  C   UNK N   1      35.291  13.478  12.297  0.00  0.00    -0.006 A 
HETATM    2  C   UNK N   1      34.731  12.308  12.787  0.00  0.00     0.015 A 
HETATM    3  C   UNK N   1      34.945  11.927  14.096  0.00  0.00     0.025 A 
HETATM    4  C   UNK N   1      35.669  12.745  14.956  0.00  0.00     0.066 A 
HETATM    5  C   UNK N   1      36.288  13.916  14.468  0.00  0.00     0.055 A 
HETATM    6  C   UNK N   1      36.099  14.280  13.125  0.00  0.00     0.039 A 
HETATM    7 Cl   UNK N   1      37.163  15.007  15.539  0.00  0.00    -0.083 Cl
HETATM    8  C   UNK N   1      35.665  12.387  16.343  0.00  0.00     0.101 C 
HETATM    9  N   UNK N   1      35.632  12.055  17.450  0.00  0.00    -0.191 NA
ENDROOT
BRANCH   1  10
HETATM   10  C   UNK N   1      34.713  14.050  11.096  0.00  0.00     0.059 A 
HETATM   11  C   UNK N   1      34.748  13.402   9.869  0.00  0.00     0.050 A 
HETATM   12  C   UNK N   1      33.764  14.014   9.126  0.00  0.00     0.112 A 
HETATM   13  N   UNK N   1      33.217  14.973   9.891  0.00  0.00    -0.301 N 
HETATM   14  N   UNK N   1      33.767  14.979  11.088  0.00  0.00    -0.298 N 
ATOM     15  HN  UNK N   1      33.510  15.587  11.866  1.00  0.00     0.187 HD
BRANCH  13  16
HETATM   16  C   UNK N   1      31.913  15.527   9.662  0.00  0.00     0.172 C 
BRANCH  16  17
HETATM   17  C   UNK N   1      32.083  16.512   8.508  0.00  0.00     0.100 C 
HETATM   18  C   UNK N   1      30.849  17.372   8.264  0.00  0.00     0.034 C 
BRANCH  17  19
HETATM   19  N   UNK N   1      33.200  17.396   8.748  0.00  0.00    -0.350 N 
HETATM   20  C   UNK N   1      34.048  17.703   7.758  0.00  0.00     0.270 C 
HETATM   21  O   UNK N   1      34.850  18.613   7.904  0.00  0.00    -0.266 OA
HETATM   22  H   UNK N   1      33.339  17.776   9.646  0.00  0.00     0.163 HD
BRANCH  20  23
HETATM   23  C   UNK N   1      33.965  16.998   6.489  0.00  0.00     0.117 A 
HETATM   24  C   UNK N   1      33.253  17.422   5.414  0.00  0.00     0.065 A 
HETATM   25  C   UNK N   1      33.510  16.467   4.464  0.00  0.00     0.056 A 
HETATM   26  N   UNK N   1      34.363  15.543   4.948  0.00  0.00    -0.302 N 
HETATM   27  N   UNK N   1      34.626  15.858   6.199  0.00  0.00    -0.295 N 
HETATM   28  H   UNK N   1      34.725  14.772   4.454  0.00  0.00     0.186 HD
ATOM     29  HN  UNK N   1      35.223  15.333   6.837  1.00  0.00     0.187 HD
BRANCH  25  30
HETATM   30  C   UNK N   1      33.091  16.595   3.050  0.00  0.00     0.165 C 
HETATM   31  C   UNK N   1      31.579  16.645   2.967  0.00  0.00     0.046 C 
BRANCH  30  32
HETATM   32  O   UNK N   1      33.532  15.462   2.362  0.00  0.00    -0.390 OA
HETATM   33  H   UNK N   1      33.612  14.554   2.693  0.00  0.00     0.210 HD
ENDBRANCH  30  32
ENDBRANCH  25  30
ENDBRANCH  20  23
ENDBRANCH  17  19
ENDBRANCH  16  17
ENDBRANCH  13  16
ENDBRANCH   1  10
TORSDOF 7
ENDMDL
MODEL 3
REMARK VINA RESULT:      -7.4      8.094     12.317
REMARK  7 active torsions:
REMARK  status: ('A' for Active; 'I' for Inactive)
REMARK    1  A    between atoms: C_2  and  C_3 
REMARK    2  A    between atoms: C_2  and  N_19 
REMARK    3  A    between atoms: C_3  and  N_4 
REMARK    4  A    between atoms: C_7  and  C_10 
REMARK       I    between atoms: N_19  and  C_20 
REMARK    5  A    between atoms: C_20  and  C_22 
REMARK    6  A    between atoms: C_24  and  C_28 
REMARK    7  A    between atoms: C_28  and  O_30 
ROOT
HETATM    1  C   UNK N   1      34.956  12.394  15.591  0.00  0.00    -0.006 A 
HETATM    2  C   UNK N   1      35.083  13.242  16.679  0.00  0.00     0.015 A 
HETATM    3  C   UNK N   1      35.200  12.728  17.955  0.00  0.00     0.025 A 
HETATM    4  C   UNK N   1      35.259  11.354  18.155  0.00  0.00     0.066 A 
HETATM    5  C   UNK N   1      35.086  10.469  17.068  0.00  0.00     0.055 A 
HETATM    6  C   UNK N   1      34.929  10.998  15.777  0.00  0.00     0.039 A 
HETATM    7 Cl   UNK N   1      35.214   8.725  17.274  0.00  0.00    -0.083 Cl
HETATM    8  C   UNK N   1      35.595  10.908  19.475  0.00  0.00     0.101 C 
HETATM    9  N   UNK N   1      35.868  10.600  20.555  0.00  0.00    -0.191 NA
ENDROOT
BRANCH   1  10
HETATM   10  C   UNK N   1      35.262  12.930  14.278  0.00  0.00     0.059 A 
HETATM   11  C   UNK N   1      36.039  14.067  14.101  0.00  0.00     0.050 A 
HETATM   12  C   UNK N   1      36.454  14.000  12.789  0.00  0.00     0.112 A 
HETATM   13  N   UNK N   1      35.918  12.893  12.251  0.00  0.00    -0.301 N 
HETATM   14  N   UNK N   1      35.223  12.231  13.153  0.00  0.00    -0.298 N 
ATOM     15  HN  UNK N   1      34.743  11.342  13.011  1.00  0.00     0.187 HD
BRANCH  13  16
HETATM   16  C   UNK N   1      36.438  12.244  11.081  0.00  0.00     0.172 C 
BRANCH  16  17
HETATM   17  C   UNK N   1      35.838  12.995   9.895  0.00  0.00     0.100 C 
HETATM   18  C   UNK N   1      36.614  12.792   8.600  0.00  0.00     0.034 C 
BRANCH  17  19
HETATM   19  N   UNK N   1      34.473  12.583   9.664  0.00  0.00    -0.350 N 
HETATM   20  C   UNK N   1      33.537  13.484   9.340  0.00  0.00     0.270 C 
HETATM   21  O   UNK N   1      32.448  13.112   8.932  0.00  0.00    -0.266 OA
HETATM   22  H   UNK N   1      34.229  11.632   9.745  0.00  0.00     0.163 HD
BRANCH  20  23
HETATM   23  C   UNK N   1      33.844  14.905   9.410  0.00  0.00     0.117 A 
HETATM   24  C   UNK N   1      33.819  15.754   8.352  0.00  0.00     0.065 A 
HETATM   25  C   UNK N   1      34.134  16.967   8.908  0.00  0.00     0.056 A 
HETATM   26  N   UNK N   1      34.302  16.841  10.239  0.00  0.00    -0.302 N 
HETATM   27  N   UNK N   1      34.144  15.570  10.545  0.00  0.00    -0.295 N 
HETATM   28  H   UNK N   1      34.505  17.570  10.870  0.00  0.00     0.186 HD
ATOM     29  HN  UNK N   1      34.234  15.160  11.474  1.00  0.00     0.187 HD
BRANCH  25  30
HETATM   30  C   UNK N   1      34.053  18.245   8.168  0.00  0.00     0.165 C 
HETATM   31  C   UNK N   1      33.967  17.972   6.681  0.00  0.00     0.046 C 
BRANCH  30  32
HETATM   32  O   UNK N   1      35.225  18.966   8.415  0.00  0.00    -0.390 OA
HETATM   33  H   UNK N   1      35.333  19.927   8.484  0.00  0.00     0.210 HD
ENDBRANCH  30  32
ENDBRANCH  25  30
ENDBRANCH  20  23
ENDBRANCH  17  19
ENDBRANCH  16  17
ENDBRANCH  13  16
ENDBRANCH   1  10
TORSDOF 7
ENDMDL
MODEL 4
REMARK VINA RESULT:      -7.2      4.317      9.376
REMARK  7 active torsions:
REMARK  status: ('A' for Active; 'I' for Inactive)
REMARK    1  A    between atoms: C_2  and  C_3 
REMARK    2  A    between atoms: C_2  and  N_19 
REMARK    3  A    between atoms: C_3  and  N_4 
REMARK    4  A    between atoms: C_7  and  C_10 
REMARK       I    between atoms: N_19  and  C_20 
REMARK    5  A    between atoms: C_20  and  C_22 
REMARK    6  A    between atoms: C_24  and  C_28 
REMARK    7  A    between atoms: C_28  and  O_30 
ROOT
HETATM    1  C   UNK N   1      28.980  18.019   7.275  0.00  0.00    -0.006 A 
HETATM    2  C   UNK N   1      29.394  18.435   8.531  0.00  0.00     0.015 A 
HETATM    3  C   UNK N   1      30.696  18.227   8.940  0.00  0.00     0.025 A 
HETATM    4  C   UNK N   1      31.622  17.660   8.073  0.00  0.00     0.066 A 
HETATM    5  C   UNK N   1      31.213  17.187   6.807  0.00  0.00     0.055 A 
HETATM    6  C   UNK N   1      29.879  17.366   6.411  0.00  0.00     0.039 A 
HETATM    7 Cl   UNK N   1      32.369  16.517   5.660  0.00  0.00    -0.083 Cl
HETATM    8  C   UNK N   1      32.993  17.676   8.492  0.00  0.00     0.101 C 
HETATM    9  N   UNK N   1      34.082  17.712   8.877  0.00  0.00    -0.191 NA
ENDROOT
BRANCH   1  10
HETATM   10  C   UNK N   1      27.776  18.618   6.731  0.00  0.00     0.059 A 
HETATM   11  C   UNK N   1      27.523  19.981   6.802  0.00  0.00     0.050 A 
HETATM   12  C   UNK N   1      26.566  20.206   5.838  0.00  0.00     0.112 A 
HETATM   13  N   UNK N   1      26.280  19.024   5.269  0.00  0.00    -0.301 N 
HETATM   14  N   UNK N   1      27.027  18.070   5.784  0.00  0.00    -0.298 N 
ATOM     15  HN  UNK N   1      27.030  17.089   5.504  1.00  0.00     0.187 HD
BRANCH  13  16
HETATM   16  C   UNK N   1      25.682  18.890   3.970  0.00  0.00     0.172 C 
BRANCH  16  17
HETATM   17  C   UNK N   1      24.512  17.926   4.156  0.00  0.00     0.100 C 
HETATM   18  C   UNK N   1      24.937  16.464   4.190  0.00  0.00     0.034 C 
BRANCH  17  19
HETATM   19  N   UNK N   1      23.802  18.211   5.381  0.00  0.00    -0.350 N 
HETATM   20  C   UNK N   1      22.476  18.399   5.370  0.00  0.00     0.270 C 
HETATM   21  O   UNK N   1      21.855  18.417   6.421  0.00  0.00    -0.266 OA
HETATM   22  H   UNK N   1      24.296  18.268   6.231  0.00  0.00     0.163 HD
BRANCH  20  23
HETATM   23  C   UNK N   1      21.772  18.511   4.102  0.00  0.00     0.117 A 
HETATM   24  C   UNK N   1      21.378  17.458   3.341  0.00  0.00     0.065 A 
HETATM   25  C   UNK N   1      20.732  18.050   2.286  0.00  0.00     0.056 A 
HETATM   26  N   UNK N   1      20.717  19.389   2.439  0.00  0.00    -0.302 N 
HETATM   27  N   UNK N   1      21.374  19.673   3.544  0.00  0.00    -0.295 N 
HETATM   28  H   UNK N   1      20.290  20.038   1.833  0.00  0.00     0.186 HD
ATOM     29  HN  UNK N   1      21.552  20.607   3.913  1.00  0.00     0.187 HD
BRANCH  25  30
HETATM   30  C   UNK N   1      19.966  17.291   1.273  0.00  0.00     0.165 C 
HETATM   31  C   UNK N   1      20.321  15.821   1.356  0.00  0.00     0.046 C 
BRANCH  30  32
HETATM   32  O   UNK N   1      20.332  17.761   0.009  0.00  0.00    -0.390 OA
HETATM   33  H   UNK N   1      21.214  17.772  -0.394  0.00  0.00     0.210 HD
ENDBRANCH  30  32
ENDBRANCH  25  30
ENDBRANCH  20  23
ENDBRANCH  17  19
ENDBRANCH  16  17
ENDBRANCH  13  16
ENDBRANCH   1  10
TORSDOF 7
ENDMDL
MODEL 5
REMARK VINA RESULT:      -7.1      3.184      4.528
REMARK  7 active torsions:
REMARK  status: ('A' for Active; 'I' for Inactive)
REMARK    1  A    between atoms: C_2  and  C_3 
REMARK    2  A    between atoms: C_2  and  N_19 
REMARK    3  A    between atoms: C_3  and  N_4 
REMARK    4  A    between atoms: C_7  and  C_10 
REMARK       I    between atoms: N_19  and  C_20 
REMARK    5  A    between atoms: C_20  and  C_22 
REMARK    6  A    between atoms: C_24  and  C_28 
REMARK    7  A    between atoms: C_28  and  O_30 
ROOT
HETATM    1  C   UNK N   1      28.660  18.259   6.370  0.00  0.00    -0.006 A 
HETATM    2  C   UNK N   1      28.535  17.773   5.079  0.00  0.00     0.015 A 
HETATM    3  C   UNK N   1      27.731  18.422   4.163  0.00  0.00     0.025 A 
HETATM    4  C   UNK N   1      27.090  19.606   4.507  0.00  0.00     0.066 A 
HETATM    5  C   UNK N   1      27.164  20.096   5.829  0.00  0.00     0.055 A 
HETATM    6  C   UNK N   1      27.953  19.411   6.767  0.00  0.00     0.039 A 
HETATM    7 Cl   UNK N   1      26.416  21.623   6.286  0.00  0.00    -0.083 Cl
HETATM    8  C   UNK N   1      26.453  20.327   3.445  0.00  0.00     0.101 C 
HETATM    9  N   UNK N   1      25.954  20.869   2.554  0.00  0.00    -0.191 NA
ENDROOT
BRANCH   1  10
HETATM   10  C   UNK N   1      29.804  17.823   7.147  0.00  0.00     0.059 A 
HETATM   11  C   UNK N   1      29.892  18.020   8.519  0.00  0.00     0.050 A 
HETATM   12  C   UNK N   1      30.852  17.124   8.935  0.00  0.00     0.112 A 
HETATM   13  N   UNK N   1      31.296  16.473   7.848  0.00  0.00    -0.301 N 
HETATM   14  N   UNK N   1      30.646  16.871   6.774  0.00  0.00    -0.298 N 
ATOM     15  HN  UNK N   1      30.770  16.510   5.827  1.00  0.00     0.187 HD
BRANCH  13  16
HETATM   16  C   UNK N   1      31.953  15.197   7.898  0.00  0.00     0.172 C 
BRANCH  16  17
HETATM   17  C   UNK N   1      33.416  15.477   7.563  0.00  0.00     0.100 C 
HETATM   18  C   UNK N   1      33.707  15.446   6.068  0.00  0.00     0.034 C 
BRANCH  17  19
HETATM   19  N   UNK N   1      33.820  16.769   8.067  0.00  0.00    -0.350 N 
HETATM   20  C   UNK N   1      34.561  16.863   9.178  0.00  0.00     0.270 C 
HETATM   21  O   UNK N   1      35.082  17.928   9.474  0.00  0.00    -0.266 OA
HETATM   22  H   UNK N   1      33.547  17.587   7.591  0.00  0.00     0.163 HD
BRANCH  20  23
HETATM   23  C   UNK N   1      34.801  15.681   9.991  0.00  0.00     0.117 A 
HETATM   24  C   UNK N   1      35.941  14.945   9.967  0.00  0.00     0.065 A 
HETATM   25  C   UNK N   1      35.717  13.978  10.913  0.00  0.00     0.056 A 
HETATM   26  N   UNK N   1      34.513  14.159  11.491  0.00  0.00    -0.302 N 
HETATM   27  N   UNK N   1      33.941  15.194  10.909  0.00  0.00    -0.295 N 
HETATM   28  H   UNK N   1      34.130  13.617  12.218  0.00  0.00     0.186 HD
ATOM     29  HN  UNK N   1      33.013  15.561  11.116  1.00  0.00     0.187 HD
BRANCH  25  30
HETATM   30  C   UNK N   1      36.760  13.037  11.377  0.00  0.00     0.165 C 
HETATM   31  C   UNK N   1      36.592  12.775  12.859  0.00  0.00     0.046 C 
BRANCH  30  32
HETATM   32  O   UNK N   1      38.007  13.636  11.175  0.00  0.00    -0.390 OA
HETATM   33  H   UNK N   1      38.609  14.003  11.841  0.00  0.00     0.210 HD
ENDBRANCH  30  32
ENDBRANCH  25  30
ENDBRANCH  20  23
ENDBRANCH  17  19
ENDBRANCH  16  17
ENDBRANCH  13  16
ENDBRANCH   1  10
TORSDOF 7
ENDMDL
MODEL 6
REMARK VINA RESULT:      -7.1      6.749     10.863
REMARK  7 active torsions:
REMARK  status: ('A' for Active; 'I' for Inactive)
REMARK    1  A    between atoms: C_2  and  C_3 
REMARK    2  A    between atoms: C_2  and  N_19 
REMARK    3  A    between atoms: C_3  and  N_4 
REMARK    4  A    between atoms: C_7  and  C_10 
REMARK       I    between atoms: N_19  and  C_20 
REMARK    5  A    between atoms: C_20  and  C_22 
REMARK    6  A    between atoms: C_24  and  C_28 
REMARK    7  A    between atoms: C_28  and  O_30 
ROOT
HETATM    1  C   UNK N   1      35.746  13.321  13.810  0.00  0.00    -0.006 A 
HETATM    2  C   UNK N   1      34.891  12.501  14.528  0.00  0.00     0.015 A 
HETATM    3  C   UNK N   1      34.844  12.579  15.906  0.00  0.00     0.025 A 
HETATM    4  C   UNK N   1      35.604  13.525  16.582  0.00  0.00     0.066 A 
HETATM    5  C   UNK N   1      36.517  14.339  15.876  0.00  0.00     0.055 A 
HETATM    6  C   UNK N   1      36.589  14.230  14.479  0.00  0.00     0.039 A 
HETATM    7 Cl   UNK N   1      37.453  15.589  16.691  0.00  0.00    -0.083 Cl
HETATM    8  C   UNK N   1      35.340  13.685  17.982  0.00  0.00     0.101 C 
HETATM    9  N   UNK N   1      35.090  13.774  19.107  0.00  0.00    -0.191 NA
ENDROOT
BRANCH   1  10
HETATM   10  C   UNK N   1      35.467  13.515  12.399  0.00  0.00     0.059 A 
HETATM   11  C   UNK N   1      35.446  14.772  11.810  0.00  0.00     0.050 A 
HETATM   12  C   UNK N   1      35.588  14.524  10.463  0.00  0.00     0.112 A 
HETATM   13  N   UNK N   1      35.663  13.193  10.302  0.00  0.00    -0.301 N 
HETATM   14  N   UNK N   1      35.620  12.584  11.469  0.00  0.00    -0.298 N 
ATOM     15  HN  UNK N   1      35.692  11.578  11.627  1.00  0.00     0.187 HD
BRANCH  13  16
HETATM   16  C   UNK N   1      36.236  12.562   9.147  0.00  0.00     0.172 C 
BRANCH  16  17
HETATM   17  C   UNK N   1      35.575  13.231   7.945  0.00  0.00     0.100 C 
HETATM   18  C   UNK N   1      36.570  13.664   6.875  0.00  0.00     0.034 C 
BRANCH  17  19
HETATM   19  N   UNK N   1      34.617  12.344   7.326  0.00  0.00    -0.350 N 
HETATM   20  C   UNK N   1      33.321  12.680   7.266  0.00  0.00     0.270 C 
HETATM   21  O   UNK N   1      32.560  12.042   6.556  0.00  0.00    -0.266 OA
HETATM   22  H   UNK N   1      34.918  11.487   6.947  0.00  0.00     0.163 HD
BRANCH  20  23
HETATM   23  C   UNK N   1      32.840  13.845   7.992  0.00  0.00     0.117 A 
HETATM   24  C   UNK N   1      32.718  15.089   7.463  0.00  0.00     0.065 A 
HETATM   25  C   UNK N   1      32.198  15.825   8.496  0.00  0.00     0.056 A 
HETATM   26  N   UNK N   1      31.992  15.041   9.573  0.00  0.00    -0.302 N 
HETATM   27  N   UNK N   1      32.407  13.828   9.269  0.00  0.00    -0.295 N 
HETATM   28  H   UNK N   1      31.601  15.324  10.431  0.00  0.00     0.186 HD
ATOM     29  HN  UNK N   1      32.401  13.019   9.890  1.00  0.00     0.187 HD
BRANCH  25  30
HETATM   30  C   UNK N   1      31.720  17.217   8.341  0.00  0.00     0.165 C 
HETATM   31  C   UNK N   1      32.902  18.156   8.228  0.00  0.00     0.046 C 
BRANCH  30  32
HETATM   32  O   UNK N   1      30.995  17.558   9.487  0.00  0.00    -0.390 OA
HETATM   33  H   UNK N   1      30.077  17.334   9.703  0.00  0.00     0.210 HD
ENDBRANCH  30  32
ENDBRANCH  25  30
ENDBRANCH  20  23
ENDBRANCH  17  19
ENDBRANCH  16  17
ENDBRANCH  13  16
ENDBRANCH   1  10
TORSDOF 7
ENDMDL
MODEL 7
REMARK VINA RESULT:      -7.1      2.482      3.461
REMARK  7 active torsions:
REMARK  status: ('A' for Active; 'I' for Inactive)
REMARK    1  A    between atoms: C_2  and  C_3 
REMARK    2  A    between atoms: C_2  and  N_19 
REMARK    3  A    between atoms: C_3  and  N_4 
REMARK    4  A    between atoms: C_7  and  C_10 
REMARK       I    between atoms: N_19  and  C_20 
REMARK    5  A    between atoms: C_20  and  C_22 
REMARK    6  A    between atoms: C_24  and  C_28 
REMARK    7  A    between atoms: C_28  and  O_30 
ROOT
HETATM    1  C   UNK N   1      27.414  18.640   4.428  0.00  0.00    -0.006 A 
HETATM    2  C   UNK N   1      27.440  19.941   3.950  0.00  0.00     0.015 A 
HETATM    3  C   UNK N   1      26.303  20.507   3.408  0.00  0.00     0.025 A 
HETATM    4  C   UNK N   1      25.105  19.803   3.397  0.00  0.00     0.066 A 
HETATM    5  C   UNK N   1      25.065  18.462   3.835  0.00  0.00     0.055 A 
HETATM    6  C   UNK N   1      26.233  17.877   4.350  0.00  0.00     0.039 A 
HETATM    7 Cl   UNK N   1      23.555  17.558   3.891  0.00  0.00    -0.083 Cl
HETATM    8  C   UNK N   1      23.931  20.533   3.017  0.00  0.00     0.101 C 
HETATM    9  N   UNK N   1      23.016  21.165   2.703  0.00  0.00    -0.191 NA
ENDROOT
BRANCH   1  10
HETATM   10  C   UNK N   1      28.460  18.241   5.350  0.00  0.00     0.059 A 
HETATM   11  C   UNK N   1      28.356  18.429   6.722  0.00  0.00     0.050 A 
HETATM   12  C   UNK N   1      29.284  17.566   7.260  0.00  0.00     0.112 A 
HETATM   13  N   UNK N   1      29.894  16.940   6.241  0.00  0.00    -0.301 N 
HETATM   14  N   UNK N   1      29.380  17.323   5.091  0.00  0.00    -0.298 N 
ATOM     15  HN  UNK N   1      29.642  16.975   4.168  1.00  0.00     0.187 HD
BRANCH  13  16
HETATM   16  C   UNK N   1      30.586  15.689   6.375  0.00  0.00     0.172 C 
BRANCH  16  17
HETATM   17  C   UNK N   1      32.063  16.014   6.166  0.00  0.00     0.100 C 
HETATM   18  C   UNK N   1      32.499  15.922   4.710  0.00  0.00     0.034 C 
BRANCH  17  19
HETATM   19  N   UNK N   1      32.367  17.346   6.637  0.00  0.00    -0.350 N 
HETATM   20  C   UNK N   1      32.941  17.529   7.833  0.00  0.00     0.270 C 
HETATM   21  O   UNK N   1      33.395  18.623   8.129  0.00  0.00    -0.266 OA
HETATM   22  H   UNK N   1      32.150  18.125   6.075  0.00  0.00     0.163 HD
BRANCH  20  23
HETATM   23  C   UNK N   1      33.085  16.406   8.747  0.00  0.00     0.117 A 
HETATM   24  C   UNK N   1      34.236  15.716   8.949  0.00  0.00     0.065 A 
HETATM   25  C   UNK N   1      33.894  14.797   9.907  0.00  0.00     0.056 A 
HETATM   26  N   UNK N   1      32.608  14.963  10.276  0.00  0.00    -0.302 N 
HETATM   27  N   UNK N   1      32.105  15.938   9.548  0.00  0.00    -0.295 N 
HETATM   28  H   UNK N   1      32.131  14.448  10.967  0.00  0.00     0.186 HD
ATOM     29  HN  UNK N   1      31.145  16.279   9.582  1.00  0.00     0.187 HD
BRANCH  25  30
HETATM   30  C   UNK N   1      34.879  13.928  10.588  0.00  0.00     0.165 C 
HETATM   31  C   UNK N   1      36.076  13.707   9.687  0.00  0.00     0.046 C 
BRANCH  30  32
HETATM   32  O   UNK N   1      34.275  12.691  10.828  0.00  0.00    -0.390 OA
HETATM   33  H   UNK N   1      33.353  12.434  10.672  0.00  0.00     0.210 HD
ENDBRANCH  30  32
ENDBRANCH  25  30
ENDBRANCH  20  23
ENDBRANCH  17  19
ENDBRANCH  16  17
ENDBRANCH  13  16
ENDBRANCH   1  10
TORSDOF 7
ENDMDL
MODEL 8
REMARK VINA RESULT:      -6.9      6.819     10.500
REMARK  7 active torsions:
REMARK  status: ('A' for Active; 'I' for Inactive)
REMARK    1  A    between atoms: C_2  and  C_3 
REMARK    2  A    between atoms: C_2  and  N_19 
REMARK    3  A    between atoms: C_3  and  N_4 
REMARK    4  A    between atoms: C_7  and  C_10 
REMARK       I    between atoms: N_19  and  C_20 
REMARK    5  A    between atoms: C_20  and  C_22 
REMARK    6  A    between atoms: C_24  and  C_28 
REMARK    7  A    between atoms: C_28  and  O_30 
ROOT
HETATM    1  C   UNK N   1      21.480  13.750   7.397  0.00  0.00    -0.006 A 
HETATM    2  C   UNK N   1      20.965  14.301   8.560  0.00  0.00     0.015 A 
HETATM    3  C   UNK N   1      21.233  13.722   9.785  0.00  0.00     0.025 A 
HETATM    4  C   UNK N   1      22.076  12.620   9.871  0.00  0.00     0.066 A 
HETATM    5  C   UNK N   1      22.574  12.013   8.697  0.00  0.00     0.055 A 
HETATM    6  C   UNK N   1      22.267  12.584   7.452  0.00  0.00     0.039 A 
HETATM    7 Cl   UNK N   1      23.690  10.654   8.770  0.00  0.00    -0.083 Cl
HETATM    8  C   UNK N   1      22.474  12.214  11.186  0.00  0.00     0.101 C 
HETATM    9  N   UNK N   1      22.763  11.925  12.267  0.00  0.00    -0.191 NA
ENDROOT
BRANCH   1  10
HETATM   10  C   UNK N   1      21.540  14.595   6.220  0.00  0.00     0.059 A 
HETATM   11  C   UNK N   1      22.401  14.338   5.162  0.00  0.00     0.050 A 
HETATM   12  C   UNK N   1      21.874  15.052   4.108  0.00  0.00     0.112 A 
HETATM   13  N   UNK N   1      20.785  15.694   4.558  0.00  0.00    -0.301 N 
HETATM   14  N   UNK N   1      20.564  15.398   5.822  0.00  0.00    -0.298 N 
ATOM     15  HN  UNK N   1      19.783  15.728   6.390  1.00  0.00     0.187 HD
BRANCH  13  16
HETATM   16  C   UNK N   1      19.734  16.173   3.705  0.00  0.00     0.172 C 
BRANCH  16  17
HETATM   17  C   UNK N   1      20.370  17.264   2.847  0.00  0.00     0.100 C 
HETATM   18  C   UNK N   1      20.134  17.069   1.354  0.00  0.00     0.034 C 
BRANCH  17  19
HETATM   19  N   UNK N   1      19.859  18.566   3.209  0.00  0.00    -0.350 N 
HETATM   20  C   UNK N   1      20.671  19.490   3.741  0.00  0.00     0.270 C 
HETATM   21  O   UNK N   1      20.294  20.647   3.838  0.00  0.00    -0.266 OA
HETATM   22  H   UNK N   1      18.908  18.776   3.066  0.00  0.00     0.163 HD
BRANCH  20  23
HETATM   23  C   UNK N   1      22.023  19.125   4.135  0.00  0.00     0.117 A 
HETATM   24  C   UNK N   1      23.147  19.484   3.464  0.00  0.00     0.065 A 
HETATM   25  C   UNK N   1      24.156  18.952   4.225  0.00  0.00     0.056 A 
HETATM   26  N   UNK N   1      23.649  18.339   5.312  0.00  0.00    -0.302 N 
HETATM   27  N   UNK N   1      22.336  18.427   5.246  0.00  0.00    -0.295 N 
HETATM   28  H   UNK N   1      24.167  17.904   6.028  0.00  0.00     0.186 HD
ATOM     29  HN  UNK N   1      21.674  18.036   5.915  1.00  0.00     0.187 HD
BRANCH  25  30
HETATM   30  C   UNK N   1      25.589  19.237   3.988  0.00  0.00     0.165 C 
HETATM   31  C   UNK N   1      25.729  20.323   2.941  0.00  0.00     0.046 C 
BRANCH  30  32
HETATM   32  O   UNK N   1      26.188  18.074   3.498  0.00  0.00    -0.390 OA
HETATM   33  H   UNK N   1      27.084  17.745   3.670  0.00  0.00     0.210 HD
ENDBRANCH  30  32
ENDBRANCH  25  30
ENDBRANCH  20  23
ENDBRANCH  17  19
ENDBRANCH  16  17
ENDBRANCH  13  16
ENDBRANCH   1  10
TORSDOF 7
ENDMDL
MODEL 9
REMARK VINA RESULT:      -6.9      6.143      9.276
REMARK  7 active torsions:
REMARK  status: ('A' for Active; 'I' for Inactive)
REMARK    1  A    between atoms: C_2  and  C_3 
REMARK    2  A    between atoms: C_2  and  N_19 
REMARK    3  A    between atoms: C_3  and  N_4 
REMARK    4  A    between atoms: C_7  and  C_10 
REMARK       I    between atoms: N_19  and  C_20 
REMARK    5  A    between atoms: C_20  and  C_22 
REMARK    6  A    between atoms: C_24  and  C_28 
REMARK    7  A    between atoms: C_28  and  O_30 
ROOT
HETATM    1  C   UNK N   1      21.793  13.858   8.271  0.00  0.00    -0.006 A 
HETATM    2  C   UNK N   1      20.838  13.418   9.174  0.00  0.00     0.015 A 
HETATM    3  C   UNK N   1      21.220  12.783  10.339  0.00  0.00     0.025 A 
HETATM    4  C   UNK N   1      22.567  12.637  10.651  0.00  0.00     0.066 A 
HETATM    5  C   UNK N   1      23.557  13.035   9.726  0.00  0.00     0.055 A 
HETATM    6  C   UNK N   1      23.162  13.646   8.525  0.00  0.00     0.039 A 
HETATM    7 Cl   UNK N   1      25.271  12.922  10.110  0.00  0.00    -0.083 Cl
HETATM    8  C   UNK N   1      22.877  12.165  11.968  0.00  0.00     0.101 C 
HETATM    9  N   UNK N   1      23.075  11.779  13.039  0.00  0.00    -0.191 NA
ENDROOT
BRANCH   1  10
HETATM   10  C   UNK N   1      21.395  14.867   7.308  0.00  0.00     0.059 A 
HETATM   11  C   UNK N   1      20.101  15.363   7.241  0.00  0.00     0.050 A 
HETATM   12  C   UNK N   1      20.221  16.550   6.553  0.00  0.00     0.112 A 
HETATM   13  N   UNK N   1      21.516  16.701   6.231  0.00  0.00    -0.301 N 
HETATM   14  N   UNK N   1      22.230  15.704   6.709  0.00  0.00    -0.298 N 
ATOM     15  HN  UNK N   1      23.242  15.596   6.633  1.00  0.00     0.187 HD
BRANCH  13  16
HETATM   16  C   UNK N   1      22.114  17.967   5.912  0.00  0.00     0.172 C 
BRANCH  16  17
HETATM   17  C   UNK N   1      22.764  17.778   4.543  0.00  0.00     0.100 C 
HETATM   18  C   UNK N   1      22.000  16.816   3.642  0.00  0.00     0.034 C 
BRANCH  17  19
HETATM   19  N   UNK N   1      22.877  19.040   3.849  0.00  0.00    -0.350 N 
HETATM   20  C   UNK N   1      24.072  19.623   3.690  0.00  0.00     0.270 C 
HETATM   21  O   UNK N   1      24.192  20.564   2.921  0.00  0.00    -0.266 OA
HETATM   22  H   UNK N   1      22.069  19.476   3.492  0.00  0.00     0.163 HD
BRANCH  20  23
HETATM   23  C   UNK N   1      25.236  19.089   4.381  0.00  0.00     0.117 A 
HETATM   24  C   UNK N   1      26.164  18.276   3.816  0.00  0.00     0.065 A 
HETATM   25  C   UNK N   1      27.069  18.075   4.825  0.00  0.00     0.056 A 
HETATM   26  N   UNK N   1      26.708  18.768   5.923  0.00  0.00    -0.302 N 
HETATM   27  N   UNK N   1      25.569  19.375   5.656  0.00  0.00    -0.295 N 
HETATM   28  H   UNK N   1      27.206  18.814   6.771  0.00  0.00     0.186 HD
ATOM     29  HN  UNK N   1      25.034  19.957   6.300  1.00  0.00     0.187 HD
BRANCH  25  30
HETATM   30  C   UNK N   1      28.367  17.391   4.629  0.00  0.00     0.165 C 
HETATM   31  C   UNK N   1      28.754  16.653   5.894  0.00  0.00     0.046 C 
BRANCH  30  32
HETATM   32  O   UNK N   1      29.337  18.363   4.372  0.00  0.00    -0.390 OA
HETATM   33  H   UNK N   1      30.301  18.257   4.358  0.00  0.00     0.210 HD
ENDBRANCH  30  32
ENDBRANCH  25  30
ENDBRANCH  20  23
ENDBRANCH  17  19
ENDBRANCH  16  17
ENDBRANCH  13  16
ENDBRANCH   1  10
TORSDOF 7
ENDMDL
