MODEL 1
REMARK VINA RESULT:      -4.6      0.000      0.000
REMARK  9 active torsions:
REMARK  status: ('A' for Active; 'I' for Inactive)
REMARK    1  A    between atoms: C_1  and  C_2 
REMARK    2  A    between atoms: C_2  and  C_3 
REMARK    3  A    between atoms: C_2  and  O_11 
REMARK    4  A    between atoms: C_3  and  C_4 
REMARK    5  A    between atoms: C_3  and  O_10 
REMARK    6  A    between atoms: C_4  and  C_5 
REMARK    7  A    between atoms: C_4  and  O_9 
REMARK    8  A    between atoms: C_5  and  C_6 
REMARK    9  A    between atoms: C_5  and  O_8 
ROOT
HETATM    1  C   UNK N   1      34.740  15.403  10.565  0.00  0.00     0.178 C 
ENDROOT
BRANCH   1   2
HETATM    2  C   UNK N   1      34.431  16.601   9.641  0.00  0.00     0.159 C 
BRANCH   2   3
HETATM    3  C   UNK N   1      34.588  16.228   8.170  0.00  0.00     0.119 C 
HETATM    4 Br   UNK N   1      33.827  17.549   6.970  0.00  0.00    -0.094 Br
ENDBRANCH   2   3
BRANCH   2   5
HETATM    5  O   UNK N   1      35.302  17.658   9.899  0.00  0.00    -0.392 OA
HETATM    6  H   UNK N   1      35.413  18.376   9.257  0.00  0.00     0.210 HD
ENDBRANCH   2   5
ENDBRANCH   1   2
BRANCH   1   7
HETATM    7  C   UNK N   1      35.849  15.709  11.596  0.00  0.00     0.178 C 
BRANCH   7   8
HETATM    8  C   UNK N   1      36.010  14.597  12.654  0.00  0.00     0.159 C 
BRANCH   8   9
HETATM    9  C   UNK N   1      36.725  13.376  12.080  0.00  0.00     0.119 C 
HETATM   10 Br   UNK N   1      35.548  11.852  11.840  0.00  0.00    -0.094 Br
ENDBRANCH   8   9
BRANCH   8  11
HETATM   11  O   UNK N   1      36.762  15.052  13.736  0.00  0.00    -0.392 OA
HETATM   12  H   UNK N   1      36.365  15.632  14.406  0.00  0.00     0.210 HD
ENDBRANCH   8  11
ENDBRANCH   7   8
BRANCH   7  13
HETATM   13  O   UNK N   1      37.065  15.885  10.936  0.00  0.00    -0.390 OA
HETATM   14  H   UNK N   1      37.275  15.380  10.135  0.00  0.00     0.210 HD
ENDBRANCH   7  13
ENDBRANCH   1   7
BRANCH   1  15
HETATM   15  O   UNK N   1      33.572  15.033  11.231  0.00  0.00    -0.390 OA
HETATM   16  H   UNK N   1      33.421  15.293  12.153  0.00  0.00     0.210 HD
ENDBRANCH   1  15
TORSDOF 9
ENDMDL
MODEL 2
REMARK VINA RESULT:      -4.5      1.923      2.487
REMARK  9 active torsions:
REMARK  status: ('A' for Active; 'I' for Inactive)
REMARK    1  A    between atoms: C_1  and  C_2 
REMARK    2  A    between atoms: C_2  and  C_3 
REMARK    3  A    between atoms: C_2  and  O_11 
REMARK    4  A    between atoms: C_3  and  C_4 
REMARK    5  A    between atoms: C_3  and  O_10 
REMARK    6  A    between atoms: C_4  and  C_5 
REMARK    7  A    between atoms: C_4  and  O_9 
REMARK    8  A    between atoms: C_5  and  C_6 
REMARK    9  A    between atoms: C_5  and  O_8 
ROOT
HETATM    1  C   UNK N   1      35.032  14.720  11.483  0.00  0.00     0.178 C 
ENDROOT
BRANCH   1   2
HETATM    2  C   UNK N   1      35.617  16.101  11.120  0.00  0.00     0.159 C 
BRANCH   2   3
HETATM    3  C   UNK N   1      34.901  16.714   9.920  0.00  0.00     0.119 C 
HETATM    4 Br   UNK N   1      34.956  15.581   8.346  0.00  0.00    -0.094 Br
ENDBRANCH   2   3
BRANCH   2   5
HETATM    5  O   UNK N   1      36.967  15.992  10.790  0.00  0.00    -0.392 OA
HETATM    6  H   UNK N   1      37.651  16.339  11.383  0.00  0.00     0.210 HD
ENDBRANCH   2   5
ENDBRANCH   1   2
BRANCH   1   7
HETATM    7  C   UNK N   1      35.477  14.225  12.877  0.00  0.00     0.178 C 
BRANCH   7   8
HETATM    8  C   UNK N   1      35.378  12.693  13.032  0.00  0.00     0.159 C 
BRANCH   8   9
HETATM    9  C   UNK N   1      34.995  12.295  14.455  0.00  0.00     0.119 C 
HETATM   10 Br   UNK N   1      33.763  10.798  14.518  0.00  0.00    -0.094 Br
ENDBRANCH   8   9
BRANCH   8  11
HETATM   11  O   UNK N   1      34.407  12.173  12.177  0.00  0.00    -0.392 OA
HETATM   12  H   UNK N   1      33.594  12.670  11.992  0.00  0.00     0.210 HD
ENDBRANCH   8  11
ENDBRANCH   7   8
BRANCH   7  13
HETATM   13  O   UNK N   1      36.795  14.619  13.113  0.00  0.00    -0.390 OA
HETATM   14  H   UNK N   1      37.328  14.190  13.801  0.00  0.00     0.210 HD
ENDBRANCH   7  13
ENDBRANCH   1   7
BRANCH   1  15
HETATM   15  O   UNK N   1      33.639  14.793  11.437  0.00  0.00    -0.390 OA
HETATM   16  H   UNK N   1      33.152  14.522  10.643  0.00  0.00     0.210 HD
ENDBRANCH   1  15
TORSDOF 9
ENDMDL
MODEL 3
REMARK VINA RESULT:      -4.5      1.777      5.289
REMARK  9 active torsions:
REMARK  status: ('A' for Active; 'I' for Inactive)
REMARK    1  A    between atoms: C_1  and  C_2 
REMARK    2  A    between atoms: C_2  and  C_3 
REMARK    3  A    between atoms: C_2  and  O_11 
REMARK    4  A    between atoms: C_3  and  C_4 
REMARK    5  A    between atoms: C_3  and  O_10 
REMARK    6  A    between atoms: C_4  and  C_5 
REMARK    7  A    between atoms: C_4  and  O_9 
REMARK    8  A    between atoms: C_5  and  C_6 
REMARK    9  A    between atoms: C_5  and  O_8 
ROOT
HETATM    1  C   UNK N   1      35.612  14.420  11.629  0.00  0.00     0.178 C 
ENDROOT
BRANCH   1   2
HETATM    2  C   UNK N   1      35.281  13.760  12.984  0.00  0.00     0.159 C 
BRANCH   2   3
HETATM    3  C   UNK N   1      36.534  13.210  13.660  0.00  0.00     0.119 C 
HETATM    4 Br   UNK N   1      36.890  14.035  15.379  0.00  0.00    -0.094 Br
ENDBRANCH   2   3
BRANCH   2   5
HETATM    5  O   UNK N   1      34.400  12.694  12.809  0.00  0.00    -0.392 OA
HETATM    6  H   UNK N   1      34.727  11.782  12.771  0.00  0.00     0.210 HD
ENDBRANCH   2   5
ENDBRANCH   1   2
BRANCH   1   7
HETATM    7  C   UNK N   1      34.582  15.495  11.216  0.00  0.00     0.178 C 
BRANCH   7   8
HETATM    8  C   UNK N   1      34.993  16.264   9.943  0.00  0.00     0.159 C 
BRANCH   8   9
HETATM    9  C   UNK N   1      33.780  16.629   9.091  0.00  0.00     0.119 C 
HETATM   10 Br   UNK N   1      34.082  18.185   7.971  0.00  0.00    -0.094 Br
ENDBRANCH   8   9
BRANCH   8  11
HETATM   11  O   UNK N   1      35.644  17.452  10.275  0.00  0.00    -0.392 OA
HETATM   12  H   UNK N   1      35.462  18.269   9.785  0.00  0.00     0.210 HD
ENDBRANCH   8  11
ENDBRANCH   7   8
BRANCH   7  13
HETATM   13  O   UNK N   1      33.342  14.893  10.999  0.00  0.00    -0.390 OA
HETATM   14  H   UNK N   1      32.677  14.854  11.704  0.00  0.00     0.210 HD
ENDBRANCH   7  13
ENDBRANCH   1   7
BRANCH   1  15
HETATM   15  O   UNK N   1      36.881  14.995  11.705  0.00  0.00    -0.390 OA
HETATM   16  H   UNK N   1      37.677  14.473  11.516  0.00  0.00     0.210 HD
ENDBRANCH   1  15
TORSDOF 9
ENDMDL
MODEL 4
REMARK VINA RESULT:      -4.5      1.896      5.176
REMARK  9 active torsions:
REMARK  status: ('A' for Active; 'I' for Inactive)
REMARK    1  A    between atoms: C_1  and  C_2 
REMARK    2  A    between atoms: C_2  and  C_3 
REMARK    3  A    between atoms: C_2  and  O_11 
REMARK    4  A    between atoms: C_3  and  C_4 
REMARK    5  A    between atoms: C_3  and  O_10 
REMARK    6  A    between atoms: C_4  and  C_5 
REMARK    7  A    between atoms: C_4  and  O_9 
REMARK    8  A    between atoms: C_5  and  C_6 
REMARK    9  A    between atoms: C_5  and  O_8 
ROOT
HETATM    1  C   UNK N   1      36.026  13.343  11.999  0.00  0.00     0.178 C 
ENDROOT
BRANCH   1   2
HETATM    2  C   UNK N   1      35.605  12.663  13.319  0.00  0.00     0.159 C 
BRANCH   2   3
HETATM    3  C   UNK N   1      34.797  11.394  13.062  0.00  0.00     0.119 C 
HETATM    4 Br   UNK N   1      33.788  10.812  14.612  0.00  0.00    -0.094 Br
ENDBRANCH   2   3
BRANCH   2   5
HETATM    5  O   UNK N   1      34.809  13.517  14.080  0.00  0.00    -0.392 OA
HETATM    6  H   UNK N   1      35.107  13.831  14.947  0.00  0.00     0.210 HD
ENDBRANCH   2   5
ENDBRANCH   1   2
BRANCH   1   7
HETATM    7  C   UNK N   1      35.332  14.705  11.774  0.00  0.00     0.178 C 
BRANCH   7   8
HETATM    8  C   UNK N   1      35.904  15.480  10.569  0.00  0.00     0.159 C 
BRANCH   8   9
HETATM    9  C   UNK N   1      34.953  16.582  10.109  0.00  0.00     0.119 C 
HETATM   10 Br   UNK N   1      34.386  16.371   8.265  0.00  0.00    -0.094 Br
ENDBRANCH   8   9
BRANCH   8  11
HETATM   11  O   UNK N   1      37.115  16.085  10.903  0.00  0.00    -0.392 OA
HETATM   12  H   UNK N   1      37.478  16.799  10.356  0.00  0.00     0.210 HD
ENDBRANCH   8  11
ENDBRANCH   7   8
BRANCH   7  13
HETATM   13  O   UNK N   1      33.966  14.504  11.576  0.00  0.00    -0.390 OA
HETATM   14  H   UNK N   1      33.516  14.868  10.798  0.00  0.00     0.210 HD
ENDBRANCH   7  13
ENDBRANCH   1   7
BRANCH   1  15
HETATM   15  O   UNK N   1      37.410  13.520  12.004  0.00  0.00    -0.390 OA
HETATM   16  H   UNK N   1      38.008  12.772  12.158  0.00  0.00     0.210 HD
ENDBRANCH   1  15
TORSDOF 9
ENDMDL
MODEL 5
REMARK VINA RESULT:      -4.4      2.017      2.801
REMARK  9 active torsions:
REMARK  status: ('A' for Active; 'I' for Inactive)
REMARK    1  A    between atoms: C_1  and  C_2 
REMARK    2  A    between atoms: C_2  and  C_3 
REMARK    3  A    between atoms: C_2  and  O_11 
REMARK    4  A    between atoms: C_3  and  C_4 
REMARK    5  A    between atoms: C_3  and  O_10 
REMARK    6  A    between atoms: C_4  and  C_5 
REMARK    7  A    between atoms: C_4  and  O_9 
REMARK    8  A    between atoms: C_5  and  C_6 
REMARK    9  A    between atoms: C_5  and  O_8 
ROOT
HETATM    1  C   UNK N   1      35.483  15.067  11.908  0.00  0.00     0.178 C 
ENDROOT
BRANCH   1   2
HETATM    2  C   UNK N   1      34.518  14.916  10.713  0.00  0.00     0.159 C 
BRANCH   2   3
HETATM    3  C   UNK N   1      34.743  16.008   9.671  0.00  0.00     0.119 C 
HETATM    4 Br   UNK N   1      34.824  15.319   7.859  0.00  0.00    -0.094 Br
ENDBRANCH   2   3
BRANCH   2   5
HETATM    5  O   UNK N   1      33.193  15.009  11.136  0.00  0.00    -0.392 OA
HETATM    6  H   UNK N   1      32.824  14.359  11.754  0.00  0.00     0.210 HD
ENDBRANCH   2   5
ENDBRANCH   1   2
BRANCH   1   7
HETATM    7  C   UNK N   1      35.639  13.764  12.724  0.00  0.00     0.178 C 
BRANCH   7   8
HETATM    8  C   UNK N   1      36.021  14.018  14.197  0.00  0.00     0.159 C 
BRANCH   8   9
HETATM    9  C   UNK N   1      36.578  12.760  14.858  0.00  0.00     0.119 C 
HETATM   10 Br   UNK N   1      35.565  12.213  16.420  0.00  0.00    -0.094 Br
ENDBRANCH   8   9
BRANCH   8  11
HETATM   11  O   UNK N   1      36.999  15.007  14.289  0.00  0.00    -0.392 OA
HETATM   12  H   UNK N   1      37.033  15.600  15.056  0.00  0.00     0.210 HD
ENDBRANCH   8  11
ENDBRANCH   7   8
BRANCH   7  13
HETATM   13  O   UNK N   1      34.446  13.042  12.684  0.00  0.00    -0.390 OA
HETATM   14  H   UNK N   1      34.200  12.445  13.407  0.00  0.00     0.210 HD
ENDBRANCH   7  13
ENDBRANCH   1   7
BRANCH   1  15
HETATM   15  O   UNK N   1      36.730  15.473  11.434  0.00  0.00    -0.390 OA
HETATM   16  H   UNK N   1      37.239  14.912  10.827  0.00  0.00     0.210 HD
ENDBRANCH   1  15
TORSDOF 9
ENDMDL
MODEL 6
REMARK VINA RESULT:      -4.3      1.609      2.114
REMARK  9 active torsions:
REMARK  status: ('A' for Active; 'I' for Inactive)
REMARK    1  A    between atoms: C_1  and  C_2 
REMARK    2  A    between atoms: C_2  and  C_3 
REMARK    3  A    between atoms: C_2  and  O_11 
REMARK    4  A    between atoms: C_3  and  C_4 
REMARK    5  A    between atoms: C_3  and  O_10 
REMARK    6  A    between atoms: C_4  and  C_5 
REMARK    7  A    between atoms: C_4  and  O_9 
REMARK    8  A    between atoms: C_5  and  C_6 
REMARK    9  A    between atoms: C_5  and  O_8 
ROOT
HETATM    1  C   UNK N   1      34.939  14.802  11.202  0.00  0.00     0.178 C 
ENDROOT
BRANCH   1   2
HETATM    2  C   UNK N   1      35.512  16.214  10.959  0.00  0.00     0.159 C 
BRANCH   2   3
HETATM    3  C   UNK N   1      34.904  16.860   9.718  0.00  0.00     0.119 C 
HETATM    4 Br   UNK N   1      34.777  15.640   8.215  0.00  0.00    -0.094 Br
ENDBRANCH   2   3
BRANCH   2   5
HETATM    5  O   UNK N   1      36.892  16.158  10.767  0.00  0.00    -0.392 OA
HETATM    6  H   UNK N   1      37.501  16.443  11.466  0.00  0.00     0.210 HD
ENDBRANCH   2   5
ENDBRANCH   1   2
BRANCH   1   7
HETATM    7  C   UNK N   1      35.603  14.079  12.394  0.00  0.00     0.178 C 
BRANCH   7   8
HETATM    8  C   UNK N   1      36.533  12.927  11.957  0.00  0.00     0.159 C 
BRANCH   8   9
HETATM    9  C   UNK N   1      36.053  12.280  10.660  0.00  0.00     0.119 C 
HETATM   10 Br   UNK N   1      37.282  12.544   9.182  0.00  0.00    -0.094 Br
ENDBRANCH   8   9
BRANCH   8  11
HETATM   11  O   UNK N   1      37.827  13.396  11.737  0.00  0.00    -0.392 OA
HETATM   12  H   UNK N   1      38.582  12.787  11.746  0.00  0.00     0.210 HD
ENDBRANCH   8  11
ENDBRANCH   7   8
BRANCH   7  13
HETATM   13  O   UNK N   1      36.341  14.996  13.143  0.00  0.00    -0.390 OA
HETATM   14  H   UNK N   1      37.007  15.563  12.723  0.00  0.00     0.210 HD
ENDBRANCH   7  13
ENDBRANCH   1   7
BRANCH   1  15
HETATM   15  O   UNK N   1      33.566  14.904  11.425  0.00  0.00    -0.390 OA
HETATM   16  H   UNK N   1      33.220  15.389  12.191  0.00  0.00     0.210 HD
ENDBRANCH   1  15
TORSDOF 9
ENDMDL
MODEL 7
REMARK VINA RESULT:      -4.3      1.578      5.085
REMARK  9 active torsions:
REMARK  status: ('A' for Active; 'I' for Inactive)
REMARK    1  A    between atoms: C_1  and  C_2 
REMARK    2  A    between atoms: C_2  and  C_3 
REMARK    3  A    between atoms: C_2  and  O_11 
REMARK    4  A    between atoms: C_3  and  C_4 
REMARK    5  A    between atoms: C_3  and  O_10 
REMARK    6  A    between atoms: C_4  and  C_5 
REMARK    7  A    between atoms: C_4  and  O_9 
REMARK    8  A    between atoms: C_5  and  C_6 
REMARK    9  A    between atoms: C_5  and  O_8 
ROOT
HETATM    1  C   UNK N   1      35.240  14.667  12.138  0.00  0.00     0.178 C 
ENDROOT
BRANCH   1   2
HETATM    2  C   UNK N   1      36.411  14.100  12.968  0.00  0.00     0.159 C 
BRANCH   2   3
HETATM    3  C   UNK N   1      35.994  12.857  13.749  0.00  0.00     0.119 C 
HETATM    4 Br   UNK N   1      35.876  13.168  15.660  0.00  0.00    -0.094 Br
ENDBRANCH   2   3
BRANCH   2   5
HETATM    5  O   UNK N   1      36.860  15.042  13.892  0.00  0.00    -0.392 OA
HETATM    6  H   UNK N   1      37.243  15.882  13.596  0.00  0.00     0.210 HD
ENDBRANCH   2   5
ENDBRANCH   1   2
BRANCH   1   7
HETATM    7  C   UNK N   1      35.697  15.287  10.798  0.00  0.00     0.178 C 
BRANCH   7   8
HETATM    8  C   UNK N   1      34.630  16.205  10.166  0.00  0.00     0.159 C 
BRANCH   8   9
HETATM    9  C   UNK N   1      34.829  16.342   8.658  0.00  0.00     0.119 C 
HETATM   10 Br   UNK N   1      34.256  18.064   7.972  0.00  0.00    -0.094 Br
ENDBRANCH   8   9
BRANCH   8  11
HETATM   11  O   UNK N   1      33.351  15.689  10.373  0.00  0.00    -0.392 OA
HETATM   12  H   UNK N   1      33.225  14.864  10.867  0.00  0.00     0.210 HD
ENDBRANCH   8  11
ENDBRANCH   7   8
BRANCH   7  13
HETATM   13  O   UNK N   1      36.865  16.022  10.999  0.00  0.00    -0.390 OA
HETATM   14  H   UNK N   1      37.649  15.615  11.400  0.00  0.00     0.210 HD
ENDBRANCH   7  13
ENDBRANCH   1   7
BRANCH   1  15
HETATM   15  O   UNK N   1      34.325  13.644  11.891  0.00  0.00    -0.390 OA
HETATM   16  H   UNK N   1      33.381  13.837  11.777  0.00  0.00     0.210 HD
ENDBRANCH   1  15
TORSDOF 9
ENDMDL
MODEL 8
REMARK VINA RESULT:      -4.2     13.430     14.767
REMARK  9 active torsions:
REMARK  status: ('A' for Active; 'I' for Inactive)
REMARK    1  A    between atoms: C_1  and  C_2 
REMARK    2  A    between atoms: C_2  and  C_3 
REMARK    3  A    between atoms: C_2  and  O_11 
REMARK    4  A    between atoms: C_3  and  C_4 
REMARK    5  A    between atoms: C_3  and  O_10 
REMARK    6  A    between atoms: C_4  and  C_5 
REMARK    7  A    between atoms: C_4  and  O_9 
REMARK    8  A    between atoms: C_5  and  C_6 
REMARK    9  A    between atoms: C_5  and  O_8 
ROOT
HETATM    1  C   UNK N   1      44.398  23.189   1.905  0.00  0.00     0.178 C 
ENDROOT
BRANCH   1   2
HETATM    2  C   UNK N   1      45.114  24.556   1.890  0.00  0.00     0.159 C 
BRANCH   2   3
HETATM    3  C   UNK N   1      45.587  24.926   0.487  0.00  0.00     0.119 C 
HETATM    4 Br   UNK N   1      45.244  26.781   0.037  0.00  0.00    -0.094 Br
ENDBRANCH   2   3
BRANCH   2   5
HETATM    5  O   UNK N   1      46.237  24.532   2.716  0.00  0.00    -0.392 OA
HETATM    6  H   UNK N   1      46.233  24.992   3.570  0.00  0.00     0.210 HD
ENDBRANCH   2   5
ENDBRANCH   1   2
BRANCH   1   7
HETATM    7  C   UNK N   1      43.732  22.873   3.262  0.00  0.00     0.178 C 
BRANCH   7   8
HETATM    8  C   UNK N   1      44.494  21.804   4.072  0.00  0.00     0.159 C 
BRANCH   8   9
HETATM    9  C   UNK N   1      44.556  20.473   3.327  0.00  0.00     0.119 C 
HETATM   10 Br   UNK N   1      42.801  19.744   2.932  0.00  0.00    -0.094 Br
ENDBRANCH   8   9
BRANCH   8  11
HETATM   11  O   UNK N   1      45.806  22.210   4.311  0.00  0.00    -0.392 OA
HETATM   12  H   UNK N   1      45.998  23.117   4.600  0.00  0.00     0.210 HD
ENDBRANCH   8  11
ENDBRANCH   7   8
BRANCH   7  13
HETATM   13  O   UNK N   1      43.646  24.040   4.023  0.00  0.00    -0.390 OA
HETATM   14  H   UNK N   1      44.150  24.832   3.779  0.00  0.00     0.210 HD
ENDBRANCH   7  13
ENDBRANCH   1   7
BRANCH   1  15
HETATM   15  O   UNK N   1      43.433  23.174   0.897  0.00  0.00    -0.390 OA
HETATM   16  H   UNK N   1      43.664  23.403  -0.017  0.00  0.00     0.210 HD
ENDBRANCH   1  15
TORSDOF 9
ENDMDL
MODEL 9
REMARK VINA RESULT:      -4.1      2.102      3.065
REMARK  9 active torsions:
REMARK  status: ('A' for Active; 'I' for Inactive)
REMARK    1  A    between atoms: C_1  and  C_2 
REMARK    2  A    between atoms: C_2  and  C_3 
REMARK    3  A    between atoms: C_2  and  O_11 
REMARK    4  A    between atoms: C_3  and  C_4 
REMARK    5  A    between atoms: C_3  and  O_10 
REMARK    6  A    between atoms: C_4  and  C_5 
REMARK    7  A    between atoms: C_4  and  O_9 
REMARK    8  A    between atoms: C_5  and  C_6 
REMARK    9  A    between atoms: C_5  and  O_8 
ROOT
HETATM    1  C   UNK N   1      33.558  16.337   8.189  0.00  0.00     0.178 C 
ENDROOT
BRANCH   1   2
HETATM    2  C   UNK N   1      33.339  17.570   7.287  0.00  0.00     0.159 C 
BRANCH   2   3
HETATM    3  C   UNK N   1      32.211  17.340   6.286  0.00  0.00     0.119 C 
HETATM    4 Br   UNK N   1      32.845  17.132   4.465  0.00  0.00    -0.094 Br
ENDBRANCH   2   3
BRANCH   2   5
HETATM    5  O   UNK N   1      34.492  17.856   6.557  0.00  0.00    -0.392 OA
HETATM    6  H   UNK N   1      35.287  18.193   6.999  0.00  0.00     0.210 HD
ENDBRANCH   2   5
ENDBRANCH   1   2
BRANCH   1   7
HETATM    7  C   UNK N   1      34.073  16.705   9.598  0.00  0.00     0.178 C 
BRANCH   7   8
HETATM    8  C   UNK N   1      34.486  15.473  10.428  0.00  0.00     0.159 C 
BRANCH   8   9
HETATM    9  C   UNK N   1      35.616  15.804  11.401  0.00  0.00     0.119 C 
HETATM   10 Br   UNK N   1      36.061  14.325  12.577  0.00  0.00    -0.094 Br
ENDBRANCH   8   9
BRANCH   8  11
HETATM   11  O   UNK N   1      33.411  15.003  11.181  0.00  0.00    -0.392 OA
HETATM   12  H   UNK N   1      32.654  15.578  11.374  0.00  0.00     0.210 HD
ENDBRANCH   8  11
ENDBRANCH   7   8
BRANCH   7  13
HETATM   13  O   UNK N   1      35.168  17.562   9.485  0.00  0.00    -0.390 OA
HETATM   14  H   UNK N   1      35.085  18.423   9.045  0.00  0.00     0.210 HD
ENDBRANCH   7  13
ENDBRANCH   1   7
BRANCH   1  15
HETATM   15  O   UNK N   1      32.355  15.640   8.300  0.00  0.00    -0.390 OA
HETATM   16  H   UNK N   1      31.888  15.323   7.510  0.00  0.00     0.210 HD
ENDBRANCH   1  15
TORSDOF 9
ENDMDL
