MODEL 1
REMARK VINA RESULT:      -8.0      0.000      0.000
REMARK  21 active torsions:
REMARK  status: ('A' for Active; 'I' for Inactive)
REMARK    1  A    between atoms: C_2  and  C_3 
REMARK    2  A    between atoms: C_5  and  C_3 
REMARK    3  A    between atoms: C_9  and  C_69 
REMARK    4  A    between atoms: C_13  and  C_65 
REMARK    5  A    between atoms: C_17  and  C_38 
REMARK    6  A    between atoms: C_26  and  C_30 
REMARK    7  A    between atoms: C_30  and  C_31 
REMARK    8  A    between atoms: C_34  and  O_37 
REMARK       I    between atoms: C_38  and  N_40 
REMARK    9  A    between atoms: N_40  and  C_41 
REMARK   10  A    between atoms: N_40  and  C_49 
REMARK   11  A    between atoms: C_41  and  C_42 
REMARK   12  A    between atoms: C_49  and  C_50 
REMARK       I    between atoms: C_50  and  N_52 
REMARK   13  A    between atoms: C_53  and  N_52 
REMARK   14  A    between atoms: C_53  and  C_54 
REMARK   15  A    between atoms: C_53  and  C_58 
REMARK   16  A    between atoms: C_54  and  C_55 
REMARK       I    between atoms: C_58  and  N_60 
REMARK   17  A    between atoms: N_60  and  C_61 
REMARK   18  A    between atoms: C_61  and  C_62 
REMARK       I    between atoms: C_62  and  N_64 
REMARK   19  A    between atoms: C_65  and  C_66 
REMARK       I    between atoms: C_66  and  N_68 
REMARK   20  A    between atoms: C_69  and  C_70 
REMARK   21  A    between atoms: C_70  and  C_71 
REMARK       I    between atoms: C_71  and  N_73 
ROOT
HETATM    1  C   UNK N   1      33.143  14.938   6.140  0.00  0.00     0.180 C 
HETATM    2  C   UNK N   1      33.203  16.457   5.957  0.00  0.00     0.241 C 
HETATM    3  O   UNK N   1      34.289  17.013   5.944  0.00  0.00    -0.271 OA
HETATM    4  N   UNK N   1      32.103  17.237   5.796  0.00  0.00    -0.346 N 
HETATM    5  C   UNK N   1      30.712  16.877   5.922  0.00  0.00     0.177 C 
HETATM    6  C   UNK N   1      30.144  15.863   4.988  0.00  0.00     0.241 C 
HETATM    7  O   UNK N   1      30.489  15.847   3.817  0.00  0.00    -0.271 OA
HETATM    8  N   UNK N   1      29.128  15.094   5.449  0.00  0.00    -0.346 N 
HETATM    9  C   UNK N   1      28.111  14.355   4.730  0.00  0.00     0.185 C 
HETATM   10  C   UNK N   1      27.940  14.712   3.247  0.00  0.00     0.241 C 
HETATM   11  O   UNK N   1      28.244  15.822   2.848  0.00  0.00    -0.271 OA
HETATM   12  N   UNK N   1      27.392  13.844   2.352  0.00  0.00    -0.345 N 
HETATM   13  C   UNK N   1      26.454  12.805   2.709  0.00  0.00     0.186 C 
HETATM   14  C   UNK N   1      26.322  11.819   1.552  0.00  0.00     0.108 C 
HETATM   15  S   UNK N   1      25.254  10.378   1.907  0.00  0.00    -0.167 SA
HETATM   16  C   UNK N   1      26.171   9.699   3.340  0.00  0.00     0.074 C 
HETATM   17  C   UNK N   1      27.676   9.664   3.139  0.00  0.00     0.019 C 
HETATM   18  C   UNK N   1      28.277  10.687   4.092  0.00  0.00     0.103 C 
HETATM   19  C   UNK N   1      29.386  11.460   3.454  0.00  0.00     0.218 C 
HETATM   20  O   UNK N   1      29.252  11.906   2.325  0.00  0.00    -0.274 OA
HETATM   21  N   UNK N   1      30.529  11.686   4.140  0.00  0.00    -0.347 N 
HETATM   22  C   UNK N   1      31.601  12.501   3.601  0.00  0.00     0.180 C 
HETATM   23  C   UNK N   1      32.418  12.998   4.754  0.00  0.00     0.241 C 
HETATM   24  O   UNK N   1      32.972  12.193   5.493  0.00  0.00    -0.271 OA
HETATM   25  N   UNK N   1      32.524  14.334   4.974  0.00  0.00    -0.346 N 
HETATM   26  H   UNK N   1      32.280  18.176   5.558  0.00  0.00     0.163 HD
HETATM   27  H   UNK N   1      29.073  15.024   6.430  0.00  0.00     0.163 HD
HETATM   28  H   UNK N   1      27.651  13.930   1.406  0.00  0.00     0.163 HD
HETATM   29  H   UNK N   1      30.638  11.283   5.031  0.00  0.00     0.163 HD
HETATM   30  H   UNK N   1      32.155  14.938   4.290  0.00  0.00     0.163 HD
ENDROOT
BRANCH  13  31
HETATM   31  C   UNK N   1      25.227  13.608   3.035  0.00  0.00     0.244 C 
HETATM   32  O   UNK N   1      25.042  14.648   2.443  0.00  0.00    -0.271 OA
HETATM   33  N   UNK N   1      24.203  12.985   3.703  0.00  0.00    -0.337 N 
BRANCH  33  34
HETATM   34  C   UNK N   1      24.463  12.011   4.734  0.00  0.00     0.165 C 
BRANCH  34  35
HETATM   35  C   UNK N   1      23.553  12.289   5.916  0.00  0.00    -0.040 A 
HETATM   36  C   UNK N   1      22.377  11.536   6.109  0.00  0.00     0.012 A 
HETATM   37  C   UNK N   1      21.519  11.806   7.171  0.00  0.00     0.043 A 
HETATM   38  C   UNK N   1      21.822  12.832   8.060  0.00  0.00     0.116 A 
HETATM   39  C   UNK N   1      22.987  13.589   7.885  0.00  0.00     0.043 A 
HETATM   40  F   UNK N   1      20.986  13.091   9.094  0.00  0.00    -0.206 F 
HETATM   41  C   UNK N   1      23.851  13.321   6.813  0.00  0.00     0.012 A 
ENDBRANCH  34  35
ENDBRANCH  33  34
BRANCH  33  42
HETATM   42  C   UNK N   1      22.871  13.058   3.139  0.00  0.00     0.228 C 
BRANCH  42  43
HETATM   43  C   UNK N   1      22.050  14.077   3.783  0.00  0.00     0.236 C 
HETATM   44  O   UNK N   1      20.875  13.841   4.020  0.00  0.00    -0.272 OA
HETATM   45  N   UNK N   1      22.608  15.273   4.102  0.00  0.00    -0.346 N 
HETATM   46  H   UNK N   1      23.582  15.383   4.006  0.00  0.00     0.163 HD
BRANCH  45  47
HETATM   47  C   UNK N   1      21.821  16.392   4.579  0.00  0.00     0.177 C 
BRANCH  47  48
HETATM   48  C   UNK N   1      22.215  16.643   6.043  0.00  0.00     0.038 C 
BRANCH  48  49
HETATM   49  C   UNK N   1      21.120  16.631   7.091  0.00  0.00    -0.020 C 
HETATM   50  C   UNK N   1      19.992  15.751   6.597  0.00  0.00     0.009 C 
HETATM   51  C   UNK N   1      20.605  18.033   7.335  0.00  0.00     0.009 C 
ENDBRANCH  48  49
ENDBRANCH  47  48
BRANCH  47  52
HETATM   52  C   UNK N   1      21.774  17.536   3.553  0.00  0.00     0.240 C 
HETATM   53  O   UNK N   1      22.561  18.460   3.698  0.00  0.00    -0.271 OA
HETATM   54  N   UNK N   1      20.976  17.580   2.446  0.00  0.00    -0.351 N 
HETATM   55  H   UNK N   1      21.143  18.380   1.897  0.00  0.00     0.163 HD
BRANCH  54  56
HETATM   56  C   UNK N   1      19.937  16.730   1.883  0.00  0.00     0.225 C 
BRANCH  56  57
HETATM   57  C   UNK N   1      19.630  16.847   0.435  0.00  0.00     0.233 C 
HETATM   58  O   UNK N   1      20.412  17.399  -0.321  0.00  0.00    -0.272 OA
HETATM   59  N   UNK N   1      18.452  16.385  -0.031  0.00  0.00    -0.369 N 
HETATM   60  H   UNK N   1      18.290  15.424  -0.170  0.00  0.00     0.159 HD
HETATM   61  H   UNK N   1      17.735  17.027  -0.237  0.00  0.00     0.159 HD
ENDBRANCH  56  57
ENDBRANCH  54  56
ENDBRANCH  47  52
ENDBRANCH  45  47
ENDBRANCH  42  43
ENDBRANCH  33  42
ENDBRANCH  13  31
BRANCH   9  62
HETATM   62  C   UNK N   1      26.825  14.529   5.542  0.00  0.00     0.137 C 
BRANCH  62  63
HETATM   63  C   UNK N   1      26.636  15.864   6.226  0.00  0.00     0.217 C 
HETATM   64  O   UNK N   1      26.734  16.912   5.608  0.00  0.00    -0.274 OA
HETATM   65  N   UNK N   1      26.364  15.899   7.545  0.00  0.00    -0.370 N 
HETATM   66  H   UNK N   1      25.839  15.224   8.033  0.00  0.00     0.159 HD
HETATM   67  H   UNK N   1      26.717  16.659   8.062  0.00  0.00     0.159 HD
ENDBRANCH  62  63
ENDBRANCH   9  62
BRANCH   5  68
HETATM   68  C   UNK N   1      30.223  16.803   7.363  0.00  0.00     0.044 C 
BRANCH  68  69
HETATM   69  C   UNK N   1      29.367  18.019   7.695  0.00  0.00     0.105 C 
BRANCH  69  70
HETATM   70  C   UNK N   1      28.965  18.052   9.140  0.00  0.00     0.215 C 
HETATM   71  O   UNK N   1      27.850  17.688   9.482  0.00  0.00    -0.274 OA
HETATM   72  N   UNK N   1      29.826  18.523  10.062  0.00  0.00    -0.370 N 
HETATM   73  H   UNK N   1      30.287  18.000  10.757  0.00  0.00     0.159 HD
HETATM   74  H   UNK N   1      30.013  19.490  10.040  0.00  0.00     0.159 HD
ENDBRANCH  69  70
ENDBRANCH  68  69
ENDBRANCH   5  68
BRANCH  22  75
HETATM   75  C   UNK N   1      32.550  11.762   2.634  0.00  0.00     0.073 C 
BRANCH  75  76
HETATM   76  C   UNK N   1      32.541  12.056   1.158  0.00  0.00    -0.056 A 
HETATM   77  C   UNK N   1      31.435  11.717   0.367  0.00  0.00     0.010 A 
HETATM   78  C   UNK N   1      31.478  11.860  -1.017  0.00  0.00     0.037 A 
HETATM   79  C   UNK N   1      32.650  12.292  -1.635  0.00  0.00     0.065 A 
HETATM   80  C   UNK N   1      33.773  12.602  -0.861  0.00  0.00     0.037 A 
HETATM   81  C   UNK N   1      33.721  12.482   0.534  0.00  0.00     0.010 A 
BRANCH  79  82
HETATM   82  O   UNK N   1      32.698  12.400  -2.972  0.00  0.00    -0.361 OA
HETATM   83  H   UNK N   1      32.358  11.726  -3.526  0.00  0.00     0.217 HD
ENDBRANCH  79  82
ENDBRANCH  75  76
ENDBRANCH  22  75
BRANCH   1  84
HETATM   84  C   UNK N   1      34.527  14.300   6.430  0.00  0.00     0.013 C 
HETATM   85  C   UNK N   1      35.033  14.671   7.809  0.00  0.00     0.012 C 
BRANCH  84  86
HETATM   86  C   UNK N   1      35.589  14.600   5.374  0.00  0.00     0.002 C 
HETATM   87  C   UNK N   1      36.977  14.321   5.905  0.00  0.00     0.005 C 
ENDBRANCH  84  86
ENDBRANCH   1  84
TORSDOF 21
ENDMDL
MODEL 2
REMARK VINA RESULT:      -7.9      1.367      2.077
REMARK  21 active torsions:
REMARK  status: ('A' for Active; 'I' for Inactive)
REMARK    1  A    between atoms: C_2  and  C_3 
REMARK    2  A    between atoms: C_5  and  C_3 
REMARK    3  A    between atoms: C_9  and  C_69 
REMARK    4  A    between atoms: C_13  and  C_65 
REMARK    5  A    between atoms: C_17  and  C_38 
REMARK    6  A    between atoms: C_26  and  C_30 
REMARK    7  A    between atoms: C_30  and  C_31 
REMARK    8  A    between atoms: C_34  and  O_37 
REMARK       I    between atoms: C_38  and  N_40 
REMARK    9  A    between atoms: N_40  and  C_41 
REMARK   10  A    between atoms: N_40  and  C_49 
REMARK   11  A    between atoms: C_41  and  C_42 
REMARK   12  A    between atoms: C_49  and  C_50 
REMARK       I    between atoms: C_50  and  N_52 
REMARK   13  A    between atoms: C_53  and  N_52 
REMARK   14  A    between atoms: C_53  and  C_54 
REMARK   15  A    between atoms: C_53  and  C_58 
REMARK   16  A    between atoms: C_54  and  C_55 
REMARK       I    between atoms: C_58  and  N_60 
REMARK   17  A    between atoms: N_60  and  C_61 
REMARK   18  A    between atoms: C_61  and  C_62 
REMARK       I    between atoms: C_62  and  N_64 
REMARK   19  A    between atoms: C_65  and  C_66 
REMARK       I    between atoms: C_66  and  N_68 
REMARK   20  A    between atoms: C_69  and  C_70 
REMARK   21  A    between atoms: C_70  and  C_71 
REMARK       I    between atoms: C_71  and  N_73 
ROOT
HETATM    1  C   UNK N   1      33.027  15.046   6.771  0.00  0.00     0.180 C 
HETATM    2  C   UNK N   1      33.114  16.560   6.559  0.00  0.00     0.241 C 
HETATM    3  O   UNK N   1      34.202  17.108   6.617  0.00  0.00    -0.271 OA
HETATM    4  N   UNK N   1      32.037  17.344   6.296  0.00  0.00    -0.346 N 
HETATM    5  C   UNK N   1      30.636  16.997   6.323  0.00  0.00     0.177 C 
HETATM    6  C   UNK N   1      30.133  15.965   5.371  0.00  0.00     0.241 C 
HETATM    7  O   UNK N   1      30.567  15.919   4.231  0.00  0.00    -0.271 OA
HETATM    8  N   UNK N   1      29.078  15.214   5.771  0.00  0.00    -0.346 N 
HETATM    9  C   UNK N   1      28.113  14.466   4.992  0.00  0.00     0.185 C 
HETATM   10  C   UNK N   1      28.059  14.790   3.492  0.00  0.00     0.241 C 
HETATM   11  O   UNK N   1      28.403  15.888   3.093  0.00  0.00    -0.271 OA
HETATM   12  N   UNK N   1      27.574  13.905   2.578  0.00  0.00    -0.345 N 
HETATM   13  C   UNK N   1      26.602  12.881   2.885  0.00  0.00     0.186 C 
HETATM   14  C   UNK N   1      26.551  11.869   1.744  0.00  0.00     0.108 C 
HETATM   15  S   UNK N   1      25.446  10.445   2.048  0.00  0.00    -0.167 SA
HETATM   16  C   UNK N   1      26.244   9.793   3.562  0.00  0.00     0.074 C 
HETATM   17  C   UNK N   1      27.760   9.743   3.479  0.00  0.00     0.019 C 
HETATM   18  C   UNK N   1      28.295  10.782   4.451  0.00  0.00     0.103 C 
HETATM   19  C   UNK N   1      29.456  11.534   3.883  0.00  0.00     0.218 C 
HETATM   20  O   UNK N   1      29.413  11.954   2.737  0.00  0.00    -0.274 OA
HETATM   21  N   UNK N   1      30.546  11.767   4.649  0.00  0.00    -0.347 N 
HETATM   22  C   UNK N   1      31.663  12.562   4.177  0.00  0.00     0.180 C 
HETATM   23  C   UNK N   1      32.394  13.080   5.377  0.00  0.00     0.241 C 
HETATM   24  O   UNK N   1      32.882  12.289   6.175  0.00  0.00    -0.271 OA
HETATM   25  N   UNK N   1      32.494  14.420   5.575  0.00  0.00    -0.346 N 
HETATM   26  H   UNK N   1      32.239  18.276   6.051  0.00  0.00     0.163 HD
HETATM   27  H   UNK N   1      28.947  15.168   6.746  0.00  0.00     0.163 HD
HETATM   28  H   UNK N   1      27.905  13.967   1.653  0.00  0.00     0.163 HD
HETATM   29  H   UNK N   1      30.582  11.384   5.556  0.00  0.00     0.163 HD
HETATM   30  H   UNK N   1      32.184  15.011   4.851  0.00  0.00     0.163 HD
ENDROOT
BRANCH  13  31
HETATM   31  C   UNK N   1      25.361  13.700   3.098  0.00  0.00     0.244 C 
HETATM   32  O   UNK N   1      25.258  14.756   2.514  0.00  0.00    -0.271 OA
HETATM   33  N   UNK N   1      24.261  13.082   3.637  0.00  0.00    -0.337 N 
BRANCH  33  34
HETATM   34  C   UNK N   1      24.393  12.081   4.667  0.00  0.00     0.165 C 
BRANCH  34  35
HETATM   35  C   UNK N   1      23.445  12.414   5.803  0.00  0.00    -0.040 A 
HETATM   36  C   UNK N   1      23.741  13.461   6.700  0.00  0.00     0.012 A 
HETATM   37  C   UNK N   1      22.895  13.753   7.766  0.00  0.00     0.043 A 
HETATM   38  C   UNK N   1      21.736  13.005   7.952  0.00  0.00     0.116 A 
HETATM   39  C   UNK N   1      21.426  11.963   7.070  0.00  0.00     0.043 A 
HETATM   40  F   UNK N   1      20.914  13.293   8.989  0.00  0.00    -0.206 F 
HETATM   41  C   UNK N   1      22.280  11.665   5.998  0.00  0.00     0.012 A 
ENDBRANCH  34  35
ENDBRANCH  33  34
BRANCH  33  42
HETATM   42  C   UNK N   1      22.998  13.192   2.937  0.00  0.00     0.228 C 
BRANCH  42  43
HETATM   43  C   UNK N   1      22.091  14.140   3.573  0.00  0.00     0.236 C 
HETATM   44  O   UNK N   1      20.951  13.792   3.844  0.00  0.00    -0.272 OA
HETATM   45  N   UNK N   1      22.530  15.395   3.849  0.00  0.00    -0.346 N 
HETATM   46  H   UNK N   1      23.485  15.601   3.729  0.00  0.00     0.163 HD
BRANCH  45  47
HETATM   47  C   UNK N   1      21.643  16.440   4.316  0.00  0.00     0.177 C 
BRANCH  47  48
HETATM   48  C   UNK N   1      21.740  16.479   5.849  0.00  0.00     0.038 C 
BRANCH  48  49
HETATM   49  C   UNK N   1      20.486  16.803   6.638  0.00  0.00    -0.020 C 
HETATM   50  C   UNK N   1      20.757  16.534   8.102  0.00  0.00     0.009 C 
HETATM   51  C   UNK N   1      19.329  15.948   6.166  0.00  0.00     0.009 C 
ENDBRANCH  48  49
ENDBRANCH  47  48
BRANCH  47  52
HETATM   52  C   UNK N   1      21.772  17.719   3.471  0.00  0.00     0.240 C 
HETATM   53  O   UNK N   1      20.860  17.984   2.701  0.00  0.00    -0.271 OA
HETATM   54  N   UNK N   1      22.786  18.629   3.555  0.00  0.00    -0.351 N 
HETATM   55  H   UNK N   1      22.645  19.401   2.960  0.00  0.00     0.163 HD
BRANCH  54  56
HETATM   56  C   UNK N   1      24.025  18.733   4.310  0.00  0.00     0.225 C 
BRANCH  56  57
HETATM   57  C   UNK N   1      25.311  18.747   3.568  0.00  0.00     0.233 C 
HETATM   58  O   UNK N   1      25.777  19.796   3.158  0.00  0.00    -0.272 OA
HETATM   59  N   UNK N   1      25.934  17.581   3.302  0.00  0.00    -0.369 N 
HETATM   60  H   UNK N   1      26.445  17.097   3.990  0.00  0.00     0.159 HD
HETATM   61  H   UNK N   1      25.876  17.204   2.395  0.00  0.00     0.159 HD
ENDBRANCH  56  57
ENDBRANCH  54  56
ENDBRANCH  47  52
ENDBRANCH  45  47
ENDBRANCH  42  43
ENDBRANCH  33  42
ENDBRANCH  13  31
BRANCH   9  62
HETATM   62  C   UNK N   1      26.770  14.667   5.699  0.00  0.00     0.137 C 
BRANCH  62  63
HETATM   63  C   UNK N   1      26.635  15.912   6.547  0.00  0.00     0.217 C 
HETATM   64  O   UNK N   1      26.827  17.022   6.077  0.00  0.00    -0.274 OA
HETATM   65  N   UNK N   1      26.308  15.793   7.848  0.00  0.00    -0.370 N 
HETATM   66  H   UNK N   1      25.721  15.098   8.223  0.00  0.00     0.159 HD
HETATM   67  H   UNK N   1      26.685  16.454   8.474  0.00  0.00     0.159 HD
ENDBRANCH  62  63
ENDBRANCH   9  62
BRANCH   5  68
HETATM   68  C   UNK N   1      30.038  16.959   7.724  0.00  0.00     0.044 C 
BRANCH  68  69
HETATM   69  C   UNK N   1      29.682  18.367   8.186  0.00  0.00     0.105 C 
BRANCH  69  70
HETATM   70  C   UNK N   1      28.295  18.445   8.752  0.00  0.00     0.215 C 
HETATM   71  O   UNK N   1      27.952  17.699   9.655  0.00  0.00    -0.274 OA
HETATM   72  N   UNK N   1      27.412  19.319   8.235  0.00  0.00    -0.370 N 
HETATM   73  H   UNK N   1      27.058  20.127   8.673  0.00  0.00     0.159 HD
HETATM   74  H   UNK N   1      27.084  19.131   7.325  0.00  0.00     0.159 HD
ENDBRANCH  69  70
ENDBRANCH  68  69
ENDBRANCH   5  68
BRANCH  22  75
HETATM   75  C   UNK N   1      32.677  11.795   3.302  0.00  0.00     0.073 C 
BRANCH  75  76
HETATM   76  C   UNK N   1      33.447  12.489   2.212  0.00  0.00    -0.056 A 
HETATM   77  C   UNK N   1      33.424  12.005   0.898  0.00  0.00     0.010 A 
HETATM   78  C   UNK N   1      34.242  12.561  -0.083  0.00  0.00     0.037 A 
HETATM   79  C   UNK N   1      35.137  13.575   0.253  0.00  0.00     0.065 A 
HETATM   80  C   UNK N   1      35.197  14.045   1.570  0.00  0.00     0.037 A 
HETATM   81  C   UNK N   1      34.354  13.502   2.549  0.00  0.00     0.010 A 
BRANCH  79  82
HETATM   82  O   UNK N   1      35.946  14.088  -0.686  0.00  0.00    -0.361 OA
HETATM   83  H   UNK N   1      35.894  14.990  -0.932  0.00  0.00     0.217 HD
ENDBRANCH  79  82
ENDBRANCH  75  76
ENDBRANCH  22  75
BRANCH   1  84
HETATM   84  C   UNK N   1      34.379  14.406   7.180  0.00  0.00     0.013 C 
HETATM   85  C   UNK N   1      34.746  14.746   8.611  0.00  0.00     0.012 C 
BRANCH  84  86
HETATM   86  C   UNK N   1      35.538  14.733   6.241  0.00  0.00     0.002 C 
HETATM   87  C   UNK N   1      36.212  13.472   5.749  0.00  0.00     0.005 C 
ENDBRANCH  84  86
ENDBRANCH   1  84
TORSDOF 21
ENDMDL
MODEL 3
REMARK VINA RESULT:      -7.9      1.212      1.683
REMARK  21 active torsions:
REMARK  status: ('A' for Active; 'I' for Inactive)
REMARK    1  A    between atoms: C_2  and  C_3 
REMARK    2  A    between atoms: C_5  and  C_3 
REMARK    3  A    between atoms: C_9  and  C_69 
REMARK    4  A    between atoms: C_13  and  C_65 
REMARK    5  A    between atoms: C_17  and  C_38 
REMARK    6  A    between atoms: C_26  and  C_30 
REMARK    7  A    between atoms: C_30  and  C_31 
REMARK    8  A    between atoms: C_34  and  O_37 
REMARK       I    between atoms: C_38  and  N_40 
REMARK    9  A    between atoms: N_40  and  C_41 
REMARK   10  A    between atoms: N_40  and  C_49 
REMARK   11  A    between atoms: C_41  and  C_42 
REMARK   12  A    between atoms: C_49  and  C_50 
REMARK       I    between atoms: C_50  and  N_52 
REMARK   13  A    between atoms: C_53  and  N_52 
REMARK   14  A    between atoms: C_53  and  C_54 
REMARK   15  A    between atoms: C_53  and  C_58 
REMARK   16  A    between atoms: C_54  and  C_55 
REMARK       I    between atoms: C_58  and  N_60 
REMARK   17  A    between atoms: N_60  and  C_61 
REMARK   18  A    between atoms: C_61  and  C_62 
REMARK       I    between atoms: C_62  and  N_64 
REMARK   19  A    between atoms: C_65  and  C_66 
REMARK       I    between atoms: C_66  and  N_68 
REMARK   20  A    between atoms: C_69  and  C_70 
REMARK   21  A    between atoms: C_70  and  C_71 
REMARK       I    between atoms: C_71  and  N_73 
ROOT
HETATM    1  C   UNK N   1      33.119  15.383   6.313  0.00  0.00     0.180 C 
HETATM    2  C   UNK N   1      33.098  16.879   5.983  0.00  0.00     0.241 C 
HETATM    3  O   UNK N   1      34.143  17.506   5.997  0.00  0.00    -0.271 OA
HETATM    4  N   UNK N   1      31.968  17.560   5.660  0.00  0.00    -0.346 N 
HETATM    5  C   UNK N   1      30.596  17.115   5.714  0.00  0.00     0.177 C 
HETATM    6  C   UNK N   1      30.173  15.979   4.847  0.00  0.00     0.241 C 
HETATM    7  O   UNK N   1      30.615  15.875   3.714  0.00  0.00    -0.271 OA
HETATM    8  N   UNK N   1      29.173  15.187   5.305  0.00  0.00    -0.346 N 
HETATM    9  C   UNK N   1      28.269  14.312   4.588  0.00  0.00     0.185 C 
HETATM   10  C   UNK N   1      28.199  14.513   3.068  0.00  0.00     0.241 C 
HETATM   11  O   UNK N   1      28.465  15.599   2.583  0.00  0.00    -0.271 OA
HETATM   12  N   UNK N   1      27.783  13.527   2.226  0.00  0.00    -0.345 N 
HETATM   13  C   UNK N   1      26.887  12.462   2.614  0.00  0.00     0.186 C 
HETATM   14  C   UNK N   1      26.914  11.363   1.555  0.00  0.00     0.108 C 
HETATM   15  S   UNK N   1      25.913   9.891   1.971  0.00  0.00    -0.167 SA
HETATM   16  C   UNK N   1      26.748   9.419   3.531  0.00  0.00     0.074 C 
HETATM   17  C   UNK N   1      28.264   9.472   3.451  0.00  0.00     0.019 C 
HETATM   18  C   UNK N   1      28.718  10.621   4.338  0.00  0.00     0.103 C 
HETATM   19  C   UNK N   1      29.825  11.407   3.712  0.00  0.00     0.218 C 
HETATM   20  O   UNK N   1      29.758  11.732   2.537  0.00  0.00    -0.274 OA
HETATM   21  N   UNK N   1      30.891  11.778   4.457  0.00  0.00    -0.347 N 
HETATM   22  C   UNK N   1      31.950  12.612   3.923  0.00  0.00     0.180 C 
HETATM   23  C   UNK N   1      32.636  13.274   5.079  0.00  0.00     0.241 C 
HETATM   24  O   UNK N   1      33.175  12.585   5.936  0.00  0.00    -0.271 OA
HETATM   25  N   UNK N   1      32.639  14.628   5.170  0.00  0.00    -0.346 N 
HETATM   26  H   UNK N   1      32.104  18.482   5.342  0.00  0.00     0.163 HD
HETATM   27  H   UNK N   1      29.041  15.208   6.281  0.00  0.00     0.163 HD
HETATM   28  H   UNK N   1      28.114  13.540   1.299  0.00  0.00     0.163 HD
HETATM   29  H   UNK N   1      30.950  11.471   5.391  0.00  0.00     0.163 HD
HETATM   30  H   UNK N   1      32.290  15.137   4.403  0.00  0.00     0.163 HD
ENDROOT
BRANCH  13  31
HETATM   31  C   UNK N   1      25.588  13.204   2.762  0.00  0.00     0.244 C 
HETATM   32  O   UNK N   1      25.363  14.129   2.015  0.00  0.00    -0.271 OA
HETATM   33  N   UNK N   1      24.576  12.604   3.467  0.00  0.00    -0.337 N 
BRANCH  33  34
HETATM   34  C   UNK N   1      24.847  11.812   4.642  0.00  0.00     0.165 C 
BRANCH  34  35
HETATM   35  C   UNK N   1      23.846  12.174   5.722  0.00  0.00    -0.040 A 
HETATM   36  C   UNK N   1      23.865  13.450   6.320  0.00  0.00     0.012 A 
HETATM   37  C   UNK N   1      22.973  13.781   7.335  0.00  0.00     0.043 A 
HETATM   38  C   UNK N   1      22.043  12.841   7.770  0.00  0.00     0.116 A 
HETATM   39  C   UNK N   1      22.008  11.569   7.186  0.00  0.00     0.043 A 
HETATM   40  F   UNK N   1      21.175  13.166   8.758  0.00  0.00    -0.206 F 
HETATM   41  C   UNK N   1      22.910  11.234   6.165  0.00  0.00     0.012 A 
ENDBRANCH  34  35
ENDBRANCH  33  34
BRANCH  33  42
HETATM   42  C   UNK N   1      23.276  12.488   2.840  0.00  0.00     0.228 C 
BRANCH  42  43
HETATM   43  C   UNK N   1      22.352  13.526   3.281  0.00  0.00     0.236 C 
HETATM   44  O   UNK N   1      21.356  13.214   3.918  0.00  0.00    -0.272 OA
HETATM   45  N   UNK N   1      22.613  14.822   2.971  0.00  0.00    -0.346 N 
HETATM   46  H   UNK N   1      23.481  15.047   2.565  0.00  0.00     0.163 HD
BRANCH  45  47
HETATM   47  C   UNK N   1      21.661  15.885   3.219  0.00  0.00     0.177 C 
BRANCH  47  48
HETATM   48  C   UNK N   1      22.310  16.865   4.211  0.00  0.00     0.038 C 
BRANCH  48  49
HETATM   49  C   UNK N   1      21.790  16.891   5.635  0.00  0.00    -0.020 C 
HETATM   50  C   UNK N   1      20.527  16.060   5.700  0.00  0.00     0.009 C 
HETATM   51  C   UNK N   1      21.490  18.312   6.063  0.00  0.00     0.009 C 
ENDBRANCH  48  49
ENDBRANCH  47  48
BRANCH  47  52
HETATM   52  C   UNK N   1      21.002  16.377   1.920  0.00  0.00     0.240 C 
HETATM   53  O   UNK N   1      21.140  15.688   0.919  0.00  0.00    -0.271 OA
HETATM   54  N   UNK N   1      20.211  17.482   1.798  0.00  0.00    -0.351 N 
HETATM   55  H   UNK N   1      19.850  17.585   0.888  0.00  0.00     0.163 HD
BRANCH  54  56
HETATM   56  C   UNK N   1      19.776  18.548   2.688  0.00  0.00     0.225 C 
BRANCH  56  57
HETATM   57  C   UNK N   1      20.324  19.913   2.485  0.00  0.00     0.233 C 
HETATM   58  O   UNK N   1      20.683  20.583   3.439  0.00  0.00    -0.272 OA
HETATM   59  N   UNK N   1      20.372  20.429   1.240  0.00  0.00    -0.369 N 
HETATM   60  H   UNK N   1      21.062  20.158   0.592  0.00  0.00     0.159 HD
HETATM   61  H   UNK N   1      19.698  21.095   0.972  0.00  0.00     0.159 HD
ENDBRANCH  56  57
ENDBRANCH  54  56
ENDBRANCH  47  52
ENDBRANCH  45  47
ENDBRANCH  42  43
ENDBRANCH  33  42
ENDBRANCH  13  31
BRANCH   9  62
HETATM   62  C   UNK N   1      26.911  14.471   5.278  0.00  0.00     0.137 C 
BRANCH  62  63
HETATM   63  C   UNK N   1      26.613  15.830   5.873  0.00  0.00     0.217 C 
HETATM   64  O   UNK N   1      26.646  16.841   5.190  0.00  0.00    -0.274 OA
HETATM   65  N   UNK N   1      26.315  15.926   7.183  0.00  0.00    -0.370 N 
HETATM   66  H   UNK N   1      25.832  15.246   7.706  0.00  0.00     0.159 HD
HETATM   67  H   UNK N   1      26.602  16.741   7.655  0.00  0.00     0.159 HD
ENDBRANCH  62  63
ENDBRANCH   9  62
BRANCH   5  68
HETATM   68  C   UNK N   1      29.995  17.145   7.115  0.00  0.00     0.044 C 
BRANCH  68  69
HETATM   69  C   UNK N   1      29.116  18.377   7.288  0.00  0.00     0.105 C 
BRANCH  69  70
HETATM   70  C   UNK N   1      28.737  18.607   8.721  0.00  0.00     0.215 C 
HETATM   71  O   UNK N   1      29.597  18.688   9.584  0.00  0.00    -0.274 OA
HETATM   72  N   UNK N   1      27.437  18.687   9.063  0.00  0.00    -0.370 N 
HETATM   73  H   UNK N   1      26.958  19.491   9.366  0.00  0.00     0.159 HD
HETATM   74  H   UNK N   1      26.913  17.855   9.005  0.00  0.00     0.159 HD
ENDBRANCH  69  70
ENDBRANCH  68  69
ENDBRANCH   5  68
BRANCH  22  75
HETATM   75  C   UNK N   1      33.022  11.853   3.110  0.00  0.00     0.073 C 
BRANCH  75  76
HETATM   76  C   UNK N   1      33.749  12.516   1.973  0.00  0.00    -0.056 A 
HETATM   77  C   UNK N   1      33.495  12.145   0.646  0.00  0.00     0.010 A 
HETATM   78  C   UNK N   1      34.263  12.656  -0.397  0.00  0.00     0.037 A 
HETATM   79  C   UNK N   1      35.334  13.503  -0.121  0.00  0.00     0.065 A 
HETATM   80  C   UNK N   1      35.623  13.855   1.202  0.00  0.00     0.037 A 
HETATM   81  C   UNK N   1      34.833  13.361   2.249  0.00  0.00     0.010 A 
BRANCH  79  82
HETATM   82  O   UNK N   1      36.091  13.969  -1.126  0.00  0.00    -0.361 OA
HETATM   83  H   UNK N   1      35.709  14.236  -1.938  0.00  0.00     0.217 HD
ENDBRANCH  79  82
ENDBRANCH  75  76
ENDBRANCH  22  75
BRANCH   1  84
HETATM   84  C   UNK N   1      34.511  14.877   6.771  0.00  0.00     0.013 C 
HETATM   85  C   UNK N   1      34.902  15.459   8.114  0.00  0.00     0.012 C 
BRANCH  84  86
HETATM   86  C   UNK N   1      35.626  15.098   5.750  0.00  0.00     0.002 C 
HETATM   87  C   UNK N   1      36.510  13.877   5.638  0.00  0.00     0.005 C 
ENDBRANCH  84  86
ENDBRANCH   1  84
TORSDOF 21
ENDMDL
MODEL 4
REMARK VINA RESULT:      -7.9      1.877      2.459
REMARK  21 active torsions:
REMARK  status: ('A' for Active; 'I' for Inactive)
REMARK    1  A    between atoms: C_2  and  C_3 
REMARK    2  A    between atoms: C_5  and  C_3 
REMARK    3  A    between atoms: C_9  and  C_69 
REMARK    4  A    between atoms: C_13  and  C_65 
REMARK    5  A    between atoms: C_17  and  C_38 
REMARK    6  A    between atoms: C_26  and  C_30 
REMARK    7  A    between atoms: C_30  and  C_31 
REMARK    8  A    between atoms: C_34  and  O_37 
REMARK       I    between atoms: C_38  and  N_40 
REMARK    9  A    between atoms: N_40  and  C_41 
REMARK   10  A    between atoms: N_40  and  C_49 
REMARK   11  A    between atoms: C_41  and  C_42 
REMARK   12  A    between atoms: C_49  and  C_50 
REMARK       I    between atoms: C_50  and  N_52 
REMARK   13  A    between atoms: C_53  and  N_52 
REMARK   14  A    between atoms: C_53  and  C_54 
REMARK   15  A    between atoms: C_53  and  C_58 
REMARK   16  A    between atoms: C_54  and  C_55 
REMARK       I    between atoms: C_58  and  N_60 
REMARK   17  A    between atoms: N_60  and  C_61 
REMARK   18  A    between atoms: C_61  and  C_62 
REMARK       I    between atoms: C_62  and  N_64 
REMARK   19  A    between atoms: C_65  and  C_66 
REMARK       I    between atoms: C_66  and  N_68 
REMARK   20  A    between atoms: C_69  and  C_70 
REMARK   21  A    between atoms: C_70  and  C_71 
REMARK       I    between atoms: C_71  and  N_73 
ROOT
HETATM    1  C   UNK N   1      32.149  14.904   3.742  0.00  0.00     0.180 C 
HETATM    2  C   UNK N   1      31.885  16.247   3.053  0.00  0.00     0.241 C 
HETATM    3  O   UNK N   1      32.815  16.841   2.533  0.00  0.00    -0.271 OA
HETATM    4  N   UNK N   1      30.658  16.822   2.975  0.00  0.00    -0.346 N 
HETATM    5  C   UNK N   1      29.430  16.427   3.621  0.00  0.00     0.177 C 
HETATM    6  C   UNK N   1      28.841  15.097   3.293  0.00  0.00     0.241 C 
HETATM    7  O   UNK N   1      28.881  14.674   2.149  0.00  0.00    -0.271 OA
HETATM    8  N   UNK N   1      28.128  14.477   4.265  0.00  0.00    -0.346 N 
HETATM    9  C   UNK N   1      27.115  13.447   4.170  0.00  0.00     0.185 C 
HETATM   10  C   UNK N   1      26.518  13.213   2.775  0.00  0.00     0.241 C 
HETATM   11  O   UNK N   1      26.508  14.115   1.956  0.00  0.00    -0.271 OA
HETATM   12  N   UNK N   1      25.932  12.034   2.428  0.00  0.00    -0.345 N 
HETATM   13  C   UNK N   1      25.315  11.132   3.373  0.00  0.00     0.186 C 
HETATM   14  C   UNK N   1      25.080   9.779   2.706  0.00  0.00     0.108 C 
HETATM   15  S   UNK N   1      24.412   8.495   3.823  0.00  0.00    -0.167 SA
HETATM   16  C   UNK N   1      25.763   8.471   5.059  0.00  0.00     0.074 C 
HETATM   17  C   UNK N   1      27.152   8.482   4.444  0.00  0.00     0.019 C 
HETATM   18  C   UNK N   1      27.776   9.829   4.776  0.00  0.00     0.103 C 
HETATM   19  C   UNK N   1      28.533  10.395   3.617  0.00  0.00     0.218 C 
HETATM   20  O   UNK N   1      28.044  10.377   2.498  0.00  0.00    -0.274 OA
HETATM   21  N   UNK N   1      29.751  10.948   3.816  0.00  0.00    -0.347 N 
HETATM   22  C   UNK N   1      30.489  11.586   2.743  0.00  0.00     0.180 C 
HETATM   23  C   UNK N   1      31.464  12.538   3.366  0.00  0.00     0.241 C 
HETATM   24  O   UNK N   1      32.320  12.112   4.131  0.00  0.00    -0.271 OA
HETATM   25  N   UNK N   1      31.379  13.864   3.085  0.00  0.00    -0.346 N 
HETATM   26  H   UNK N   1      30.597  17.616   2.395  0.00  0.00     0.163 HD
HETATM   27  H   UNK N   1      28.332  14.773   5.182  0.00  0.00     0.163 HD
HETATM   28  H   UNK N   1      25.927  11.782   1.476  0.00  0.00     0.163 HD
HETATM   29  H   UNK N   1      30.148  10.915   4.716  0.00  0.00     0.163 HD
HETATM   30  H   UNK N   1      30.748  14.140   2.381  0.00  0.00     0.163 HD
ENDROOT
BRANCH  13  31
HETATM   31  C   UNK N   1      24.083  11.900   3.760  0.00  0.00     0.244 C 
HETATM   32  O   UNK N   1      23.451  12.456   2.890  0.00  0.00    -0.271 OA
HETATM   33  N   UNK N   1      23.525  11.653   4.989  0.00  0.00    -0.337 N 
BRANCH  33  34
HETATM   34  C   UNK N   1      24.346  11.388   6.146  0.00  0.00     0.165 C 
BRANCH  34  35
HETATM   35  C   UNK N   1      23.648  11.928   7.380  0.00  0.00    -0.040 A 
HETATM   36  C   UNK N   1      23.444  13.314   7.540  0.00  0.00     0.012 A 
HETATM   37  C   UNK N   1      22.835  13.822   8.684  0.00  0.00     0.043 A 
HETATM   38  C   UNK N   1      22.415  12.953   9.686  0.00  0.00     0.116 A 
HETATM   39  C   UNK N   1      22.607  11.573   9.542  0.00  0.00     0.043 A 
HETATM   40  F   UNK N   1      21.821  13.450  10.797  0.00  0.00    -0.206 F 
HETATM   41  C   UNK N   1      23.224  11.060   8.392  0.00  0.00     0.012 A 
ENDBRANCH  34  35
ENDBRANCH  33  34
BRANCH  33  42
HETATM   42  C   UNK N   1      22.116  11.326   5.051  0.00  0.00     0.228 C 
BRANCH  42  43
HETATM   43  C   UNK N   1      21.283  12.501   5.276  0.00  0.00     0.236 C 
HETATM   44  O   UNK N   1      20.428  12.475   6.149  0.00  0.00    -0.272 OA
HETATM   45  N   UNK N   1      21.469  13.603   4.505  0.00  0.00    -0.346 N 
HETATM   46  H   UNK N   1      22.243  13.631   3.896  0.00  0.00     0.163 HD
BRANCH  45  47
HETATM   47  C   UNK N   1      20.572  14.739   4.547  0.00  0.00     0.177 C 
BRANCH  47  48
HETATM   48  C   UNK N   1      21.432  16.011   4.477  0.00  0.00     0.038 C 
BRANCH  48  49
HETATM   49  C   UNK N   1      22.099  16.495   5.751  0.00  0.00    -0.020 C 
HETATM   50  C   UNK N   1      21.083  16.451   6.871  0.00  0.00     0.009 C 
HETATM   51  C   UNK N   1      22.608  17.909   5.576  0.00  0.00     0.009 C 
ENDBRANCH  48  49
ENDBRANCH  47  48
BRANCH  47  52
HETATM   52  C   UNK N   1      19.356  14.542   3.627  0.00  0.00     0.240 C 
HETATM   53  O   UNK N   1      18.339  14.079   4.124  0.00  0.00    -0.271 OA
HETATM   54  N   UNK N   1      19.284  14.906   2.313  0.00  0.00    -0.351 N 
HETATM   55  H   UNK N   1      18.395  14.736   1.926  0.00  0.00     0.163 HD
BRANCH  54  56
HETATM   56  C   UNK N   1      20.206  15.482   1.346  0.00  0.00     0.225 C 
BRANCH  56  57
HETATM   57  C   UNK N   1      19.683  16.464   0.363  0.00  0.00     0.233 C 
HETATM   58  O   UNK N   1      20.392  17.368  -0.046  0.00  0.00    -0.272 OA
HETATM   59  N   UNK N   1      18.396  16.382  -0.034  0.00  0.00    -0.369 N 
HETATM   60  H   UNK N   1      18.097  15.710  -0.689  0.00  0.00     0.159 HD
HETATM   61  H   UNK N   1      17.739  17.012   0.341  0.00  0.00     0.159 HD
ENDBRANCH  56  57
ENDBRANCH  54  56
ENDBRANCH  47  52
ENDBRANCH  45  47
ENDBRANCH  42  43
ENDBRANCH  33  42
ENDBRANCH  13  31
BRANCH   9  62
HETATM   62  C   UNK N   1      26.061  13.808   5.221  0.00  0.00     0.137 C 
BRANCH  62  63
HETATM   63  C   UNK N   1      25.856  15.283   5.489  0.00  0.00     0.217 C 
HETATM   64  O   UNK N   1      25.662  16.071   4.578  0.00  0.00    -0.274 OA
HETATM   65  N   UNK N   1      25.899  15.736   6.757  0.00  0.00    -0.370 N 
HETATM   66  H   UNK N   1      25.601  15.232   7.549  0.00  0.00     0.159 HD
HETATM   67  H   UNK N   1      26.255  16.642   6.904  0.00  0.00     0.159 HD
ENDBRANCH  62  63
ENDBRANCH   9  62
BRANCH   5  68
HETATM   68  C   UNK N   1      29.336  16.855   5.080  0.00  0.00     0.044 C 
BRANCH  68  69
HETATM   69  C   UNK N   1      28.533  18.144   5.203  0.00  0.00     0.105 C 
BRANCH  69  70
HETATM   70  C   UNK N   1      28.062  18.387   6.607  0.00  0.00     0.215 C 
HETATM   71  O   UNK N   1      28.274  17.564   7.483  0.00  0.00    -0.274 OA
HETATM   72  N   UNK N   1      27.367  19.504   6.894  0.00  0.00    -0.370 N 
HETATM   73  H   UNK N   1      27.676  20.265   7.436  0.00  0.00     0.159 HD
HETATM   74  H   UNK N   1      26.457  19.566   6.524  0.00  0.00     0.159 HD
ENDBRANCH  69  70
ENDBRANCH  68  69
ENDBRANCH   5  68
BRANCH  22  75
HETATM   75  C   UNK N   1      31.286  10.618   1.843  0.00  0.00     0.073 C 
BRANCH  75  76
HETATM   76  C   UNK N   1      31.257  10.746   0.344  0.00  0.00    -0.056 A 
HETATM   77  C   UNK N   1      32.421  10.565  -0.414  0.00  0.00     0.010 A 
HETATM   78  C   UNK N   1      32.428  10.818  -1.783  0.00  0.00     0.037 A 
HETATM   79  C   UNK N   1      31.282  11.312  -2.403  0.00  0.00     0.065 A 
HETATM   80  C   UNK N   1      30.121  11.532  -1.653  0.00  0.00     0.037 A 
HETATM   81  C   UNK N   1      30.109  11.252  -0.280  0.00  0.00     0.010 A 
BRANCH  79  82
HETATM   82  O   UNK N   1      31.300  11.585  -3.717  0.00  0.00    -0.361 OA
HETATM   83  H   UNK N   1      30.686  12.182  -4.098  0.00  0.00     0.217 HD
ENDBRANCH  79  82
ENDBRANCH  75  76
ENDBRANCH  22  75
BRANCH   1  84
HETATM   84  C   UNK N   1      33.652  14.531   3.803  0.00  0.00     0.013 C 
HETATM   85  C   UNK N   1      34.377  15.312   4.881  0.00  0.00     0.012 C 
BRANCH  84  86
HETATM   86  C   UNK N   1      34.385  14.659   2.469  0.00  0.00     0.002 C 
HETATM   87  C   UNK N   1      34.769  13.301   1.927  0.00  0.00     0.005 C 
ENDBRANCH  84  86
ENDBRANCH   1  84
TORSDOF 21
ENDMDL
MODEL 5
REMARK VINA RESULT:      -7.3      1.578      2.142
REMARK  21 active torsions:
REMARK  status: ('A' for Active; 'I' for Inactive)
REMARK    1  A    between atoms: C_2  and  C_3 
REMARK    2  A    between atoms: C_5  and  C_3 
REMARK    3  A    between atoms: C_9  and  C_69 
REMARK    4  A    between atoms: C_13  and  C_65 
REMARK    5  A    between atoms: C_17  and  C_38 
REMARK    6  A    between atoms: C_26  and  C_30 
REMARK    7  A    between atoms: C_30  and  C_31 
REMARK    8  A    between atoms: C_34  and  O_37 
REMARK       I    between atoms: C_38  and  N_40 
REMARK    9  A    between atoms: N_40  and  C_41 
REMARK   10  A    between atoms: N_40  and  C_49 
REMARK   11  A    between atoms: C_41  and  C_42 
REMARK   12  A    between atoms: C_49  and  C_50 
REMARK       I    between atoms: C_50  and  N_52 
REMARK   13  A    between atoms: C_53  and  N_52 
REMARK   14  A    between atoms: C_53  and  C_54 
REMARK   15  A    between atoms: C_53  and  C_58 
REMARK   16  A    between atoms: C_54  and  C_55 
REMARK       I    between atoms: C_58  and  N_60 
REMARK   17  A    between atoms: N_60  and  C_61 
REMARK   18  A    between atoms: C_61  and  C_62 
REMARK       I    between atoms: C_62  and  N_64 
REMARK   19  A    between atoms: C_65  and  C_66 
REMARK       I    between atoms: C_66  and  N_68 
REMARK   20  A    between atoms: C_69  and  C_70 
REMARK   21  A    between atoms: C_70  and  C_71 
REMARK       I    between atoms: C_71  and  N_73 
ROOT
HETATM    1  C   UNK N   1      33.285  15.321   6.597  0.00  0.00     0.180 C 
HETATM    2  C   UNK N   1      33.259  16.815   6.261  0.00  0.00     0.241 C 
HETATM    3  O   UNK N   1      34.308  17.437   6.235  0.00  0.00    -0.271 OA
HETATM    4  N   UNK N   1      32.122  17.500   5.974  0.00  0.00    -0.346 N 
HETATM    5  C   UNK N   1      30.751  17.063   6.079  0.00  0.00     0.177 C 
HETATM    6  C   UNK N   1      30.293  15.925   5.233  0.00  0.00     0.241 C 
HETATM    7  O   UNK N   1      30.693  15.814   4.085  0.00  0.00    -0.271 OA
HETATM    8  N   UNK N   1      29.305  15.140   5.729  0.00  0.00    -0.346 N 
HETATM    9  C   UNK N   1      28.372  14.267   5.048  0.00  0.00     0.185 C 
HETATM   10  C   UNK N   1      28.249  14.462   3.530  0.00  0.00     0.241 C 
HETATM   11  O   UNK N   1      28.503  15.544   3.032  0.00  0.00    -0.271 OA
HETATM   12  N   UNK N   1      27.800  13.474   2.709  0.00  0.00    -0.345 N 
HETATM   13  C   UNK N   1      26.912  12.415   3.132  0.00  0.00     0.186 C 
HETATM   14  C   UNK N   1      26.897  11.312   2.078  0.00  0.00     0.108 C 
HETATM   15  S   UNK N   1      25.904   9.846   2.536  0.00  0.00    -0.167 SA
HETATM   16  C   UNK N   1      26.791   9.377   4.067  0.00  0.00     0.074 C 
HETATM   17  C   UNK N   1      28.303   9.422   3.934  0.00  0.00     0.019 C 
HETATM   18  C   UNK N   1      28.794  10.572   4.800  0.00  0.00     0.103 C 
HETATM   19  C   UNK N   1      29.882  11.350   4.131  0.00  0.00     0.218 C 
HETATM   20  O   UNK N   1      29.775  11.670   2.958  0.00  0.00    -0.274 OA
HETATM   21  N   UNK N   1      30.975  11.718   4.837  0.00  0.00    -0.347 N 
HETATM   22  C   UNK N   1      32.019  12.545   4.262  0.00  0.00     0.180 C 
HETATM   23  C   UNK N   1      32.748  13.208   5.390  0.00  0.00     0.241 C 
HETATM   24  O   UNK N   1      33.314  12.521   6.230  0.00  0.00    -0.271 OA
HETATM   25  N   UNK N   1      32.761  14.563   5.475  0.00  0.00    -0.346 N 
HETATM   26  H   UNK N   1      32.252  18.421   5.648  0.00  0.00     0.163 HD
HETATM   27  H   UNK N   1      29.208  15.166   6.709  0.00  0.00     0.163 HD
HETATM   28  H   UNK N   1      28.098  13.481   1.770  0.00  0.00     0.163 HD
HETATM   29  H   UNK N   1      31.066  11.415   5.769  0.00  0.00     0.163 HD
HETATM   30  H   UNK N   1      32.388  15.071   4.718  0.00  0.00     0.163 HD
ENDROOT
BRANCH  13  31
HETATM   31  C   UNK N   1      25.623  13.164   3.322  0.00  0.00     0.244 C 
HETATM   32  O   UNK N   1      25.436  14.168   2.671  0.00  0.00    -0.271 OA
HETATM   33  N   UNK N   1      24.580  12.515   3.932  0.00  0.00    -0.337 N 
BRANCH  33  34
HETATM   34  C   UNK N   1      24.803  11.598   5.024  0.00  0.00     0.165 C 
BRANCH  34  35
HETATM   35  C   UNK N   1      24.030  12.079   6.237  0.00  0.00    -0.040 A 
HETATM   36  C   UNK N   1      24.431  13.239   6.930  0.00  0.00     0.012 A 
HETATM   37  C   UNK N   1      23.749  13.670   8.064  0.00  0.00     0.043 A 
HETATM   38  C   UNK N   1      22.651  12.950   8.524  0.00  0.00     0.116 A 
HETATM   39  C   UNK N   1      22.236  11.797   7.846  0.00  0.00     0.043 A 
HETATM   40  F   UNK N   1      21.987  13.373   9.627  0.00  0.00    -0.206 F 
HETATM   41  C   UNK N   1      22.925  11.359   6.705  0.00  0.00     0.012 A 
ENDBRANCH  34  35
ENDBRANCH  33  34
BRANCH  33  42
HETATM   42  C   UNK N   1      23.297  12.493   3.261  0.00  0.00     0.228 C 
BRANCH  42  43
HETATM   43  C   UNK N   1      22.339  13.412   3.864  0.00  0.00     0.236 C 
HETATM   44  O   UNK N   1      21.240  12.998   4.203  0.00  0.00    -0.272 OA
HETATM   45  N   UNK N   1      22.685  14.714   4.033  0.00  0.00    -0.346 N 
HETATM   46  H   UNK N   1      23.616  14.984   3.861  0.00  0.00     0.163 HD
BRANCH  45  47
HETATM   47  C   UNK N   1      21.734  15.719   4.460  0.00  0.00     0.177 C 
BRANCH  47  48
HETATM   48  C   UNK N   1      21.855  15.854   5.986  0.00  0.00     0.038 C 
BRANCH  48  49
HETATM   49  C   UNK N   1      20.728  16.536   6.737  0.00  0.00    -0.020 C 
HETATM   50  C   UNK N   1      20.837  16.171   8.201  0.00  0.00     0.009 C 
HETATM   51  C   UNK N   1      19.386  16.088   6.197  0.00  0.00     0.009 C 
ENDBRANCH  48  49
ENDBRANCH  47  48
BRANCH  47  52
HETATM   52  C   UNK N   1      21.755  16.952   3.541  0.00  0.00     0.240 C 
HETATM   53  O   UNK N   1      22.561  17.835   3.797  0.00  0.00    -0.271 OA
HETATM   54  N   UNK N   1      21.000  17.120   2.416  0.00  0.00    -0.351 N 
HETATM   55  H   UNK N   1      21.208  17.960   1.948  0.00  0.00     0.163 HD
BRANCH  54  56
HETATM   56  C   UNK N   1      19.961  16.356   1.743  0.00  0.00     0.225 C 
BRANCH  56  57
HETATM   57  C   UNK N   1      19.599  16.722   0.350  0.00  0.00     0.233 C 
HETATM   58  O   UNK N   1      20.404  17.287  -0.370  0.00  0.00    -0.272 OA
HETATM   59  N   UNK N   1      18.350  16.474  -0.096  0.00  0.00    -0.369 N 
HETATM   60  H   UNK N   1      18.064  15.569  -0.360  0.00  0.00     0.159 HD
HETATM   61  H   UNK N   1      17.709  17.217  -0.160  0.00  0.00     0.159 HD
ENDBRANCH  56  57
ENDBRANCH  54  56
ENDBRANCH  47  52
ENDBRANCH  45  47
ENDBRANCH  42  43
ENDBRANCH  33  42
ENDBRANCH  13  31
BRANCH   9  62
HETATM   62  C   UNK N   1      27.040  14.436   5.785  0.00  0.00     0.137 C 
BRANCH  62  63
HETATM   63  C   UNK N   1      26.524  15.851   5.928  0.00  0.00     0.217 C 
HETATM   64  O   UNK N   1      26.710  16.491   6.950  0.00  0.00    -0.274 OA
HETATM   65  N   UNK N   1      25.839  16.410   4.913  0.00  0.00    -0.370 N 
HETATM   66  H   UNK N   1      25.997  16.233   3.957  0.00  0.00     0.159 HD
HETATM   67  H   UNK N   1      25.124  17.047   5.144  0.00  0.00     0.159 HD
ENDBRANCH  62  63
ENDBRANCH   9  62
BRANCH   5  68
HETATM   68  C   UNK N   1      30.199  17.102   7.500  0.00  0.00     0.044 C 
BRANCH  68  69
HETATM   69  C   UNK N   1      29.483  18.422   7.754  0.00  0.00     0.105 C 
BRANCH  69  70
HETATM   70  C   UNK N   1      28.853  18.473   9.114  0.00  0.00     0.215 C 
HETATM   71  O   UNK N   1      29.529  18.715  10.102  0.00  0.00    -0.274 OA
HETATM   72  N   UNK N   1      27.539  18.214   9.252  0.00  0.00    -0.370 N 
HETATM   73  H   UNK N   1      26.834  18.859   9.490  0.00  0.00     0.159 HD
HETATM   74  H   UNK N   1      27.253  17.284   9.099  0.00  0.00     0.159 HD
ENDBRANCH  69  70
ENDBRANCH  68  69
ENDBRANCH   5  68
BRANCH  22  75
HETATM   75  C   UNK N   1      33.058  11.778   3.416  0.00  0.00     0.073 C 
BRANCH  75  76
HETATM   76  C   UNK N   1      33.112  10.274   3.426  0.00  0.00    -0.056 A 
HETATM   77  C   UNK N   1      32.465   9.527   2.434  0.00  0.00     0.010 A 
HETATM   78  C   UNK N   1      32.396   8.138   2.517  0.00  0.00     0.037 A 
HETATM   79  C   UNK N   1      32.926   7.482   3.626  0.00  0.00     0.065 A 
HETATM   80  C   UNK N   1      33.545   8.218   4.643  0.00  0.00     0.037 A 
HETATM   81  C   UNK N   1      33.636   9.613   4.545  0.00  0.00     0.010 A 
BRANCH  79  82
HETATM   82  O   UNK N   1      32.831   6.147   3.719  0.00  0.00    -0.361 OA
HETATM   83  H   UNK N   1      32.056   5.695   3.450  0.00  0.00     0.217 HD
ENDBRANCH  79  82
ENDBRANCH  75  76
ENDBRANCH  22  75
BRANCH   1  84
HETATM   84  C   UNK N   1      34.690  14.809   7.008  0.00  0.00     0.013 C 
HETATM   85  C   UNK N   1      35.129  15.393   8.336  0.00  0.00     0.012 C 
BRANCH  84  86
HETATM   86  C   UNK N   1      35.770  15.023   5.949  0.00  0.00     0.002 C 
HETATM   87  C   UNK N   1      37.013  14.226   6.272  0.00  0.00     0.005 C 
ENDBRANCH  84  86
ENDBRANCH   1  84
TORSDOF 21
ENDMDL
MODEL 6
REMARK VINA RESULT:      -7.3      3.110     10.114
REMARK  21 active torsions:
REMARK  status: ('A' for Active; 'I' for Inactive)
REMARK    1  A    between atoms: C_2  and  C_3 
REMARK    2  A    between atoms: C_5  and  C_3 
REMARK    3  A    between atoms: C_9  and  C_69 
REMARK    4  A    between atoms: C_13  and  C_65 
REMARK    5  A    between atoms: C_17  and  C_38 
REMARK    6  A    between atoms: C_26  and  C_30 
REMARK    7  A    between atoms: C_30  and  C_31 
REMARK    8  A    between atoms: C_34  and  O_37 
REMARK       I    between atoms: C_38  and  N_40 
REMARK    9  A    between atoms: N_40  and  C_41 
REMARK   10  A    between atoms: N_40  and  C_49 
REMARK   11  A    between atoms: C_41  and  C_42 
REMARK   12  A    between atoms: C_49  and  C_50 
REMARK       I    between atoms: C_50  and  N_52 
REMARK   13  A    between atoms: C_53  and  N_52 
REMARK   14  A    between atoms: C_53  and  C_54 
REMARK   15  A    between atoms: C_53  and  C_58 
REMARK   16  A    between atoms: C_54  and  C_55 
REMARK       I    between atoms: C_58  and  N_60 
REMARK   17  A    between atoms: N_60  and  C_61 
REMARK   18  A    between atoms: C_61  and  C_62 
REMARK       I    between atoms: C_62  and  N_64 
REMARK   19  A    between atoms: C_65  and  C_66 
REMARK       I    between atoms: C_66  and  N_68 
REMARK   20  A    between atoms: C_69  and  C_70 
REMARK   21  A    between atoms: C_70  and  C_71 
REMARK       I    between atoms: C_71  and  N_73 
ROOT
HETATM    1  C   UNK N   1      20.478  16.368   6.402  0.00  0.00     0.180 C 
HETATM    2  C   UNK N   1      21.231  17.664   6.716  0.00  0.00     0.241 C 
HETATM    3  O   UNK N   1      20.838  18.374   7.627  0.00  0.00    -0.271 OA
HETATM    4  N   UNK N   1      22.333  18.075   6.038  0.00  0.00    -0.346 N 
HETATM    5  C   UNK N   1      22.916  17.524   4.839  0.00  0.00     0.177 C 
HETATM    6  C   UNK N   1      23.441  16.129   4.870  0.00  0.00     0.241 C 
HETATM    7  O   UNK N   1      24.020  15.714   5.862  0.00  0.00    -0.271 OA
HETATM    8  N   UNK N   1      23.396  15.422   3.715  0.00  0.00    -0.346 N 
HETATM    9  C   UNK N   1      24.162  14.268   3.292  0.00  0.00     0.185 C 
HETATM   10  C   UNK N   1      25.423  13.958   4.112  0.00  0.00     0.241 C 
HETATM   11  O   UNK N   1      25.997  14.851   4.709  0.00  0.00    -0.271 OA
HETATM   12  N   UNK N   1      25.973  12.713   4.150  0.00  0.00    -0.345 N 
HETATM   13  C   UNK N   1      25.834  11.739   3.092  0.00  0.00     0.186 C 
HETATM   14  C   UNK N   1      26.263  10.367   3.604  0.00  0.00     0.108 C 
HETATM   15  S   UNK N   1      26.027   9.007   2.405  0.00  0.00    -0.167 SA
HETATM   16  C   UNK N   1      24.218   9.160   2.165  0.00  0.00     0.074 C 
HETATM   17  C   UNK N   1      23.445   9.351   3.458  0.00  0.00     0.019 C 
HETATM   18  C   UNK N   1      22.892  10.768   3.442  0.00  0.00     0.103 C 
HETATM   19  C   UNK N   1      23.003  11.426   4.779  0.00  0.00     0.218 C 
HETATM   20  O   UNK N   1      24.041  11.345   5.418  0.00  0.00    -0.274 OA
HETATM   21  N   UNK N   1      21.960  12.133   5.269  0.00  0.00    -0.347 N 
HETATM   22  C   UNK N   1      22.045  12.862   6.520  0.00  0.00     0.180 C 
HETATM   23  C   UNK N   1      20.997  13.933   6.496  0.00  0.00     0.241 C 
HETATM   24  O   UNK N   1      19.818  13.622   6.388  0.00  0.00    -0.271 OA
HETATM   25  N   UNK N   1      21.370  15.236   6.579  0.00  0.00    -0.346 N 
HETATM   26  H   UNK N   1      22.800  18.855   6.419  0.00  0.00     0.163 HD
HETATM   27  H   UNK N   1      22.735  15.743   3.059  0.00  0.00     0.163 HD
HETATM   28  H   UNK N   1      26.496  12.462   4.945  0.00  0.00     0.163 HD
HETATM   29  H   UNK N   1      21.117  12.153   4.762  0.00  0.00     0.163 HD
HETATM   30  H   UNK N   1      22.315  15.428   6.775  0.00  0.00     0.163 HD
ENDROOT
BRANCH  13  31
HETATM   31  C   UNK N   1      26.693  12.341   2.016  0.00  0.00     0.244 C 
HETATM   32  O   UNK N   1      26.190  12.581   0.941  0.00  0.00    -0.271 OA
HETATM   33  N   UNK N   1      27.882  12.919   2.383  0.00  0.00    -0.337 N 
BRANCH  33  34
HETATM   34  C   UNK N   1      28.697  12.355   3.431  0.00  0.00     0.165 C 
BRANCH  34  35
HETATM   35  C   UNK N   1      29.604  11.296   2.835  0.00  0.00    -0.040 A 
HETATM   36  C   UNK N   1      30.132  11.451   1.537  0.00  0.00     0.012 A 
HETATM   37  C   UNK N   1      30.937  10.470   0.967  0.00  0.00     0.043 A 
HETATM   38  C   UNK N   1      31.232   9.316   1.687  0.00  0.00     0.116 A 
HETATM   39  C   UNK N   1      30.719   9.146   2.979  0.00  0.00     0.043 A 
HETATM   40  F   UNK N   1      32.019   8.363   1.132  0.00  0.00    -0.206 F 
HETATM   41  C   UNK N   1      29.904  10.133   3.552  0.00  0.00     0.012 A 
ENDBRANCH  34  35
ENDBRANCH  33  34
BRANCH  33  42
HETATM   42  C   UNK N   1      28.148  14.275   1.952  0.00  0.00     0.228 C 
BRANCH  42  43
HETATM   43  C   UNK N   1      28.959  15.014   2.913  0.00  0.00     0.236 C 
HETATM   44  O   UNK N   1      30.134  14.715   3.065  0.00  0.00    -0.272 OA
HETATM   45  N   UNK N   1      28.389  16.020   3.625  0.00  0.00    -0.346 N 
HETATM   46  H   UNK N   1      27.478  16.311   3.391  0.00  0.00     0.163 HD
BRANCH  45  47
HETATM   47  C   UNK N   1      29.074  16.681   4.717  0.00  0.00     0.177 C 
BRANCH  47  48
HETATM   48  C   UNK N   1      30.380  17.266   4.156  0.00  0.00     0.038 C 
BRANCH  48  49
HETATM   49  C   UNK N   1      31.595  17.305   5.063  0.00  0.00    -0.020 C 
HETATM   50  C   UNK N   1      32.819  17.573   4.215  0.00  0.00     0.009 C 
HETATM   51  C   UNK N   1      31.755  15.986   5.789  0.00  0.00     0.009 C 
ENDBRANCH  48  49
ENDBRANCH  47  48
BRANCH  47  52
HETATM   52  C   UNK N   1      28.113  17.530   5.565  0.00  0.00     0.240 C 
HETATM   53  O   UNK N   1      27.106  17.959   5.020  0.00  0.00    -0.271 OA
HETATM   54  N   UNK N   1      28.246  17.790   6.898  0.00  0.00    -0.351 N 
HETATM   55  H   UNK N   1      27.491  18.312   7.254  0.00  0.00     0.163 HD
BRANCH  54  56
HETATM   56  C   UNK N   1      29.237  17.486   7.919  0.00  0.00     0.225 C 
BRANCH  56  57
HETATM   57  C   UNK N   1      28.871  17.678   9.345  0.00  0.00     0.233 C 
HETATM   58  O   UNK N   1      27.807  17.262   9.772  0.00  0.00    -0.272 OA
HETATM   59  N   UNK N   1      29.701  18.367  10.154  0.00  0.00    -0.369 N 
HETATM   60  H   UNK N   1      30.523  17.965  10.518  0.00  0.00     0.159 HD
HETATM   61  H   UNK N   1      29.479  19.297  10.388  0.00  0.00     0.159 HD
ENDBRANCH  56  57
ENDBRANCH  54  56
ENDBRANCH  47  52
ENDBRANCH  45  47
ENDBRANCH  42  43
ENDBRANCH  33  42
ENDBRANCH  13  31
BRANCH   9  62
HETATM   62  C   UNK N   1      24.452  14.490   1.805  0.00  0.00     0.137 C 
BRANCH  62  63
HETATM   63  C   UNK N   1      23.321  14.189   0.847  0.00  0.00     0.217 C 
HETATM   64  O   UNK N   1      22.322  14.888   0.807  0.00  0.00    -0.274 OA
HETATM   65  N   UNK N   1      23.415  13.123   0.029  0.00  0.00    -0.370 N 
HETATM   66  H   UNK N   1      24.251  12.779  -0.361  0.00  0.00     0.159 HD
HETATM   67  H   UNK N   1      22.581  12.650  -0.198  0.00  0.00     0.159 HD
ENDBRANCH  62  63
ENDBRANCH   9  62
BRANCH   5  68
HETATM   68  C   UNK N   1      22.200  17.937   3.559  0.00  0.00     0.044 C 
BRANCH  68  69
HETATM   69  C   UNK N   1      21.520  19.288   3.746  0.00  0.00     0.105 C 
BRANCH  69  70
HETATM   70  C   UNK N   1      21.887  20.262   2.666  0.00  0.00     0.215 C 
HETATM   71  O   UNK N   1      22.760  21.096   2.854  0.00  0.00    -0.274 OA
HETATM   72  N   UNK N   1      21.225  20.241   1.494  0.00  0.00    -0.370 N 
HETATM   73  H   UNK N   1      21.583  19.961   0.621  0.00  0.00     0.159 HD
HETATM   74  H   UNK N   1      20.286  20.538   1.511  0.00  0.00     0.159 HD
ENDBRANCH  69  70
ENDBRANCH  68  69
ENDBRANCH   5  68
BRANCH  22  75
HETATM   75  C   UNK N   1      21.812  12.005   7.784  0.00  0.00     0.073 C 
BRANCH  75  76
HETATM   76  C   UNK N   1      22.651  12.194   9.018  0.00  0.00    -0.056 A 
HETATM   77  C   UNK N   1      24.034  12.392   8.921  0.00  0.00     0.010 A 
HETATM   78  C   UNK N   1      24.831  12.430  10.063  0.00  0.00     0.037 A 
HETATM   79  C   UNK N   1      24.260  12.213  11.316  0.00  0.00     0.065 A 
HETATM   80  C   UNK N   1      22.885  11.980  11.425  0.00  0.00     0.037 A 
HETATM   81  C   UNK N   1      22.080  11.968  10.278  0.00  0.00     0.010 A 
BRANCH  79  82
HETATM   82  O   UNK N   1      25.035  12.220  12.411  0.00  0.00    -0.361 OA
HETATM   83  H   UNK N   1      25.637  11.523  12.584  0.00  0.00     0.217 HD
ENDBRANCH  79  82
ENDBRANCH  75  76
ENDBRANCH  22  75
BRANCH   1  84
HETATM   84  C   UNK N   1      19.183  16.193   7.236  0.00  0.00     0.013 C 
HETATM   85  C   UNK N   1      17.943  16.368   6.382  0.00  0.00     0.012 C 
BRANCH  84  86
HETATM   86  C   UNK N   1      19.108  17.086   8.473  0.00  0.00     0.002 C 
HETATM   87  C   UNK N   1      17.718  17.076   9.067  0.00  0.00     0.005 C 
ENDBRANCH  84  86
ENDBRANCH   1  84
TORSDOF 21
ENDMDL
MODEL 7
REMARK VINA RESULT:      -7.2      3.461     10.437
REMARK  21 active torsions:
REMARK  status: ('A' for Active; 'I' for Inactive)
REMARK    1  A    between atoms: C_2  and  C_3 
REMARK    2  A    between atoms: C_5  and  C_3 
REMARK    3  A    between atoms: C_9  and  C_69 
REMARK    4  A    between atoms: C_13  and  C_65 
REMARK    5  A    between atoms: C_17  and  C_38 
REMARK    6  A    between atoms: C_26  and  C_30 
REMARK    7  A    between atoms: C_30  and  C_31 
REMARK    8  A    between atoms: C_34  and  O_37 
REMARK       I    between atoms: C_38  and  N_40 
REMARK    9  A    between atoms: N_40  and  C_41 
REMARK   10  A    between atoms: N_40  and  C_49 
REMARK   11  A    between atoms: C_41  and  C_42 
REMARK   12  A    between atoms: C_49  and  C_50 
REMARK       I    between atoms: C_50  and  N_52 
REMARK   13  A    between atoms: C_53  and  N_52 
REMARK   14  A    between atoms: C_53  and  C_54 
REMARK   15  A    between atoms: C_53  and  C_58 
REMARK   16  A    between atoms: C_54  and  C_55 
REMARK       I    between atoms: C_58  and  N_60 
REMARK   17  A    between atoms: N_60  and  C_61 
REMARK   18  A    between atoms: C_61  and  C_62 
REMARK       I    between atoms: C_62  and  N_64 
REMARK   19  A    between atoms: C_65  and  C_66 
REMARK       I    between atoms: C_66  and  N_68 
REMARK   20  A    between atoms: C_69  and  C_70 
REMARK   21  A    between atoms: C_70  and  C_71 
REMARK       I    between atoms: C_71  and  N_73 
ROOT
HETATM    1  C   UNK N   1      23.079  15.677   4.739  0.00  0.00     0.180 C 
HETATM    2  C   UNK N   1      23.280  16.988   5.504  0.00  0.00     0.241 C 
HETATM    3  O   UNK N   1      22.355  17.446   6.154  0.00  0.00    -0.271 OA
HETATM    4  N   UNK N   1      24.449  17.680   5.514  0.00  0.00    -0.346 N 
HETATM    5  C   UNK N   1      25.638  17.459   4.727  0.00  0.00     0.177 C 
HETATM    6  C   UNK N   1      26.381  16.178   4.892  0.00  0.00     0.241 C 
HETATM    7  O   UNK N   1      26.497  15.675   5.998  0.00  0.00    -0.271 OA
HETATM    8  N   UNK N   1      27.050  15.704   3.812  0.00  0.00    -0.346 N 
HETATM    9  C   UNK N   1      28.161  14.779   3.731  0.00  0.00     0.185 C 
HETATM   10  C   UNK N   1      28.914  14.511   5.042  0.00  0.00     0.241 C 
HETATM   11  O   UNK N   1      28.920  15.351   5.924  0.00  0.00    -0.271 OA
HETATM   12  N   UNK N   1      29.643  13.379   5.239  0.00  0.00    -0.345 N 
HETATM   13  C   UNK N   1      30.245  12.612   4.172  0.00  0.00     0.186 C 
HETATM   14  C   UNK N   1      30.674  11.248   4.705  0.00  0.00     0.108 C 
HETATM   15  S   UNK N   1      31.347  10.120   3.433  0.00  0.00    -0.167 SA
HETATM   16  C   UNK N   1      29.887  10.043   2.330  0.00  0.00     0.074 C 
HETATM   17  C   UNK N   1      28.572   9.868   3.070  0.00  0.00     0.019 C 
HETATM   18  C   UNK N   1      27.792  11.163   2.905  0.00  0.00     0.103 C 
HETATM   19  C   UNK N   1      27.105  11.566   4.170  0.00  0.00     0.218 C 
HETATM   20  O   UNK N   1      27.702  11.521   5.234  0.00  0.00    -0.274 OA
HETATM   21  N   UNK N   1      25.826  12.003   4.130  0.00  0.00    -0.347 N 
HETATM   22  C   UNK N   1      25.141  12.486   5.314  0.00  0.00     0.180 C 
HETATM   23  C   UNK N   1      24.021  13.374   4.862  0.00  0.00     0.241 C 
HETATM   24  O   UNK N   1      23.138  12.916   4.148  0.00  0.00    -0.271 OA
HETATM   25  N   UNK N   1      24.007  14.678   5.238  0.00  0.00    -0.346 N 
HETATM   26  H   UNK N   1      24.491  18.435   6.146  0.00  0.00     0.163 HD
HETATM   27  H   UNK N   1      26.727  16.040   2.945  0.00  0.00     0.163 HD
HETATM   28  H   UNK N   1      29.767  13.063   6.163  0.00  0.00     0.163 HD
HETATM   29  H   UNK N   1      25.345  11.992   3.271  0.00  0.00     0.163 HD
HETATM   30  H   UNK N   1      24.676  14.969   5.899  0.00  0.00     0.163 HD
ENDROOT
BRANCH  13  31
HETATM   31  C   UNK N   1      31.352  13.528   3.734  0.00  0.00     0.244 C 
HETATM   32  O   UNK N   1      31.358  13.922   2.589  0.00  0.00    -0.271 OA
HETATM   33  N   UNK N   1      32.091  14.161   4.702  0.00  0.00    -0.337 N 
BRANCH  33  34
HETATM   34  C   UNK N   1      32.436  13.499   5.935  0.00  0.00     0.165 C 
BRANCH  34  35
HETATM   35  C   UNK N   1      33.882  13.045   5.864  0.00  0.00    -0.040 A 
HETATM   36  C   UNK N   1      34.393  12.460   4.688  0.00  0.00     0.012 A 
HETATM   37  C   UNK N   1      35.709  12.010   4.624  0.00  0.00     0.043 A 
HETATM   38  C   UNK N   1      36.538  12.141   5.734  0.00  0.00     0.116 A 
HETATM   39  C   UNK N   1      36.047  12.723   6.909  0.00  0.00     0.043 A 
HETATM   40  F   UNK N   1      37.818  11.704   5.668  0.00  0.00    -0.206 F 
HETATM   41  C   UNK N   1      34.720  13.173   6.977  0.00  0.00     0.012 A 
ENDBRANCH  34  35
ENDBRANCH  33  34
BRANCH  33  42
HETATM   42  C   UNK N   1      32.234  15.600   4.625  0.00  0.00     0.228 C 
BRANCH  42  43
HETATM   43  C   UNK N   1      32.676  16.182   5.887  0.00  0.00     0.236 C 
HETATM   44  O   UNK N   1      33.855  16.470   6.036  0.00  0.00    -0.272 OA
HETATM   45  N   UNK N   1      31.769  16.390   6.875  0.00  0.00    -0.346 N 
HETATM   46  H   UNK N   1      30.813  16.259   6.678  0.00  0.00     0.163 HD
BRANCH  45  47
HETATM   47  C   UNK N   1      32.157  16.797   8.210  0.00  0.00     0.177 C 
BRANCH  47  48
HETATM   48  C   UNK N   1      31.145  17.851   8.685  0.00  0.00     0.038 C 
BRANCH  48  49
HETATM   49  C   UNK N   1      29.673  17.483   8.680  0.00  0.00    -0.020 C 
HETATM   50  C   UNK N   1      28.893  18.639   8.092  0.00  0.00     0.009 C 
HETATM   51  C   UNK N   1      29.192  17.204  10.088  0.00  0.00     0.009 C 
ENDBRANCH  48  49
ENDBRANCH  47  48
BRANCH  47  52
HETATM   52  C   UNK N   1      32.534  15.593   9.089  0.00  0.00     0.240 C 
HETATM   53  O   UNK N   1      31.782  14.629   9.082  0.00  0.00    -0.271 OA
HETATM   54  N   UNK N   1      33.677  15.471   9.825  0.00  0.00    -0.351 N 
HETATM   55  H   UNK N   1      33.742  14.597  10.273  0.00  0.00     0.163 HD
BRANCH  54  56
HETATM   56  C   UNK N   1      34.821  16.324  10.111  0.00  0.00     0.225 C 
BRANCH  56  57
HETATM   57  C   UNK N   1      36.049  15.703  10.667  0.00  0.00     0.233 C 
HETATM   58  O   UNK N   1      36.893  15.229   9.926  0.00  0.00    -0.272 OA
HETATM   59  N   UNK N   1      36.200  15.617  12.005  0.00  0.00    -0.369 N 
HETATM   60  H   UNK N   1      36.461  16.395  12.549  0.00  0.00     0.159 HD
HETATM   61  H   UNK N   1      36.045  14.752  12.449  0.00  0.00     0.159 HD
ENDBRANCH  56  57
ENDBRANCH  54  56
ENDBRANCH  47  52
ENDBRANCH  45  47
ENDBRANCH  42  43
ENDBRANCH  33  42
ENDBRANCH  13  31
BRANCH   9  62
HETATM   62  C   UNK N   1      29.065  15.319   2.619  0.00  0.00     0.137 C 
BRANCH  62  63
HETATM   63  C   UNK N   1      29.649  16.697   2.836  0.00  0.00     0.217 C 
HETATM   64  O   UNK N   1      29.035  17.556   3.448  0.00  0.00    -0.274 OA
HETATM   65  N   UNK N   1      30.866  16.986   2.335  0.00  0.00    -0.370 N 
HETATM   66  H   UNK N   1      31.607  16.345   2.245  0.00  0.00     0.159 HD
HETATM   67  H   UNK N   1      31.026  17.910   2.035  0.00  0.00     0.159 HD
ENDBRANCH  62  63
ENDBRANCH   9  62
BRANCH   5  68
HETATM   68  C   UNK N   1      25.543  17.995   3.303  0.00  0.00     0.044 C 
BRANCH  68  69
HETATM   69  C   UNK N   1      25.098  19.452   3.315  0.00  0.00     0.105 C 
BRANCH  69  70
HETATM   70  C   UNK N   1      26.225  20.393   3.006  0.00  0.00     0.215 C 
HETATM   71  O   UNK N   1      26.057  21.332   2.243  0.00  0.00    -0.274 OA
HETATM   72  N   UNK N   1      27.441  20.178   3.543  0.00  0.00    -0.370 N 
HETATM   73  H   UNK N   1      27.884  20.724   4.231  0.00  0.00     0.159 HD
HETATM   74  H   UNK N   1      27.938  19.394   3.212  0.00  0.00     0.159 HD
ENDBRANCH  69  70
ENDBRANCH  68  69
ENDBRANCH   5  68
BRANCH  22  75
HETATM   75  C   UNK N   1      24.535  11.381   6.205  0.00  0.00     0.073 C 
BRANCH  75  76
HETATM   76  C   UNK N   1      24.245  11.626   7.661  0.00  0.00    -0.056 A 
HETATM   77  C   UNK N   1      23.299  10.851   8.344  0.00  0.00     0.010 A 
HETATM   78  C   UNK N   1      22.929  11.164   9.650  0.00  0.00     0.037 A 
HETATM   79  C   UNK N   1      23.460  12.293  10.270  0.00  0.00     0.065 A 
HETATM   80  C   UNK N   1      24.380  13.097   9.588  0.00  0.00     0.037 A 
HETATM   81  C   UNK N   1      24.771  12.766   8.284  0.00  0.00     0.010 A 
BRANCH  79  82
HETATM   82  O   UNK N   1      23.078  12.610  11.517  0.00  0.00    -0.361 OA
HETATM   83  H   UNK N   1      23.141  11.990  12.216  0.00  0.00     0.217 HD
ENDBRANCH  79  82
ENDBRANCH  75  76
ENDBRANCH  22  75
BRANCH   1  84
HETATM   84  C   UNK N   1      21.620  15.156   4.788  0.00  0.00     0.013 C 
HETATM   85  C   UNK N   1      20.717  15.937   3.855  0.00  0.00     0.012 C 
BRANCH  84  86
HETATM   86  C   UNK N   1      21.019  15.106   6.191  0.00  0.00     0.002 C 
HETATM   87  C   UNK N   1      20.840  13.679   6.657  0.00  0.00     0.005 C 
ENDBRANCH  84  86
ENDBRANCH   1  84
TORSDOF 21
ENDMDL
MODEL 8
REMARK VINA RESULT:      -7.2      1.609      2.067
REMARK  21 active torsions:
REMARK  status: ('A' for Active; 'I' for Inactive)
REMARK    1  A    between atoms: C_2  and  C_3 
REMARK    2  A    between atoms: C_5  and  C_3 
REMARK    3  A    between atoms: C_9  and  C_69 
REMARK    4  A    between atoms: C_13  and  C_65 
REMARK    5  A    between atoms: C_17  and  C_38 
REMARK    6  A    between atoms: C_26  and  C_30 
REMARK    7  A    between atoms: C_30  and  C_31 
REMARK    8  A    between atoms: C_34  and  O_37 
REMARK       I    between atoms: C_38  and  N_40 
REMARK    9  A    between atoms: N_40  and  C_41 
REMARK   10  A    between atoms: N_40  and  C_49 
REMARK   11  A    between atoms: C_41  and  C_42 
REMARK   12  A    between atoms: C_49  and  C_50 
REMARK       I    between atoms: C_50  and  N_52 
REMARK   13  A    between atoms: C_53  and  N_52 
REMARK   14  A    between atoms: C_53  and  C_54 
REMARK   15  A    between atoms: C_53  and  C_58 
REMARK   16  A    between atoms: C_54  and  C_55 
REMARK       I    between atoms: C_58  and  N_60 
REMARK   17  A    between atoms: N_60  and  C_61 
REMARK   18  A    between atoms: C_61  and  C_62 
REMARK       I    between atoms: C_62  and  N_64 
REMARK   19  A    between atoms: C_65  and  C_66 
REMARK       I    between atoms: C_66  and  N_68 
REMARK   20  A    between atoms: C_69  and  C_70 
REMARK   21  A    between atoms: C_70  and  C_71 
REMARK       I    between atoms: C_71  and  N_73 
ROOT
HETATM    1  C   UNK N   1      32.975  15.296   6.180  0.00  0.00     0.180 C 
HETATM    2  C   UNK N   1      32.983  16.820   6.026  0.00  0.00     0.241 C 
HETATM    3  O   UNK N   1      34.048  17.414   6.045  0.00  0.00    -0.271 OA
HETATM    4  N   UNK N   1      31.859  17.563   5.857  0.00  0.00    -0.346 N 
HETATM    5  C   UNK N   1      30.479  17.150   5.949  0.00  0.00     0.177 C 
HETATM    6  C   UNK N   1      29.967  16.135   4.986  0.00  0.00     0.241 C 
HETATM    7  O   UNK N   1      30.335  16.153   3.822  0.00  0.00    -0.271 OA
HETATM    8  N   UNK N   1      28.971  15.321   5.412  0.00  0.00    -0.346 N 
HETATM    9  C   UNK N   1      27.996  14.560   4.659  0.00  0.00     0.185 C 
HETATM   10  C   UNK N   1      27.840  14.939   3.180  0.00  0.00     0.241 C 
HETATM   11  O   UNK N   1      28.112  16.067   2.807  0.00  0.00    -0.271 OA
HETATM   12  N   UNK N   1      27.342  14.069   2.259  0.00  0.00    -0.345 N 
HETATM   13  C   UNK N   1      26.436  12.990   2.578  0.00  0.00     0.186 C 
HETATM   14  C   UNK N   1      26.362  12.022   1.400  0.00  0.00     0.108 C 
HETATM   15  S   UNK N   1      25.340  10.537   1.707  0.00  0.00    -0.167 SA
HETATM   16  C   UNK N   1      26.253   9.865   3.145  0.00  0.00     0.074 C 
HETATM   17  C   UNK N   1      27.762   9.888   2.974  0.00  0.00     0.019 C 
HETATM   18  C   UNK N   1      28.307  10.912   3.957  0.00  0.00     0.103 C 
HETATM   19  C   UNK N   1      29.399  11.738   3.356  0.00  0.00     0.218 C 
HETATM   20  O   UNK N   1      29.271  12.200   2.232  0.00  0.00    -0.274 OA
HETATM   21  N   UNK N   1      30.520  11.991   4.068  0.00  0.00    -0.347 N 
HETATM   22  C   UNK N   1      31.572  12.855   3.567  0.00  0.00     0.180 C 
HETATM   23  C   UNK N   1      32.348  13.358   4.744  0.00  0.00     0.241 C 
HETATM   24  O   UNK N   1      32.916  12.560   5.480  0.00  0.00    -0.271 OA
HETATM   25  N   UNK N   1      32.402  14.693   4.991  0.00  0.00    -0.346 N 
HETATM   26  H   UNK N   1      32.006  18.512   5.640  0.00  0.00     0.163 HD
HETATM   27  H   UNK N   1      28.900  15.231   6.391  0.00  0.00     0.163 HD
HETATM   28  H   UNK N   1      27.616  14.182   1.320  0.00  0.00     0.163 HD
HETATM   29  H   UNK N   1      30.626  11.575   4.955  0.00  0.00     0.163 HD
HETATM   30  H   UNK N   1      32.024  15.297   4.311  0.00  0.00     0.163 HD
ENDROOT
BRANCH  13  31
HETATM   31  C   UNK N   1      25.174  13.742   2.894  0.00  0.00     0.244 C 
HETATM   32  O   UNK N   1      24.909  14.727   2.241  0.00  0.00    -0.271 OA
HETATM   33  N   UNK N   1      24.210  13.108   3.636  0.00  0.00    -0.337 N 
BRANCH  33  34
HETATM   34  C   UNK N   1      24.560  12.223   4.720  0.00  0.00     0.165 C 
BRANCH  34  35
HETATM   35  C   UNK N   1      23.580  12.427   5.860  0.00  0.00    -0.040 A 
HETATM   36  C   UNK N   1      23.819  13.407   6.844  0.00  0.00     0.012 A 
HETATM   37  C   UNK N   1      22.944  13.580   7.912  0.00  0.00     0.043 A 
HETATM   38  C   UNK N   1      21.812  12.777   8.014  0.00  0.00     0.116 A 
HETATM   39  C   UNK N   1      21.558  11.800   7.044  0.00  0.00     0.043 A 
HETATM   40  F   UNK N   1      20.961  12.948   9.054  0.00  0.00    -0.206 F 
HETATM   41  C   UNK N   1      22.442  11.622   5.969  0.00  0.00     0.012 A 
ENDBRANCH  34  35
ENDBRANCH  33  34
BRANCH  33  42
HETATM   42  C   UNK N   1      22.859  13.067   3.117  0.00  0.00     0.228 C 
BRANCH  42  43
HETATM   43  C   UNK N   1      22.178  14.350   3.238  0.00  0.00     0.236 C 
HETATM   44  O   UNK N   1      21.842  14.950   2.228  0.00  0.00    -0.272 OA
HETATM   45  N   UNK N   1      21.933  14.857   4.473  0.00  0.00    -0.346 N 
HETATM   46  H   UNK N   1      22.108  14.293   5.261  0.00  0.00     0.163 HD
BRANCH  45  47
HETATM   47  C   UNK N   1      21.423  16.198   4.674  0.00  0.00     0.177 C 
BRANCH  47  48
HETATM   48  C   UNK N   1      20.533  16.172   5.927  0.00  0.00     0.038 C 
BRANCH  48  49
HETATM   49  C   UNK N   1      21.049  16.842   7.185  0.00  0.00    -0.020 C 
HETATM   50  C   UNK N   1      20.425  16.160   8.383  0.00  0.00     0.009 C 
HETATM   51  C   UNK N   1      20.688  18.312   7.188  0.00  0.00     0.009 C 
ENDBRANCH  48  49
ENDBRANCH  47  48
BRANCH  47  52
HETATM   52  C   UNK N   1      22.519  17.260   4.489  0.00  0.00     0.240 C 
HETATM   53  O   UNK N   1      23.667  16.944   4.768  0.00  0.00    -0.271 OA
HETATM   54  N   UNK N   1      22.337  18.510   3.972  0.00  0.00    -0.351 N 
HETATM   55  H   UNK N   1      23.182  19.009   3.894  0.00  0.00     0.163 HD
BRANCH  54  56
HETATM   56  C   UNK N   1      21.194  19.283   3.509  0.00  0.00     0.225 C 
BRANCH  56  57
HETATM   57  C   UNK N   1      21.415  20.330   2.479  0.00  0.00     0.233 C 
HETATM   58  O   UNK N   1      22.187  21.250   2.687  0.00  0.00    -0.272 OA
HETATM   59  N   UNK N   1      20.711  20.286   1.330  0.00  0.00    -0.369 N 
HETATM   60  H   UNK N   1      20.939  19.659   0.605  0.00  0.00     0.159 HD
HETATM   61  H   UNK N   1      19.948  20.898   1.212  0.00  0.00     0.159 HD
ENDBRANCH  56  57
ENDBRANCH  54  56
ENDBRANCH  47  52
ENDBRANCH  45  47
ENDBRANCH  42  43
ENDBRANCH  33  42
ENDBRANCH  13  31
BRANCH   9  62
HETATM   62  C   UNK N   1      26.689  14.671   5.449  0.00  0.00     0.137 C 
BRANCH  62  63
HETATM   63  C   UNK N   1      26.576  15.841   6.402  0.00  0.00     0.217 C 
HETATM   64  O   UNK N   1      26.687  15.688   7.607  0.00  0.00    -0.274 OA
HETATM   65  N   UNK N   1      26.337  17.072   5.911  0.00  0.00    -0.370 N 
HETATM   66  H   UNK N   1      26.660  17.409   5.044  0.00  0.00     0.159 HD
HETATM   67  H   UNK N   1      25.798  17.684   6.462  0.00  0.00     0.159 HD
ENDBRANCH  62  63
ENDBRANCH   9  62
BRANCH   5  68
HETATM   68  C   UNK N   1      29.966  17.031   7.379  0.00  0.00     0.044 C 
BRANCH  68  69
HETATM   69  C   UNK N   1      29.250  18.311   7.793  0.00  0.00     0.105 C 
BRANCH  69  70
HETATM   70  C   UNK N   1      28.828  18.285   9.232  0.00  0.00     0.215 C 
HETATM   71  O   UNK N   1      27.700  17.934   9.541  0.00  0.00    -0.274 OA
HETATM   72  N   UNK N   1      29.688  18.687  10.187  0.00  0.00    -0.370 N 
HETATM   73  H   UNK N   1      30.125  18.119  10.862  0.00  0.00     0.159 HD
HETATM   74  H   UNK N   1      29.900  19.648  10.215  0.00  0.00     0.159 HD
ENDBRANCH  69  70
ENDBRANCH  68  69
ENDBRANCH   5  68
BRANCH  22  75
HETATM   75  C   UNK N   1      32.566  12.169   2.605  0.00  0.00     0.073 C 
BRANCH  75  76
HETATM   76  C   UNK N   1      32.585  10.674   2.441  0.00  0.00    -0.056 A 
HETATM   77  C   UNK N   1      33.358   9.870   3.289  0.00  0.00     0.010 A 
HETATM   78  C   UNK N   1      33.486   8.503   3.055  0.00  0.00     0.037 A 
HETATM   79  C   UNK N   1      32.887   7.931   1.934  0.00  0.00     0.065 A 
HETATM   80  C   UNK N   1      32.141   8.728   1.058  0.00  0.00     0.037 A 
HETATM   81  C   UNK N   1      31.991  10.098   1.310  0.00  0.00     0.010 A 
BRANCH  79  82
HETATM   82  O   UNK N   1      33.038   6.620   1.693  0.00  0.00    -0.361 OA
HETATM   83  H   UNK N   1      33.770   6.144   2.035  0.00  0.00     0.217 HD
ENDBRANCH  79  82
ENDBRANCH  75  76
ENDBRANCH  22  75
BRANCH   1  84
HETATM   84  C   UNK N   1      34.375  14.703   6.486  0.00  0.00     0.013 C 
HETATM   85  C   UNK N   1      34.846  15.074   7.878  0.00  0.00     0.012 C 
BRANCH  84  86
HETATM   86  C   UNK N   1      35.444  15.053   5.452  0.00  0.00     0.002 C 
HETATM   87  C   UNK N   1      36.160  13.813   4.968  0.00  0.00     0.005 C 
ENDBRANCH  84  86
ENDBRANCH   1  84
TORSDOF 21
ENDMDL
MODEL 9
REMARK VINA RESULT:      -6.9      3.275     10.616
REMARK  21 active torsions:
REMARK  status: ('A' for Active; 'I' for Inactive)
REMARK    1  A    between atoms: C_2  and  C_3 
REMARK    2  A    between atoms: C_5  and  C_3 
REMARK    3  A    between atoms: C_9  and  C_69 
REMARK    4  A    between atoms: C_13  and  C_65 
REMARK    5  A    between atoms: C_17  and  C_38 
REMARK    6  A    between atoms: C_26  and  C_30 
REMARK    7  A    between atoms: C_30  and  C_31 
REMARK    8  A    between atoms: C_34  and  O_37 
REMARK       I    between atoms: C_38  and  N_40 
REMARK    9  A    between atoms: N_40  and  C_41 
REMARK   10  A    between atoms: N_40  and  C_49 
REMARK   11  A    between atoms: C_41  and  C_42 
REMARK   12  A    between atoms: C_49  and  C_50 
REMARK       I    between atoms: C_50  and  N_52 
REMARK   13  A    between atoms: C_53  and  N_52 
REMARK   14  A    between atoms: C_53  and  C_54 
REMARK   15  A    between atoms: C_53  and  C_58 
REMARK   16  A    between atoms: C_54  and  C_55 
REMARK       I    between atoms: C_58  and  N_60 
REMARK   17  A    between atoms: N_60  and  C_61 
REMARK   18  A    between atoms: C_61  and  C_62 
REMARK       I    between atoms: C_62  and  N_64 
REMARK   19  A    between atoms: C_65  and  C_66 
REMARK       I    between atoms: C_66  and  N_68 
REMARK   20  A    between atoms: C_69  and  C_70 
REMARK   21  A    between atoms: C_70  and  C_71 
REMARK       I    between atoms: C_71  and  N_73 
ROOT
HETATM    1  C   UNK N   1      21.754  16.725   4.982  0.00  0.00     0.180 C 
HETATM    2  C   UNK N   1      22.330  17.923   5.743  0.00  0.00     0.241 C 
HETATM    3  O   UNK N   1      21.585  18.610   6.422  0.00  0.00    -0.271 OA
HETATM    4  N   UNK N   1      23.643  18.269   5.717  0.00  0.00    -0.346 N 
HETATM    5  C   UNK N   1      24.702  17.739   4.893  0.00  0.00     0.177 C 
HETATM    6  C   UNK N   1      25.071  16.301   5.032  0.00  0.00     0.241 C 
HETATM    7  O   UNK N   1      25.077  15.774   6.133  0.00  0.00    -0.271 OA
HETATM    8  N   UNK N   1      25.551  15.673   3.931  0.00  0.00    -0.346 N 
HETATM    9  C   UNK N   1      26.364  14.480   3.814  0.00  0.00     0.185 C 
HETATM   10  C   UNK N   1      27.053  14.003   5.099  0.00  0.00     0.241 C 
HETATM   11  O   UNK N   1      27.315  14.800   5.983  0.00  0.00    -0.271 OA
HETATM   12  N   UNK N   1      27.449  12.712   5.271  0.00  0.00    -0.345 N 
HETATM   13  C   UNK N   1      27.786  11.821   4.185  0.00  0.00     0.186 C 
HETATM   14  C   UNK N   1      27.841  10.386   4.702  0.00  0.00     0.108 C 
HETATM   15  S   UNK N   1      28.141   9.130   3.407  0.00  0.00    -0.167 SA
HETATM   16  C   UNK N   1      26.684   9.468   2.350  0.00  0.00     0.074 C 
HETATM   17  C   UNK N   1      25.394   9.652   3.131  0.00  0.00     0.019 C 
HETATM   18  C   UNK N   1      24.994  11.113   2.993  0.00  0.00     0.103 C 
HETATM   19  C   UNK N   1      24.481  11.675   4.280  0.00  0.00     0.218 C 
HETATM   20  O   UNK N   1      25.075  11.457   5.324  0.00  0.00    -0.274 OA
HETATM   21  N   UNK N   1      23.370  12.446   4.280  0.00  0.00    -0.347 N 
HETATM   22  C   UNK N   1      22.879  13.086   5.486  0.00  0.00     0.180 C 
HETATM   23  C   UNK N   1      22.033  14.251   5.071  0.00  0.00     0.241 C 
HETATM   24  O   UNK N   1      21.037  14.060   4.384  0.00  0.00    -0.271 OA
HETATM   25  N   UNK N   1      22.388  15.505   5.449  0.00  0.00    -0.346 N 
HETATM   26  H   UNK N   1      23.908  18.976   6.349  0.00  0.00     0.163 HD
HETATM   27  H   UNK N   1      25.308  16.094   3.075  0.00  0.00     0.163 HD
HETATM   28  H   UNK N   1      27.509  12.365   6.191  0.00  0.00     0.163 HD
HETATM   29  H   UNK N   1      22.879  12.576   3.437  0.00  0.00     0.163 HD
HETATM   30  H   UNK N   1      23.129  15.595   6.090  0.00  0.00     0.163 HD
ENDROOT
BRANCH  13  31
HETATM   31  C   UNK N   1      29.089  12.403   3.714  0.00  0.00     0.244 C 
HETATM   32  O   UNK N   1      29.846  12.867   4.536  0.00  0.00    -0.271 OA
HETATM   33  N   UNK N   1      29.529  12.075   2.456  0.00  0.00    -0.337 N 
BRANCH  33  34
HETATM   34  C   UNK N   1      28.609  11.926   1.355  0.00  0.00     0.165 C 
BRANCH  34  35
HETATM   35  C   UNK N   1      29.325  11.248   0.202  0.00  0.00    -0.040 A 
HETATM   36  C   UNK N   1      29.445   9.844   0.159  0.00  0.00     0.012 A 
HETATM   37  C   UNK N   1      30.129   9.214  -0.877  0.00  0.00     0.043 A 
HETATM   38  C   UNK N   1      30.703   9.977  -1.889  0.00  0.00     0.116 A 
HETATM   39  C   UNK N   1      30.591  11.373  -1.863  0.00  0.00     0.043 A 
HETATM   40  F   UNK N   1      31.366   9.362  -2.897  0.00  0.00    -0.206 F 
HETATM   41  C   UNK N   1      29.905  12.009  -0.818  0.00  0.00     0.012 A 
ENDBRANCH  34  35
ENDBRANCH  33  34
BRANCH  33  42
HETATM   42  C   UNK N   1      30.870  11.549   2.313  0.00  0.00     0.228 C 
BRANCH  42  43
HETATM   43  C   UNK N   1      31.880  12.600   2.302  0.00  0.00     0.236 C 
HETATM   44  O   UNK N   1      32.154  13.161   1.251  0.00  0.00    -0.272 OA
HETATM   45  N   UNK N   1      32.503  12.933   3.461  0.00  0.00    -0.346 N 
HETATM   46  H   UNK N   1      32.174  12.547   4.305  0.00  0.00     0.163 HD
BRANCH  45  47
HETATM   47  C   UNK N   1      33.634  13.837   3.502  0.00  0.00     0.177 C 
BRANCH  47  48
HETATM   48  C   UNK N   1      33.435  14.774   4.704  0.00  0.00     0.038 C 
BRANCH  48  49
HETATM   49  C   UNK N   1      33.375  16.267   4.446  0.00  0.00    -0.020 C 
HETATM   50  C   UNK N   1      32.281  16.858   5.308  0.00  0.00     0.009 C 
HETATM   51  C   UNK N   1      33.081  16.540   2.987  0.00  0.00     0.009 C 
ENDBRANCH  48  49
ENDBRANCH  47  48
BRANCH  47  52
HETATM   52  C   UNK N   1      34.963  13.101   3.269  0.00  0.00     0.240 C 
HETATM   53  O   UNK N   1      35.330  12.310   4.127  0.00  0.00    -0.271 OA
HETATM   54  N   UNK N   1      35.741  13.195   2.152  0.00  0.00    -0.351 N 
HETATM   55  H   UNK N   1      36.524  12.599   2.189  0.00  0.00     0.163 HD
BRANCH  54  56
HETATM   56  C   UNK N   1      35.695  13.968   0.920  0.00  0.00     0.225 C 
BRANCH  56  57
HETATM   57  C   UNK N   1      35.252  13.293  -0.326  0.00  0.00     0.233 C 
HETATM   58  O   UNK N   1      34.984  12.104  -0.324  0.00  0.00    -0.272 OA
HETATM   59  N   UNK N   1      35.201  13.995  -1.477  0.00  0.00    -0.369 N 
HETATM   60  H   UNK N   1      34.468  14.623  -1.669  0.00  0.00     0.159 HD
HETATM   61  H   UNK N   1      35.916  13.875  -2.142  0.00  0.00     0.159 HD
ENDBRANCH  56  57
ENDBRANCH  54  56
ENDBRANCH  47  52
ENDBRANCH  45  47
ENDBRANCH  42  43
ENDBRANCH  33  42
ENDBRANCH  13  31
BRANCH   9  62
HETATM   62  C   UNK N   1      27.347  14.764   2.674  0.00  0.00     0.137 C 
BRANCH  62  63
HETATM   63  C   UNK N   1      28.366  15.855   2.921  0.00  0.00     0.217 C 
HETATM   64  O   UNK N   1      28.027  16.965   3.298  0.00  0.00    -0.274 OA
HETATM   65  N   UNK N   1      29.672  15.599   2.710  0.00  0.00    -0.370 N 
HETATM   66  H   UNK N   1      30.108  14.728   2.853  0.00  0.00     0.159 HD
HETATM   67  H   UNK N   1      30.234  16.340   2.388  0.00  0.00     0.159 HD
ENDBRANCH  62  63
ENDBRANCH   9  62
BRANCH   5  68
HETATM   68  C   UNK N   1      24.716  18.295   3.474  0.00  0.00     0.044 C 
BRANCH  68  69
HETATM   69  C   UNK N   1      24.720  19.818   3.503  0.00  0.00     0.105 C 
BRANCH  69  70
HETATM   70  C   UNK N   1      26.018  20.391   3.016  0.00  0.00     0.215 C 
HETATM   71  O   UNK N   1      26.028  21.260   2.157  0.00  0.00    -0.274 OA
HETATM   72  N   UNK N   1      27.181  19.919   3.501  0.00  0.00    -0.370 N 
HETATM   73  H   UNK N   1      27.809  20.395   4.091  0.00  0.00     0.159 HD
HETATM   74  H   UNK N   1      27.430  19.002   3.240  0.00  0.00     0.159 HD
ENDBRANCH  69  70
ENDBRANCH  68  69
ENDBRANCH   5  68
BRANCH  22  75
HETATM   75  C   UNK N   1      22.020  12.179   6.394  0.00  0.00     0.073 C 
BRANCH  75  76
HETATM   76  C   UNK N   1      22.174  12.207   7.890  0.00  0.00    -0.056 A 
HETATM   77  C   UNK N   1      23.115  11.389   8.528  0.00  0.00     0.010 A 
HETATM   78  C   UNK N   1      23.165  11.309   9.918  0.00  0.00     0.037 A 
HETATM   79  C   UNK N   1      22.235  12.006  10.687  0.00  0.00     0.065 A 
HETATM   80  C   UNK N   1      21.267  12.800  10.063  0.00  0.00     0.037 A 
HETATM   81  C   UNK N   1      21.234  12.899   8.665  0.00  0.00     0.010 A 
BRANCH  79  82
HETATM   82  O   UNK N   1      22.266  11.903  12.025  0.00  0.00    -0.361 OA
HETATM   83  H   UNK N   1      21.924  12.582  12.572  0.00  0.00     0.217 HD
ENDBRANCH  79  82
ENDBRANCH  75  76
ENDBRANCH  22  75
BRANCH   1  84
HETATM   84  C   UNK N   1      20.210  16.623   5.076  0.00  0.00     0.013 C 
HETATM   85  C   UNK N   1      19.780  15.696   6.195  0.00  0.00     0.012 C 
BRANCH  84  86
HETATM   86  C   UNK N   1      19.526  16.231   3.768  0.00  0.00     0.002 C 
HETATM   87  C   UNK N   1      20.172  16.923   2.589  0.00  0.00     0.005 C 
ENDBRANCH  84  86
ENDBRANCH   1  84
TORSDOF 21
ENDMDL
