MODEL 1
REMARK VINA RESULT:      -6.3      0.000      0.000
REMARK  7 active torsions:
REMARK  status: ('A' for Active; 'I' for Inactive)
REMARK    1  A    between atoms: O_2  and  C_3 
REMARK    2  A    between atoms: C_3  and  C_4 
REMARK    3  A    between atoms: C_4  and  C_5 
REMARK    4  A    between atoms: C_5  and  C_6 
REMARK       I    between atoms: C_6  and  N_8 
REMARK    5  A    between atoms: N_8  and  C_9 
REMARK    6  A    between atoms: C_9  and  C_10 
REMARK    7  A    between atoms: C_13  and  C_16 
ROOT
HETATM    1  C   UNK N   1      29.623  17.559   6.500  0.00  0.00    -0.041 A 
HETATM    2  C   UNK N   1      29.145  18.106   7.696  0.00  0.00     0.009 A 
HETATM    3  C   UNK N   1      28.195  19.136   7.661  0.00  0.00     0.017 A 
HETATM    4  C   UNK N   1      27.722  19.621   6.431  0.00  0.00     0.047 A 
HETATM    5  C   UNK N   1      28.194  19.053   5.240  0.00  0.00     0.017 A 
HETATM    6  C   UNK N   1      29.147  18.034   5.275  0.00  0.00     0.009 A 
ENDROOT
BRANCH   1   7
HETATM    7  C   UNK N   1      30.727  16.558   6.506  0.00  0.00     0.161 C 
BRANCH   7   8
HETATM    8  N   UNK N   1      31.873  17.003   5.753  0.00  0.00    -0.357 N 
HETATM    9  C   UNK N   1      32.958  17.537   6.369  0.00  0.00     0.217 C 
HETATM   10  O   UNK N   1      33.951  17.807   5.718  0.00  0.00    -0.274 OA
HETATM   11  H   UNK N   1      31.870  16.916   4.772  0.00  0.00     0.162 HD
BRANCH   9  12
HETATM   12  C   UNK N   1      32.936  17.828   7.845  0.00  0.00     0.105 C 
BRANCH  12  13
HETATM   13  C   UNK N   1      34.337  18.012   8.399  0.00  0.00     0.035 C 
BRANCH  13  14
HETATM   14  C   UNK N   1      34.715  16.864   9.316  0.00  0.00     0.167 C 
BRANCH  14  15
HETATM   15  O   UNK N   1      35.538  17.326  10.342  0.00  0.00    -0.396 OA
HETATM   16  C   UNK N   1      35.952  16.174  11.009  0.00  0.00     0.201 C 
ENDBRANCH  14  15
ENDBRANCH  13  14
ENDBRANCH  12  13
ENDBRANCH   9  12
ENDBRANCH   7   8
ENDBRANCH   1   7
BRANCH   4  17
HETATM   17  C   UNK N   1      26.751  20.767   6.399  0.00  0.00     0.417 C 
HETATM   18  F   UNK N   1      27.391  21.916   5.973  0.00  0.00    -0.166 F 
HETATM   19  F   UNK N   1      26.209  20.997   7.653  0.00  0.00    -0.166 F 
HETATM   20  F   UNK N   1      25.724  20.468   5.522  0.00  0.00    -0.166 F 
ENDBRANCH   4  17
TORSDOF 7
ENDMDL
MODEL 2
REMARK VINA RESULT:      -5.9     10.251     11.816
REMARK  7 active torsions:
REMARK  status: ('A' for Active; 'I' for Inactive)
REMARK    1  A    between atoms: O_2  and  C_3 
REMARK    2  A    between atoms: C_3  and  C_4 
REMARK    3  A    between atoms: C_4  and  C_5 
REMARK    4  A    between atoms: C_5  and  C_6 
REMARK       I    between atoms: C_6  and  N_8 
REMARK    5  A    between atoms: N_8  and  C_9 
REMARK    6  A    between atoms: C_9  and  C_10 
REMARK    7  A    between atoms: C_13  and  C_16 
ROOT
HETATM    1  C   UNK N   1      21.028  14.628   8.347  0.00  0.00    -0.041 A 
HETATM    2  C   UNK N   1      20.388  14.168   9.504  0.00  0.00     0.009 A 
HETATM    3  C   UNK N   1      21.056  13.292  10.370  0.00  0.00     0.017 A 
HETATM    4  C   UNK N   1      22.365  12.874  10.081  0.00  0.00     0.047 A 
HETATM    5  C   UNK N   1      23.003  13.355   8.930  0.00  0.00     0.017 A 
HETATM    6  C   UNK N   1      22.333  14.219   8.063  0.00  0.00     0.009 A 
ENDROOT
BRANCH   1   7
HETATM    7  C   UNK N   1      20.294  15.451   7.345  0.00  0.00     0.161 C 
BRANCH   7   8
HETATM    8  N   UNK N   1      20.271  16.849   7.696  0.00  0.00    -0.357 N 
HETATM    9  C   UNK N   1      20.946  17.771   6.962  0.00  0.00     0.217 C 
HETATM   10  O   UNK N   1      20.824  18.955   7.221  0.00  0.00    -0.274 OA
HETATM   11  H   UNK N   1      19.756  17.142   8.482  0.00  0.00     0.162 HD
BRANCH   9  12
HETATM   12  C   UNK N   1      21.867  17.344   5.852  0.00  0.00     0.105 C 
BRANCH  12  13
HETATM   13  C   UNK N   1      21.305  17.706   4.490  0.00  0.00     0.035 C 
BRANCH  13  14
HETATM   14  C   UNK N   1      21.932  18.983   3.964  0.00  0.00     0.167 C 
BRANCH  14  15
HETATM   15  O   UNK N   1      20.998  20.018   3.991  0.00  0.00    -0.396 OA
HETATM   16  C   UNK N   1      20.933  20.470   2.674  0.00  0.00     0.201 C 
ENDBRANCH  14  15
ENDBRANCH  13  14
ENDBRANCH  12  13
ENDBRANCH   9  12
ENDBRANCH   7   8
ENDBRANCH   1   7
BRANCH   4  17
HETATM   17  C   UNK N   1      23.054  11.887  10.979  0.00  0.00     0.417 C 
HETATM   18  F   UNK N   1      22.390  11.807  12.190  0.00  0.00    -0.166 F 
HETATM   19  F   UNK N   1      24.368  12.260  11.215  0.00  0.00    -0.166 F 
HETATM   20  F   UNK N   1      23.050  10.642  10.377  0.00  0.00    -0.166 F 
ENDBRANCH   4  17
TORSDOF 7
ENDMDL
MODEL 3
REMARK VINA RESULT:      -5.8      4.762      7.690
REMARK  7 active torsions:
REMARK  status: ('A' for Active; 'I' for Inactive)
REMARK    1  A    between atoms: O_2  and  C_3 
REMARK    2  A    between atoms: C_3  and  C_4 
REMARK    3  A    between atoms: C_4  and  C_5 
REMARK    4  A    between atoms: C_5  and  C_6 
REMARK       I    between atoms: C_6  and  N_8 
REMARK    5  A    between atoms: N_8  and  C_9 
REMARK    6  A    between atoms: C_9  and  C_10 
REMARK    7  A    between atoms: C_13  and  C_16 
ROOT
HETATM    1  C   UNK N   1      29.534  17.600   7.107  0.00  0.00    -0.041 A 
HETATM    2  C   UNK N   1      30.484  17.134   6.192  0.00  0.00     0.009 A 
HETATM    3  C   UNK N   1      31.845  17.156   6.526  0.00  0.00     0.017 A 
HETATM    4  C   UNK N   1      32.258  17.645   7.776  0.00  0.00     0.047 A 
HETATM    5  C   UNK N   1      31.297  18.092   8.692  0.00  0.00     0.017 A 
HETATM    6  C   UNK N   1      29.943  18.078   8.355  0.00  0.00     0.009 A 
ENDROOT
BRANCH   1   7
HETATM    7  C   UNK N   1      28.098  17.710   6.727  0.00  0.00     0.161 C 
BRANCH   7   8
HETATM    8  N   UNK N   1      27.534  18.989   7.080  0.00  0.00    -0.357 N 
HETATM    9  C   UNK N   1      27.386  19.974   6.158  0.00  0.00     0.217 C 
HETATM   10  O   UNK N   1      26.812  21.004   6.462  0.00  0.00    -0.274 OA
HETATM   11  H   UNK N   1      27.249  19.152   8.009  0.00  0.00     0.162 HD
BRANCH   9  12
HETATM   12  C   UNK N   1      27.949  19.818   4.772  0.00  0.00     0.105 C 
BRANCH  12  13
HETATM   13  C   UNK N   1      26.899  20.082   3.709  0.00  0.00     0.035 C 
BRANCH  13  14
HETATM   14  C   UNK N   1      25.876  18.963   3.665  0.00  0.00     0.167 C 
BRANCH  14  15
HETATM   15  O   UNK N   1      24.613  19.461   3.985  0.00  0.00    -0.396 OA
HETATM   16  C   UNK N   1      24.390  20.480   3.059  0.00  0.00     0.201 C 
ENDBRANCH  14  15
ENDBRANCH  13  14
ENDBRANCH  12  13
ENDBRANCH   9  12
ENDBRANCH   7   8
ENDBRANCH   1   7
BRANCH   4  17
HETATM   17  C   UNK N   1      33.721  17.725   8.105  0.00  0.00     0.417 C 
HETATM   18  F   UNK N   1      33.983  17.022   9.266  0.00  0.00    -0.166 F 
HETATM   19  F   UNK N   1      34.122  19.040   8.280  0.00  0.00    -0.166 F 
HETATM   20  F   UNK N   1      34.453  17.176   7.068  0.00  0.00    -0.166 F 
ENDBRANCH   4  17
TORSDOF 7
ENDMDL
MODEL 4
REMARK VINA RESULT:      -5.8     12.253     15.644
REMARK  7 active torsions:
REMARK  status: ('A' for Active; 'I' for Inactive)
REMARK    1  A    between atoms: O_2  and  C_3 
REMARK    2  A    between atoms: C_3  and  C_4 
REMARK    3  A    between atoms: C_4  and  C_5 
REMARK    4  A    between atoms: C_5  and  C_6 
REMARK       I    between atoms: C_6  and  N_8 
REMARK    5  A    between atoms: N_8  and  C_9 
REMARK    6  A    between atoms: C_9  and  C_10 
REMARK    7  A    between atoms: C_13  and  C_16 
ROOT
HETATM    1  C   UNK N   1      34.571  10.319  20.178  0.00  0.00    -0.041 A 
HETATM    2  C   UNK N   1      34.258   9.424  19.149  0.00  0.00     0.009 A 
HETATM    3  C   UNK N   1      33.170   8.552  19.289  0.00  0.00     0.017 A 
HETATM    4  C   UNK N   1      32.393   8.573  20.458  0.00  0.00     0.047 A 
HETATM    5  C   UNK N   1      32.703   9.486  21.474  0.00  0.00     0.017 A 
HETATM    6  C   UNK N   1      33.793  10.348  21.338  0.00  0.00     0.009 A 
ENDROOT
BRANCH   1   7
HETATM    7  C   UNK N   1      35.798  11.161  20.110  0.00  0.00     0.161 C 
BRANCH   7   8
HETATM    8  N   UNK N   1      35.495  12.571  20.085  0.00  0.00    -0.357 N 
HETATM    9  C   UNK N   1      35.252  13.218  18.917  0.00  0.00     0.217 C 
HETATM   10  O   UNK N   1      34.898  14.384  18.935  0.00  0.00    -0.274 OA
HETATM   11  H   UNK N   1      35.463  13.073  20.931  0.00  0.00     0.162 HD
BRANCH   9  12
HETATM   12  C   UNK N   1      35.445  12.521  17.598  0.00  0.00     0.105 C 
BRANCH  12  13
HETATM   13  C   UNK N   1      34.625  13.170  16.498  0.00  0.00     0.035 C 
BRANCH  13  14
HETATM   14  C   UNK N   1      34.687  12.355  15.220  0.00  0.00     0.167 C 
BRANCH  14  15
HETATM   15  O   UNK N   1      34.625  13.202  14.114  0.00  0.00    -0.396 OA
HETATM   16  C   UNK N   1      35.909  13.737  14.007  0.00  0.00     0.201 C 
ENDBRANCH  14  15
ENDBRANCH  13  14
ENDBRANCH  12  13
ENDBRANCH   9  12
ENDBRANCH   7   8
ENDBRANCH   1   7
BRANCH   4  17
HETATM   17  C   UNK N   1      31.266   7.595  20.629  0.00  0.00     0.417 C 
HETATM   18  F   UNK N   1      31.565   6.412  19.978  0.00  0.00    -0.166 F 
HETATM   19  F   UNK N   1      30.083   8.101  20.115  0.00  0.00    -0.166 F 
HETATM   20  F   UNK N   1      31.087   7.338  21.976  0.00  0.00    -0.166 F 
ENDBRANCH   4  17
TORSDOF 7
ENDMDL
MODEL 5
REMARK VINA RESULT:      -5.7      9.143     12.717
REMARK  7 active torsions:
REMARK  status: ('A' for Active; 'I' for Inactive)
REMARK    1  A    between atoms: O_2  and  C_3 
REMARK    2  A    between atoms: C_3  and  C_4 
REMARK    3  A    between atoms: C_4  and  C_5 
REMARK    4  A    between atoms: C_5  and  C_6 
REMARK       I    between atoms: C_6  and  N_8 
REMARK    5  A    between atoms: N_8  and  C_9 
REMARK    6  A    between atoms: C_9  and  C_10 
REMARK    7  A    between atoms: C_13  and  C_16 
ROOT
HETATM    1  C   UNK N   1      36.001  13.088  15.926  0.00  0.00    -0.041 A 
HETATM    2  C   UNK N   1      35.426  13.572  17.106  0.00  0.00     0.009 A 
HETATM    3  C   UNK N   1      35.130  12.688  18.152  0.00  0.00     0.017 A 
HETATM    4  C   UNK N   1      35.408  11.318  18.020  0.00  0.00     0.047 A 
HETATM    5  C   UNK N   1      36.001  10.847  16.842  0.00  0.00     0.017 A 
HETATM    6  C   UNK N   1      36.287  11.726  15.797  0.00  0.00     0.009 A 
ENDROOT
BRANCH   1   7
HETATM    7  C   UNK N   1      36.202  13.983  14.752  0.00  0.00     0.161 C 
BRANCH   7   8
HETATM    8  N   UNK N   1      36.914  13.330  13.681  0.00  0.00    -0.357 N 
HETATM    9  C   UNK N   1      36.624  13.590  12.381  0.00  0.00     0.217 C 
HETATM   10  O   UNK N   1      37.311  13.103  11.500  0.00  0.00    -0.274 OA
HETATM   11  H   UNK N   1      37.625  12.685  13.897  0.00  0.00     0.162 HD
BRANCH   9  12
HETATM   12  C   UNK N   1      35.445  14.449  12.014  0.00  0.00     0.105 C 
BRANCH  12  13
HETATM   13  C   UNK N   1      35.882  15.804  11.491  0.00  0.00     0.035 C 
BRANCH  13  14
HETATM   14  C   UNK N   1      35.198  16.127  10.175  0.00  0.00     0.167 C 
BRANCH  14  15
HETATM   15  O   UNK N   1      35.322  17.487   9.897  0.00  0.00    -0.396 OA
HETATM   16  C   UNK N   1      34.572  17.680   8.737  0.00  0.00     0.201 C 
ENDBRANCH  14  15
ENDBRANCH  13  14
ENDBRANCH  12  13
ENDBRANCH   9  12
ENDBRANCH   7   8
ENDBRANCH   1   7
BRANCH   4  17
HETATM   17  C   UNK N   1      35.033  10.366  19.119  0.00  0.00     0.417 C 
HETATM   18  F   UNK N   1      36.119   9.579  19.454  0.00  0.00    -0.166 F 
HETATM   19  F   UNK N   1      33.988   9.543  18.730  0.00  0.00    -0.166 F 
HETATM   20  F   UNK N   1      34.635  11.087  20.231  0.00  0.00    -0.166 F 
ENDBRANCH   4  17
TORSDOF 7
ENDMDL
MODEL 6
REMARK VINA RESULT:      -5.7      2.442      3.887
REMARK  7 active torsions:
REMARK  status: ('A' for Active; 'I' for Inactive)
REMARK    1  A    between atoms: O_2  and  C_3 
REMARK    2  A    between atoms: C_3  and  C_4 
REMARK    3  A    between atoms: C_4  and  C_5 
REMARK    4  A    between atoms: C_5  and  C_6 
REMARK       I    between atoms: C_6  and  N_8 
REMARK    5  A    between atoms: N_8  and  C_9 
REMARK    6  A    between atoms: C_9  and  C_10 
REMARK    7  A    between atoms: C_13  and  C_16 
ROOT
HETATM    1  C   UNK N   1      32.306  17.357   7.554  0.00  0.00    -0.041 A 
HETATM    2  C   UNK N   1      31.411  16.775   6.650  0.00  0.00     0.009 A 
HETATM    3  C   UNK N   1      30.032  16.967   6.810  0.00  0.00     0.017 A 
HETATM    4  C   UNK N   1      29.545  17.742   7.875  0.00  0.00     0.047 A 
HETATM    5  C   UNK N   1      30.451  18.335   8.764  0.00  0.00     0.017 A 
HETATM    6  C   UNK N   1      31.823  18.135   8.610  0.00  0.00     0.009 A 
ENDROOT
BRANCH   1   7
HETATM    7  C   UNK N   1      33.764  17.059   7.485  0.00  0.00     0.161 C 
BRANCH   7   8
HETATM    8  N   UNK N   1      34.496  17.642   8.581  0.00  0.00    -0.357 N 
HETATM    9  C   UNK N   1      35.014  16.873   9.571  0.00  0.00     0.217 C 
HETATM   10  O   UNK N   1      35.715  17.382  10.428  0.00  0.00    -0.274 OA
HETATM   11  H   UNK N   1      34.623  18.618   8.612  0.00  0.00     0.162 HD
BRANCH   9  12
HETATM   12  C   UNK N   1      34.708  15.401   9.640  0.00  0.00     0.105 C 
BRANCH  12  13
HETATM   13  C   UNK N   1      34.177  15.004  11.005  0.00  0.00     0.035 C 
BRANCH  13  14
HETATM   14  C   UNK N   1      35.234  14.271  11.808  0.00  0.00     0.167 C 
BRANCH  14  15
HETATM   15  O   UNK N   1      34.649  13.659  12.916  0.00  0.00    -0.396 OA
HETATM   16  C   UNK N   1      35.725  13.199  13.675  0.00  0.00     0.201 C 
ENDBRANCH  14  15
ENDBRANCH  13  14
ENDBRANCH  12  13
ENDBRANCH   9  12
ENDBRANCH   7   8
ENDBRANCH   1   7
BRANCH   4  17
HETATM   17  C   UNK N   1      28.065  17.894   8.078  0.00  0.00     0.417 C 
HETATM   18  F   UNK N   1      27.392  16.875   7.430  0.00  0.00    -0.166 F 
HETATM   19  F   UNK N   1      27.616  19.109   7.585  0.00  0.00    -0.166 F 
HETATM   20  F   UNK N   1      27.782  17.836   9.431  0.00  0.00    -0.166 F 
ENDBRANCH   4  17
TORSDOF 7
ENDMDL
MODEL 7
REMARK VINA RESULT:      -5.7      8.212     10.856
REMARK  7 active torsions:
REMARK  status: ('A' for Active; 'I' for Inactive)
REMARK    1  A    between atoms: O_2  and  C_3 
REMARK    2  A    between atoms: C_3  and  C_4 
REMARK    3  A    between atoms: C_4  and  C_5 
REMARK    4  A    between atoms: C_5  and  C_6 
REMARK       I    between atoms: C_6  and  N_8 
REMARK    5  A    between atoms: N_8  and  C_9 
REMARK    6  A    between atoms: C_9  and  C_10 
REMARK    7  A    between atoms: C_13  and  C_16 
ROOT
HETATM    1  C   UNK N   1      21.864  19.202   3.286  0.00  0.00    -0.041 A 
HETATM    2  C   UNK N   1      22.696  18.407   4.082  0.00  0.00     0.009 A 
HETATM    3  C   UNK N   1      24.043  18.754   4.248  0.00  0.00     0.017 A 
HETATM    4  C   UNK N   1      24.562  19.896   3.618  0.00  0.00     0.047 A 
HETATM    5  C   UNK N   1      23.716  20.695   2.837  0.00  0.00     0.017 A 
HETATM    6  C   UNK N   1      22.377  20.344   2.665  0.00  0.00     0.009 A 
ENDROOT
BRANCH   1   7
HETATM    7  C   UNK N   1      20.466  18.783   2.986  0.00  0.00     0.161 C 
BRANCH   7   8
HETATM    8  N   UNK N   1      20.246  18.576   1.576  0.00  0.00    -0.357 N 
HETATM    9  C   UNK N   1      20.311  17.337   1.027  0.00  0.00     0.217 C 
HETATM   10  O   UNK N   1      20.019  17.180  -0.145  0.00  0.00    -0.274 OA
HETATM   11  H   UNK N   1      20.043  19.349   1.000  0.00  0.00     0.162 HD
BRANCH   9  12
HETATM   12  C   UNK N   1      20.770  16.159   1.843  0.00  0.00     0.105 C 
BRANCH  12  13
HETATM   13  C   UNK N   1      20.225  14.853   1.295  0.00  0.00     0.035 C 
BRANCH  13  14
HETATM   14  C   UNK N   1      21.350  13.942   0.841  0.00  0.00     0.167 C 
BRANCH  14  15
HETATM   15  O   UNK N   1      22.526  14.677   0.693  0.00  0.00    -0.396 OA
HETATM   16  C   UNK N   1      23.526  13.717   0.543  0.00  0.00     0.201 C 
ENDBRANCH  14  15
ENDBRANCH  13  14
ENDBRANCH  12  13
ENDBRANCH   9  12
ENDBRANCH   7   8
ENDBRANCH   1   7
BRANCH   4  17
HETATM   17  C   UNK N   1      26.021  20.229   3.748  0.00  0.00     0.417 C 
HETATM   18  F   UNK N   1      26.774  19.070   3.718  0.00  0.00    -0.166 F 
HETATM   19  F   UNK N   1      26.275  20.896   4.936  0.00  0.00    -0.166 F 
HETATM   20  F   UNK N   1      26.398  21.043   2.696  0.00  0.00    -0.166 F 
ENDBRANCH   4  17
TORSDOF 7
ENDMDL
MODEL 8
REMARK VINA RESULT:      -5.6      1.853      3.244
REMARK  7 active torsions:
REMARK  status: ('A' for Active; 'I' for Inactive)
REMARK    1  A    between atoms: O_2  and  C_3 
REMARK    2  A    between atoms: C_3  and  C_4 
REMARK    3  A    between atoms: C_4  and  C_5 
REMARK    4  A    between atoms: C_5  and  C_6 
REMARK       I    between atoms: C_6  and  N_8 
REMARK    5  A    between atoms: N_8  and  C_9 
REMARK    6  A    between atoms: C_9  and  C_10 
REMARK    7  A    between atoms: C_13  and  C_16 
ROOT
HETATM    1  C   UNK N   1      29.558  17.692   7.445  0.00  0.00    -0.041 A 
HETATM    2  C   UNK N   1      28.756  18.681   8.026  0.00  0.00     0.009 A 
HETATM    3  C   UNK N   1      27.938  19.481   7.218  0.00  0.00     0.017 A 
HETATM    4  C   UNK N   1      27.921  19.295   5.826  0.00  0.00     0.047 A 
HETATM    5  C   UNK N   1      28.714  18.291   5.256  0.00  0.00     0.017 A 
HETATM    6  C   UNK N   1      29.535  17.500   6.061  0.00  0.00     0.009 A 
ENDROOT
BRANCH   1   7
HETATM    7  C   UNK N   1      30.533  16.920   8.265  0.00  0.00     0.161 C 
BRANCH   7   8
HETATM    8  N   UNK N   1      31.620  17.739   8.740  0.00  0.00    -0.357 N 
HETATM    9  C   UNK N   1      32.887  17.563   8.285  0.00  0.00     0.217 C 
HETATM   10  O   UNK N   1      33.764  18.336   8.626  0.00  0.00    -0.274 OA
HETATM   11  H   UNK N   1      31.441  18.441   9.406  0.00  0.00     0.162 HD
BRANCH   9  12
HETATM   12  C   UNK N   1      33.225  16.403   7.388  0.00  0.00     0.105 C 
BRANCH  12  13
HETATM   13  C   UNK N   1      33.992  16.854   6.158  0.00  0.00     0.035 C 
BRANCH  13  14
HETATM   14  C   UNK N   1      33.062  17.472   5.132  0.00  0.00     0.167 C 
BRANCH  14  15
HETATM   15  O   UNK N   1      32.526  16.476   4.317  0.00  0.00    -0.396 OA
HETATM   16  C   UNK N   1      32.368  17.086   3.072  0.00  0.00     0.201 C 
ENDBRANCH  14  15
ENDBRANCH  13  14
ENDBRANCH  12  13
ENDBRANCH   9  12
ENDBRANCH   7   8
ENDBRANCH   1   7
BRANCH   4  17
HETATM   17  C   UNK N   1      27.090  20.196   4.958  0.00  0.00     0.417 C 
HETATM   18  F   UNK N   1      27.247  21.511   5.356  0.00  0.00    -0.166 F 
HETATM   19  F   UNK N   1      25.747  19.863   5.035  0.00  0.00    -0.166 F 
HETATM   20  F   UNK N   1      27.501  20.069   3.644  0.00  0.00    -0.166 F 
ENDBRANCH   4  17
TORSDOF 7
ENDMDL
MODEL 9
REMARK VINA RESULT:      -5.6     14.468     16.126
REMARK  7 active torsions:
REMARK  status: ('A' for Active; 'I' for Inactive)
REMARK    1  A    between atoms: O_2  and  C_3 
REMARK    2  A    between atoms: C_3  and  C_4 
REMARK    3  A    between atoms: C_4  and  C_5 
REMARK    4  A    between atoms: C_5  and  C_6 
REMARK       I    between atoms: C_6  and  N_8 
REMARK    5  A    between atoms: N_8  and  C_9 
REMARK    6  A    between atoms: C_9  and  C_10 
REMARK    7  A    between atoms: C_13  and  C_16 
ROOT
HETATM    1  C   UNK N   1      26.160  26.536  -7.160  0.00  0.00    -0.041 A 
HETATM    2  C   UNK N   1      25.324  26.721  -6.053  0.00  0.00     0.009 A 
HETATM    3  C   UNK N   1      25.599  27.740  -5.132  0.00  0.00     0.017 A 
HETATM    4  C   UNK N   1      26.712  28.576  -5.315  0.00  0.00     0.047 A 
HETATM    5  C   UNK N   1      27.533  28.395  -6.436  0.00  0.00     0.017 A 
HETATM    6  C   UNK N   1      27.263  27.373  -7.348  0.00  0.00     0.009 A 
ENDROOT
BRANCH   1   7
HETATM    7  C   UNK N   1      25.967  25.380  -8.079  0.00  0.00     0.161 C 
BRANCH   7   8
HETATM    8  N   UNK N   1      25.231  24.305  -7.460  0.00  0.00    -0.357 N 
HETATM    9  C   UNK N   1      25.845  23.154  -7.085  0.00  0.00     0.217 C 
HETATM   10  O   UNK N   1      25.219  22.308  -6.472  0.00  0.00    -0.274 OA
HETATM   11  H   UNK N   1      24.264  24.408  -7.305  0.00  0.00     0.162 HD
BRANCH   9  12
HETATM   12  C   UNK N   1      27.283  22.899  -7.445  0.00  0.00     0.105 C 
BRANCH  12  13
HETATM   13  C   UNK N   1      28.160  22.804  -6.210  0.00  0.00     0.035 C 
BRANCH  13  14
HETATM   14  C   UNK N   1      28.651  24.175  -5.784  0.00  0.00     0.167 C 
BRANCH  14  15
HETATM   15  O   UNK N   1      27.916  24.623  -4.688  0.00  0.00    -0.396 OA
HETATM   16  C   UNK N   1      28.672  25.670  -4.160  0.00  0.00     0.201 C 
ENDBRANCH  14  15
ENDBRANCH  13  14
ENDBRANCH  12  13
ENDBRANCH   9  12
ENDBRANCH   7   8
ENDBRANCH   1   7
BRANCH   4  17
HETATM   17  C   UNK N   1      27.038  29.627  -4.292  0.00  0.00     0.417 C 
HETATM   18  F   UNK N   1      28.160  29.255  -3.575  0.00  0.00    -0.166 F 
HETATM   19  F   UNK N   1      25.985  29.809  -3.411  0.00  0.00    -0.166 F 
HETATM   20  F   UNK N   1      27.287  30.826  -4.934  0.00  0.00    -0.166 F 
ENDBRANCH   4  17
TORSDOF 7
ENDMDL
