MODEL 1
REMARK VINA RESULT:      -8.7      0.000      0.000
REMARK  5 active torsions:
REMARK  status: ('A' for Active; 'I' for Inactive)
REMARK    1  A    between atoms: C_8  and  N_10 
REMARK    2  A    between atoms: N_10  and  C_11 
REMARK    3  A    between atoms: C_11  and  C_12 
REMARK    4  A    between atoms: C_15  and  C_19 
REMARK    5  A    between atoms: C_23  and  C_25 
ROOT
HETATM    1  C   UNK N   1      29.806  17.597   7.546  0.00  0.00     0.036 A 
HETATM    2  C   UNK N   1      29.853  17.268   6.178  0.00  0.00     0.128 A 
HETATM    3  C   UNK N   1      28.983  17.898   5.274  0.00  0.00     0.055 A 
HETATM    4  C   UNK N   1      28.086  18.869   5.743  0.00  0.00    -0.020 A 
HETATM    5  C   UNK N   1      28.085  19.202   7.103  0.00  0.00     0.055 A 
HETATM    6  C   UNK N   1      28.923  18.583   7.997  0.00  0.00     0.128 A 
HETATM    7  F   UNK N   1      28.850  18.930   9.307  0.00  0.00    -0.205 F 
HETATM    8  F   UNK N   1      30.703  16.308   5.734  0.00  0.00    -0.205 F 
ENDROOT
BRANCH   4   9
HETATM    9  C   UNK N   1      27.007  19.432   4.914  0.00  0.00    -0.025 A 
HETATM   10  C   UNK N   1      27.218  20.249   3.793  0.00  0.00     0.012 A 
HETATM   11  C   UNK N   1      26.127  20.581   2.967  0.00  0.00     0.002 A 
HETATM   12  C   UNK N   1      24.846  20.059   3.236  0.00  0.00     0.015 A 
HETATM   13  C   UNK N   1      24.653  19.247   4.363  0.00  0.00     0.010 A 
HETATM   14  C   UNK N   1      25.725  18.965   5.176  0.00  0.00     0.027 A 
BRANCH  13  15
HETATM   15  C   UNK N   1      23.394  18.568   4.684  0.00  0.00     0.131 A 
HETATM   16  N   UNK N   1      23.213  17.695   5.686  0.00  0.00    -0.336 N 
HETATM   17  C   UNK N   1      21.892  17.415   5.628  0.00  0.00     0.199 A 
ATOM     18  HN  UNK N   1      23.907  17.329   6.338  1.00  0.00     0.168 HD
HETATM   19  N   UNK N   1      21.305  18.099   4.625  0.00  0.00    -0.295 N 
HETATM   20  N   UNK N   1      22.238  18.820   4.040  0.00  0.00    -0.284 N 
HETATM   21  H   UNK N   1      20.353  18.064   4.375  0.00  0.00     0.187 HD
ATOM     22  HN  UNK N   1      22.110  19.452   3.249  1.00  0.00     0.188 HD
ENDBRANCH  13  15
ENDBRANCH   4   9
BRANCH   1  23
HETATM   23  C   UNK N   1      30.677  16.885   8.522  0.00  0.00     0.159 C 
BRANCH  23  24
HETATM   24  N   UNK N   1      31.903  17.636   8.772  0.00  0.00    -0.412 N 
HETATM   25  H   UNK N   1      31.999  18.344   9.501  0.00  0.00     0.153 HD
BRANCH  24  26
HETATM   26  C   UNK N   1      32.982  17.253   7.855  0.00  0.00     0.085 C 
HETATM   27  C   UNK N   1      34.275  17.814   8.475  0.00  0.00     0.064 C 
HETATM   28  C   UNK N   1      34.572  16.744   9.447  0.00  0.00    -0.050 A 
HETATM   29  C   UNK N   1      33.941  15.578   9.119  0.00  0.00    -0.050 A 
HETATM   30  C   UNK N   1      35.311  16.863  10.620  0.00  0.00     0.007 A 
HETATM   31  C   UNK N   1      34.006  14.457   9.940  0.00  0.00     0.007 A 
HETATM   32  C   UNK N   1      33.150  15.718   7.891  0.00  0.00     0.064 C 
HETATM   33  C   UNK N   1      34.749  14.545  11.125  0.00  0.00     0.001 A 
HETATM   34  C   UNK N   1      35.402  15.746  11.466  0.00  0.00     0.001 A 
ENDBRANCH  24  26
ENDBRANCH  23  24
ENDBRANCH   1  23
TORSDOF 5
ENDMDL
MODEL 2
REMARK VINA RESULT:      -8.6      4.840     11.456
REMARK  5 active torsions:
REMARK  status: ('A' for Active; 'I' for Inactive)
REMARK    1  A    between atoms: C_8  and  N_10 
REMARK    2  A    between atoms: N_10  and  C_11 
REMARK    3  A    between atoms: C_11  and  C_12 
REMARK    4  A    between atoms: C_15  and  C_19 
REMARK    5  A    between atoms: C_23  and  C_25 
ROOT
HETATM    1  C   UNK N   1      20.935  18.633   3.303  0.00  0.00     0.036 A 
HETATM    2  C   UNK N   1      21.610  17.875   4.277  0.00  0.00     0.128 A 
HETATM    3  C   UNK N   1      22.951  18.159   4.583  0.00  0.00     0.055 A 
HETATM    4  C   UNK N   1      23.599  19.214   3.926  0.00  0.00    -0.020 A 
HETATM    5  C   UNK N   1      22.893  19.974   2.986  0.00  0.00     0.055 A 
HETATM    6  C   UNK N   1      21.586  19.697   2.671  0.00  0.00     0.128 A 
HETATM    7  F   UNK N   1      20.968  20.453   1.729  0.00  0.00    -0.205 F 
HETATM    8  F   UNK N   1      20.987  16.837   4.891  0.00  0.00    -0.205 F 
ENDROOT
BRANCH   4   9
HETATM    9  C   UNK N   1      25.049  19.456   4.031  0.00  0.00    -0.025 A 
HETATM   10  C   UNK N   1      25.772  20.300   3.174  0.00  0.00     0.012 A 
HETATM   11  C   UNK N   1      27.114  20.600   3.475  0.00  0.00     0.002 A 
HETATM   12  C   UNK N   1      27.709  20.098   4.649  0.00  0.00     0.015 A 
HETATM   13  C   UNK N   1      26.973  19.253   5.491  0.00  0.00     0.010 A 
HETATM   14  C   UNK N   1      25.675  18.944   5.159  0.00  0.00     0.027 A 
BRANCH  13  15
HETATM   15  C   UNK N   1      27.452  18.756   6.784  0.00  0.00     0.131 A 
HETATM   16  N   UNK N   1      28.143  17.621   6.976  0.00  0.00    -0.336 N 
HETATM   17  C   UNK N   1      28.423  17.641   8.298  0.00  0.00     0.199 A 
ATOM     18  HN  UNK N   1      28.397  16.913   6.288  1.00  0.00     0.168 HD
HETATM   19  N   UNK N   1      27.917  18.750   8.876  0.00  0.00    -0.295 N 
HETATM   20  N   UNK N   1      27.317  19.446   7.933  0.00  0.00    -0.284 N 
HETATM   21  H   UNK N   1      27.983  18.993   9.828  0.00  0.00     0.187 HD
ATOM     22  HN  UNK N   1      26.839  20.341   8.050  1.00  0.00     0.188 HD
ENDBRANCH  13  15
ENDBRANCH   4   9
BRANCH   1  23
HETATM   23  C   UNK N   1      19.535  18.295   2.924  0.00  0.00     0.159 C 
BRANCH  23  24
HETATM   24  N   UNK N   1      19.452  16.945   2.377  0.00  0.00    -0.412 N 
HETATM   25  H   UNK N   1      18.947  16.179   2.824  0.00  0.00     0.153 HD
BRANCH  24  26
HETATM   26  C   UNK N   1      20.179  16.817   1.109  0.00  0.00     0.085 C 
HETATM   27  C   UNK N   1      21.049  15.556   1.254  0.00  0.00     0.064 C 
HETATM   28  C   UNK N   1      20.052  14.522   0.913  0.00  0.00    -0.050 A 
HETATM   29  C   UNK N   1      19.006  15.045   0.209  0.00  0.00    -0.050 A 
HETATM   30  C   UNK N   1      20.063  13.188   1.309  0.00  0.00     0.007 A 
HETATM   31  C   UNK N   1      17.905  14.273  -0.145  0.00  0.00     0.007 A 
HETATM   32  C   UNK N   1      19.172  16.486  -0.015  0.00  0.00     0.064 C 
HETATM   33  C   UNK N   1      17.890  12.924   0.235  0.00  0.00     0.001 A 
HETATM   34  C   UNK N   1      18.968  12.381   0.961  0.00  0.00     0.001 A 
ENDBRANCH  24  26
ENDBRANCH  23  24
ENDBRANCH   1  23
TORSDOF 5
ENDMDL
MODEL 3
REMARK VINA RESULT:      -8.6      2.564      4.084
REMARK  5 active torsions:
REMARK  status: ('A' for Active; 'I' for Inactive)
REMARK    1  A    between atoms: C_8  and  N_10 
REMARK    2  A    between atoms: N_10  and  C_11 
REMARK    3  A    between atoms: C_11  and  C_12 
REMARK    4  A    between atoms: C_15  and  C_19 
REMARK    5  A    between atoms: C_23  and  C_25 
ROOT
HETATM    1  C   UNK N   1      27.505  18.677   4.473  0.00  0.00     0.036 A 
HETATM    2  C   UNK N   1      26.727  17.649   3.907  0.00  0.00     0.128 A 
HETATM    3  C   UNK N   1      25.393  17.895   3.547  0.00  0.00     0.055 A 
HETATM    4  C   UNK N   1      24.853  19.175   3.738  0.00  0.00    -0.020 A 
HETATM    5  C   UNK N   1      25.659  20.188   4.271  0.00  0.00     0.055 A 
HETATM    6  C   UNK N   1      26.961  19.954   4.637  0.00  0.00     0.128 A 
HETATM    7  F   UNK N   1      27.679  20.972   5.176  0.00  0.00    -0.205 F 
HETATM    8  F   UNK N   1      27.246  16.405   3.751  0.00  0.00    -0.205 F 
ENDROOT
BRANCH   4   9
HETATM    9  C   UNK N   1      23.418  19.473   3.581  0.00  0.00    -0.025 A 
HETATM   10  C   UNK N   1      22.911  20.522   2.801  0.00  0.00     0.012 A 
HETATM   11  C   UNK N   1      21.524  20.604   2.575  0.00  0.00     0.002 A 
HETATM   12  C   UNK N   1      20.660  19.616   3.086  0.00  0.00     0.015 A 
HETATM   13  C   UNK N   1      21.184  18.576   3.867  0.00  0.00     0.010 A 
HETATM   14  C   UNK N   1      22.537  18.535   4.105  0.00  0.00     0.027 A 
BRANCH  13  15
HETATM   15  C   UNK N   1      20.400  17.442   4.364  0.00  0.00     0.131 A 
HETATM   16  N   UNK N   1      20.556  16.849   5.558  0.00  0.00    -0.336 N 
HETATM   17  C   UNK N   1      19.566  15.929   5.586  0.00  0.00     0.199 A 
ATOM     18  HN  UNK N   1      21.255  17.046   6.273  1.00  0.00     0.168 HD
HETATM   19  N   UNK N   1      18.843  15.972   4.449  0.00  0.00    -0.295 N 
HETATM   20  N   UNK N   1      19.359  16.916   3.690  0.00  0.00    -0.284 N 
HETATM   21  H   UNK N   1      18.072  15.401   4.226  0.00  0.00     0.187 HD
ATOM     22  HN  UNK N   1      19.031  17.198   2.765  1.00  0.00     0.188 HD
ENDBRANCH  13  15
ENDBRANCH   4   9
BRANCH   1  23
HETATM   23  C   UNK N   1      28.899  18.406   4.920  0.00  0.00     0.159 C 
BRANCH  23  24
HETATM   24  N   UNK N   1      28.986  18.381   6.377  0.00  0.00    -0.412 N 
HETATM   25  H   UNK N   1      28.908  19.211   6.966  0.00  0.00     0.153 HD
BRANCH  24  26
HETATM   26  C   UNK N   1      29.198  17.025   6.894  0.00  0.00     0.085 C 
HETATM   27  C   UNK N   1      30.171  16.351   5.910  0.00  0.00     0.064 C 
HETATM   28  C   UNK N   1      31.452  16.868   6.431  0.00  0.00    -0.050 A 
HETATM   29  C   UNK N   1      31.335  17.294   7.723  0.00  0.00    -0.050 A 
HETATM   30  C   UNK N   1      32.640  17.023   5.723  0.00  0.00     0.007 A 
HETATM   31  C   UNK N   1      32.393  17.901   8.390  0.00  0.00     0.007 A 
HETATM   32  C   UNK N   1      29.970  17.113   8.230  0.00  0.00     0.064 C 
HETATM   33  C   UNK N   1      33.605  18.064   7.705  0.00  0.00     0.001 A 
HETATM   34  C   UNK N   1      33.730  17.625   6.372  0.00  0.00     0.001 A 
ENDBRANCH  24  26
ENDBRANCH  23  24
ENDBRANCH   1  23
TORSDOF 5
ENDMDL
MODEL 4
REMARK VINA RESULT:      -8.6      5.749     12.081
REMARK  5 active torsions:
REMARK  status: ('A' for Active; 'I' for Inactive)
REMARK    1  A    between atoms: C_8  and  N_10 
REMARK    2  A    between atoms: N_10  and  C_11 
REMARK    3  A    between atoms: C_11  and  C_12 
REMARK    4  A    between atoms: C_15  and  C_19 
REMARK    5  A    between atoms: C_23  and  C_25 
ROOT
HETATM    1  C   UNK N   1      35.173  14.553  10.224  0.00  0.00     0.036 A 
HETATM    2  C   UNK N   1      35.340  15.080  11.518  0.00  0.00     0.128 A 
HETATM    3  C   UNK N   1      35.304  14.228  12.633  0.00  0.00     0.055 A 
HETATM    4  C   UNK N   1      35.122  12.851  12.442  0.00  0.00    -0.020 A 
HETATM    5  C   UNK N   1      34.993  12.349  11.142  0.00  0.00     0.055 A 
HETATM    6  C   UNK N   1      35.016  13.175  10.046  0.00  0.00     0.128 A 
HETATM    7  F   UNK N   1      34.855  12.628   8.814  0.00  0.00    -0.205 F 
HETATM    8  F   UNK N   1      35.488  16.417  11.699  0.00  0.00    -0.205 F 
ENDROOT
BRANCH   4   9
HETATM    9  C   UNK N   1      34.870  11.914  13.551  0.00  0.00    -0.025 A 
HETATM   10  C   UNK N   1      34.798  10.520  13.405  0.00  0.00     0.012 A 
HETATM   11  C   UNK N   1      34.735   9.709  14.554  0.00  0.00     0.002 A 
HETATM   12  C   UNK N   1      34.792  10.288  15.837  0.00  0.00     0.015 A 
HETATM   13  C   UNK N   1      34.860  11.683  15.964  0.00  0.00     0.010 A 
HETATM   14  C   UNK N   1      34.884  12.458  14.829  0.00  0.00     0.027 A 
BRANCH  13  15
HETATM   15  C   UNK N   1      35.026  12.387  17.239  0.00  0.00     0.131 A 
HETATM   16  N   UNK N   1      35.122  11.806  18.445  0.00  0.00    -0.336 N 
HETATM   17  C   UNK N   1      35.344  12.844  19.280  0.00  0.00     0.199 A 
ATOM     18  HN  UNK N   1      35.048  10.816  18.676  1.00  0.00     0.168 HD
HETATM   19  N   UNK N   1      35.378  14.007  18.596  0.00  0.00    -0.295 N 
HETATM   20  N   UNK N   1      35.185  13.722  17.326  0.00  0.00    -0.284 N 
HETATM   21  H   UNK N   1      35.521  14.903  18.978  0.00  0.00     0.187 HD
ATOM     22  HN  UNK N   1      35.161  14.387  16.552  1.00  0.00     0.188 HD
ENDBRANCH  13  15
ENDBRANCH   4   9
BRANCH   1  23
HETATM   23  C   UNK N   1      35.143  15.457   9.041  0.00  0.00     0.159 C 
BRANCH  23  24
HETATM   24  N   UNK N   1      33.770  15.762   8.651  0.00  0.00    -0.412 N 
HETATM   25  H   UNK N   1      33.096  15.061   8.344  0.00  0.00     0.153 HD
BRANCH  24  26
HETATM   26  C   UNK N   1      33.472  17.195   8.755  0.00  0.00     0.085 C 
HETATM   27  C   UNK N   1      34.193  17.857   7.567  0.00  0.00     0.064 C 
HETATM   28  C   UNK N   1      33.198  17.616   6.503  0.00  0.00    -0.050 A 
HETATM   29  C   UNK N   1      31.959  17.366   7.021  0.00  0.00    -0.050 A 
HETATM   30  C   UNK N   1      33.439  17.538   5.135  0.00  0.00     0.007 A 
HETATM   31  C   UNK N   1      30.883  17.025   6.209  0.00  0.00     0.007 A 
HETATM   32  C   UNK N   1      31.966  17.415   8.488  0.00  0.00     0.064 C 
HETATM   33  C   UNK N   1      31.095  16.946   4.825  0.00  0.00     0.001 A 
HETATM   34  C   UNK N   1      32.371  17.203   4.288  0.00  0.00     0.001 A 
ENDBRANCH  24  26
ENDBRANCH  23  24
ENDBRANCH   1  23
TORSDOF 5
ENDMDL
MODEL 5
REMARK VINA RESULT:      -8.4      1.978      3.632
REMARK  5 active torsions:
REMARK  status: ('A' for Active; 'I' for Inactive)
REMARK    1  A    between atoms: C_8  and  N_10 
REMARK    2  A    between atoms: N_10  and  C_11 
REMARK    3  A    between atoms: C_11  and  C_12 
REMARK    4  A    between atoms: C_15  and  C_19 
REMARK    5  A    between atoms: C_23  and  C_25 
ROOT
HETATM    1  C   UNK N   1      30.601  17.000   7.947  0.00  0.00     0.036 A 
HETATM    2  C   UNK N   1      29.950  18.148   8.435  0.00  0.00     0.128 A 
HETATM    3  C   UNK N   1      28.905  18.729   7.699  0.00  0.00     0.055 A 
HETATM    4  C   UNK N   1      28.505  18.143   6.489  0.00  0.00    -0.020 A 
HETATM    5  C   UNK N   1      29.147  16.981   6.044  0.00  0.00     0.055 A 
HETATM    6  C   UNK N   1      30.178  16.413   6.751  0.00  0.00     0.128 A 
HETATM    7  F   UNK N   1      30.777  15.304   6.249  0.00  0.00    -0.205 F 
HETATM    8  F   UNK N   1      30.358  18.728   9.592  0.00  0.00    -0.205 F 
ENDROOT
BRANCH   4   9
HETATM    9  C   UNK N   1      27.566  18.789   5.556  0.00  0.00    -0.025 A 
HETATM   10  C   UNK N   1      27.941  19.724   4.580  0.00  0.00     0.012 A 
HETATM   11  C   UNK N   1      26.995  20.140   3.624  0.00  0.00     0.002 A 
HETATM   12  C   UNK N   1      25.699  19.588   3.619  0.00  0.00     0.015 A 
HETATM   13  C   UNK N   1      25.340  18.658   4.605  0.00  0.00     0.010 A 
HETATM   14  C   UNK N   1      26.268  18.293   5.550  0.00  0.00     0.027 A 
BRANCH  13  15
HETATM   15  C   UNK N   1      24.060  17.944   4.638  0.00  0.00     0.131 A 
HETATM   16  N   UNK N   1      23.664  17.012   3.757  0.00  0.00    -0.336 N 
HETATM   17  C   UNK N   1      22.475  16.598   4.248  0.00  0.00     0.199 A 
ATOM     18  HN  UNK N   1      24.146  16.691   2.918  1.00  0.00     0.168 HD
HETATM   19  N   UNK N   1      22.171  17.261   5.383  0.00  0.00    -0.295 N 
HETATM   20  N   UNK N   1      23.159  18.095   5.628  0.00  0.00    -0.284 N 
HETATM   21  H   UNK N   1      21.359  17.142   5.927  0.00  0.00     0.187 HD
ATOM     22  HN  UNK N   1      23.231  18.735   6.420  1.00  0.00     0.188 HD
ENDBRANCH  13  15
ENDBRANCH   4   9
BRANCH   1  23
HETATM   23  C   UNK N   1      31.754  16.417   8.687  0.00  0.00     0.159 C 
BRANCH  23  24
HETATM   24  N   UNK N   1      32.633  15.678   7.787  0.00  0.00    -0.412 N 
HETATM   25  H   UNK N   1      32.399  14.773   7.378  0.00  0.00     0.153 HD
BRANCH  24  26
HETATM   26  C   UNK N   1      33.891  16.388   7.538  0.00  0.00     0.085 C 
HETATM   27  C   UNK N   1      34.679  15.507   6.550  0.00  0.00     0.064 C 
HETATM   28  C   UNK N   1      34.058  15.935   5.282  0.00  0.00    -0.050 A 
HETATM   29  C   UNK N   1      33.448  17.151   5.405  0.00  0.00    -0.050 A 
HETATM   30  C   UNK N   1      33.979  15.203   4.101  0.00  0.00     0.007 A 
HETATM   31  C   UNK N   1      32.722  17.714   4.361  0.00  0.00     0.007 A 
HETATM   32  C   UNK N   1      33.588  17.690   6.763  0.00  0.00     0.064 C 
HETATM   33  C   UNK N   1      32.631  17.002   3.157  0.00  0.00     0.001 A 
HETATM   34  C   UNK N   1      33.259  15.748   3.025  0.00  0.00     0.001 A 
ENDBRANCH  24  26
ENDBRANCH  23  24
ENDBRANCH   1  23
TORSDOF 5
ENDMDL
MODEL 6
REMARK VINA RESULT:      -8.4      4.176      6.688
REMARK  5 active torsions:
REMARK  status: ('A' for Active; 'I' for Inactive)
REMARK    1  A    between atoms: C_8  and  N_10 
REMARK    2  A    between atoms: N_10  and  C_11 
REMARK    3  A    between atoms: C_11  and  C_12 
REMARK    4  A    between atoms: C_15  and  C_19 
REMARK    5  A    between atoms: C_23  and  C_25 
ROOT
HETATM    1  C   UNK N   1      25.897  15.770   5.701  0.00  0.00     0.036 A 
HETATM    2  C   UNK N   1      24.845  15.278   6.496  0.00  0.00     0.128 A 
HETATM    3  C   UNK N   1      23.525  15.324   6.021  0.00  0.00     0.055 A 
HETATM    4  C   UNK N   1      23.270  15.845   4.744  0.00  0.00    -0.020 A 
HETATM    5  C   UNK N   1      24.339  16.296   3.960  0.00  0.00     0.055 A 
HETATM    6  C   UNK N   1      25.632  16.266   4.421  0.00  0.00     0.128 A 
HETATM    7  F   UNK N   1      26.619  16.747   3.623  0.00  0.00    -0.205 F 
HETATM    8  F   UNK N   1      25.094  14.800   7.742  0.00  0.00    -0.205 F 
ENDROOT
BRANCH   4   9
HETATM    9  C   UNK N   1      21.911  16.119   4.246  0.00  0.00    -0.025 A 
HETATM   10  C   UNK N   1      20.760  15.447   4.683  0.00  0.00     0.012 A 
HETATM   11  C   UNK N   1      19.494  15.911   4.278  0.00  0.00     0.002 A 
HETATM   12  C   UNK N   1      19.383  17.068   3.481  0.00  0.00     0.015 A 
HETATM   13  C   UNK N   1      20.544  17.725   3.051  0.00  0.00     0.010 A 
HETATM   14  C   UNK N   1      21.770  17.233   3.429  0.00  0.00     0.027 A 
BRANCH  13  15
HETATM   15  C   UNK N   1      20.548  18.989   2.308  0.00  0.00     0.131 A 
HETATM   16  N   UNK N   1      20.843  20.194   2.820  0.00  0.00    -0.336 N 
HETATM   17  C   UNK N   1      20.793  21.015   1.748  0.00  0.00     0.199 A 
ATOM     18  HN  UNK N   1      21.055  20.433   3.788  1.00  0.00     0.168 HD
HETATM   19  N   UNK N   1      20.480  20.324   0.633  0.00  0.00    -0.295 N 
HETATM   20  N   UNK N   1      20.332  19.062   0.980  0.00  0.00    -0.284 N 
HETATM   21  H   UNK N   1      20.379  20.694  -0.274  0.00  0.00     0.187 HD
ATOM     22  HN  UNK N   1      20.098  18.286   0.361  1.00  0.00     0.188 HD
ENDBRANCH  13  15
ENDBRANCH   4   9
BRANCH   1  23
HETATM   23  C   UNK N   1      27.291  15.787   6.224  0.00  0.00     0.159 C 
BRANCH  23  24
HETATM   24  N   UNK N   1      27.428  16.743   7.318  0.00  0.00    -0.412 N 
HETATM   25  H   UNK N   1      26.715  16.898   8.031  0.00  0.00     0.153 HD
BRANCH  24  26
HETATM   26  C   UNK N   1      28.711  17.452   7.275  0.00  0.00     0.085 C 
HETATM   27  C   UNK N   1      28.957  17.775   5.790  0.00  0.00     0.064 C 
HETATM   28  C   UNK N   1      28.149  19.003   5.661  0.00  0.00    -0.050 A 
HETATM   29  C   UNK N   1      27.921  19.584   6.876  0.00  0.00    -0.050 A 
HETATM   30  C   UNK N   1      27.576  19.509   4.499  0.00  0.00     0.007 A 
HETATM   31  C   UNK N   1      27.108  20.704   7.009  0.00  0.00     0.007 A 
HETATM   32  C   UNK N   1      28.548  18.825   7.964  0.00  0.00     0.064 C 
HETATM   33  C   UNK N   1      26.523  21.241   5.854  0.00  0.00     0.001 A 
HETATM   34  C   UNK N   1      26.757  20.645   4.599  0.00  0.00     0.001 A 
ENDBRANCH  24  26
ENDBRANCH  23  24
ENDBRANCH   1  23
TORSDOF 5
ENDMDL
MODEL 7
REMARK VINA RESULT:      -8.4      9.857     14.268
REMARK  5 active torsions:
REMARK  status: ('A' for Active; 'I' for Inactive)
REMARK    1  A    between atoms: C_8  and  N_10 
REMARK    2  A    between atoms: N_10  and  C_11 
REMARK    3  A    between atoms: C_11  and  C_12 
REMARK    4  A    between atoms: C_15  and  C_19 
REMARK    5  A    between atoms: C_23  and  C_25 
ROOT
HETATM    1  C   UNK N   1      35.278  11.254  18.335  0.00  0.00     0.036 A 
HETATM    2  C   UNK N   1      35.180  12.528  17.745  0.00  0.00     0.128 A 
HETATM    3  C   UNK N   1      34.996  12.648  16.359  0.00  0.00     0.055 A 
HETATM    4  C   UNK N   1      34.889  11.490  15.575  0.00  0.00    -0.020 A 
HETATM    5  C   UNK N   1      34.955  10.235  16.192  0.00  0.00     0.055 A 
HETATM    6  C   UNK N   1      35.147  10.108  17.545  0.00  0.00     0.128 A 
HETATM    7  F   UNK N   1      35.232   8.862  18.077  0.00  0.00    -0.205 F 
HETATM    8  F   UNK N   1      35.312  13.646  18.504  0.00  0.00    -0.205 F 
ENDROOT
BRANCH   4   9
HETATM    9  C   UNK N   1      34.898  11.514  14.102  0.00  0.00    -0.025 A 
HETATM   10  C   UNK N   1      34.500  10.439  13.293  0.00  0.00     0.012 A 
HETATM   11  C   UNK N   1      34.375  10.632  11.904  0.00  0.00     0.002 A 
HETATM   12  C   UNK N   1      34.600  11.903  11.339  0.00  0.00     0.015 A 
HETATM   13  C   UNK N   1      35.001  12.964  12.162  0.00  0.00     0.010 A 
HETATM   14  C   UNK N   1      35.152  12.745  13.510  0.00  0.00     0.027 A 
BRANCH  13  15
HETATM   15  C   UNK N   1      35.164  14.347  11.703  0.00  0.00     0.131 A 
HETATM   16  N   UNK N   1      36.325  15.017  11.642  0.00  0.00    -0.336 N 
HETATM   17  C   UNK N   1      35.980  16.200  11.088  0.00  0.00     0.199 A 
ATOM     18  HN  UNK N   1      37.249  14.707  11.942  1.00  0.00     0.168 HD
HETATM   19  N   UNK N   1      34.657  16.235  10.826  0.00  0.00    -0.295 N 
HETATM   20  N   UNK N   1      34.150  15.081  11.205  0.00  0.00    -0.284 N 
HETATM   21  H   UNK N   1      34.162  16.987  10.427  0.00  0.00     0.187 HD
ATOM     22  HN  UNK N   1      33.173  14.795  11.134  1.00  0.00     0.188 HD
ENDBRANCH  13  15
ENDBRANCH   4   9
BRANCH   1  23
HETATM   23  C   UNK N   1      35.541  11.118  19.794  0.00  0.00     0.159 C 
BRANCH  23  24
HETATM   24  N   UNK N   1      34.295  11.129  20.553  0.00  0.00    -0.412 N 
HETATM   25  H   UNK N   1      33.471  11.669  20.288  0.00  0.00     0.153 HD
BRANCH  24  26
HETATM   26  C   UNK N   1      34.364  10.271  21.741  0.00  0.00     0.085 C 
HETATM   27  C   UNK N   1      32.923  10.179  22.274  0.00  0.00     0.064 C 
HETATM   28  C   UNK N   1      32.398   9.113  21.399  0.00  0.00    -0.050 A 
HETATM   29  C   UNK N   1      33.405   8.367  20.856  0.00  0.00    -0.050 A 
HETATM   30  C   UNK N   1      31.069   8.898  21.048  0.00  0.00     0.007 A 
HETATM   31  C   UNK N   1      33.151   7.361  19.930  0.00  0.00     0.007 A 
HETATM   32  C   UNK N   1      34.724   8.833  21.301  0.00  0.00     0.064 C 
HETATM   33  C   UNK N   1      31.821   7.117  19.563  0.00  0.00     0.001 A 
HETATM   34  C   UNK N   1      30.779   7.884  20.121  0.00  0.00     0.001 A 
ENDBRANCH  24  26
ENDBRANCH  23  24
ENDBRANCH   1  23
TORSDOF 5
ENDMDL
MODEL 8
REMARK VINA RESULT:      -8.4     12.898     16.290
REMARK  5 active torsions:
REMARK  status: ('A' for Active; 'I' for Inactive)
REMARK    1  A    between atoms: C_8  and  N_10 
REMARK    2  A    between atoms: N_10  and  C_11 
REMARK    3  A    between atoms: C_11  and  C_12 
REMARK    4  A    between atoms: C_15  and  C_19 
REMARK    5  A    between atoms: C_23  and  C_25 
ROOT
HETATM    1  C   UNK N   1      27.286  25.242  -4.078  0.00  0.00     0.036 A 
HETATM    2  C   UNK N   1      28.693  25.200  -4.092  0.00  0.00     0.128 A 
HETATM    3  C   UNK N   1      29.358  24.179  -4.790  0.00  0.00     0.055 A 
HETATM    4  C   UNK N   1      28.609  23.220  -5.486  0.00  0.00    -0.020 A 
HETATM    5  C   UNK N   1      27.211  23.306  -5.485  0.00  0.00     0.055 A 
HETATM    6  C   UNK N   1      26.552  24.294  -4.796  0.00  0.00     0.128 A 
HETATM    7  F   UNK N   1      25.195  24.303  -4.810  0.00  0.00    -0.205 F 
HETATM    8  F   UNK N   1      29.413  26.114  -3.393  0.00  0.00    -0.205 F 
ENDROOT
BRANCH   4   9
HETATM    9  C   UNK N   1      29.205  22.007  -6.072  0.00  0.00    -0.025 A 
HETATM   10  C   UNK N   1      28.887  21.507  -7.345  0.00  0.00     0.012 A 
HETATM   11  C   UNK N   1      29.647  20.449  -7.879  0.00  0.00     0.002 A 
HETATM   12  C   UNK N   1      30.745  19.930  -7.164  0.00  0.00     0.015 A 
HETATM   13  C   UNK N   1      31.045  20.439  -5.893  0.00  0.00     0.010 A 
HETATM   14  C   UNK N   1      30.268  21.447  -5.375  0.00  0.00     0.027 A 
BRANCH  13  15
HETATM   15  C   UNK N   1      32.218  20.049  -5.105  0.00  0.00     0.131 A 
HETATM   16  N   UNK N   1      33.343  19.507  -5.597  0.00  0.00    -0.336 N 
HETATM   17  C   UNK N   1      34.145  19.405  -4.515  0.00  0.00     0.199 A 
ATOM     18  HN  UNK N   1      33.545  19.236  -6.559  1.00  0.00     0.168 HD
HETATM   19  N   UNK N   1      33.521  19.871  -3.414  0.00  0.00    -0.295 N 
HETATM   20  N   UNK N   1      32.324  20.276  -3.782  0.00  0.00    -0.284 N 
HETATM   21  H   UNK N   1      33.892  19.902  -2.502  0.00  0.00     0.187 HD
ATOM     22  HN  UNK N   1      31.609  20.686  -3.179  1.00  0.00     0.188 HD
ENDBRANCH  13  15
ENDBRANCH   4   9
BRANCH   1  23
HETATM   23  C   UNK N   1      26.573  26.282  -3.285  0.00  0.00     0.159 C 
BRANCH  23  24
HETATM   24  N   UNK N   1      27.136  27.605  -3.530  0.00  0.00    -0.412 N 
HETATM   25  H   UNK N   1      28.081  27.881  -3.260  0.00  0.00     0.153 HD
BRANCH  24  26
HETATM   26  C   UNK N   1      26.187  28.492  -4.212  0.00  0.00     0.085 C 
HETATM   27  C   UNK N   1      27.047  29.540  -4.941  0.00  0.00     0.064 C 
HETATM   28  C   UNK N   1      27.386  28.783  -6.162  0.00  0.00    -0.050 A 
HETATM   29  C   UNK N   1      26.511  27.757  -6.376  0.00  0.00    -0.050 A 
HETATM   30  C   UNK N   1      28.494  28.972  -6.982  0.00  0.00     0.007 A 
HETATM   31  C   UNK N   1      26.685  26.854  -7.420  0.00  0.00     0.007 A 
HETATM   32  C   UNK N   1      25.479  27.700  -5.334  0.00  0.00     0.064 C 
HETATM   33  C   UNK N   1      27.789  27.024  -8.267  0.00  0.00     0.001 A 
HETATM   34  C   UNK N   1      28.693  28.082  -8.050  0.00  0.00     0.001 A 
ENDBRANCH  24  26
ENDBRANCH  23  24
ENDBRANCH   1  23
TORSDOF 5
ENDMDL
MODEL 9
REMARK VINA RESULT:      -8.3     11.672     16.078
REMARK  5 active torsions:
REMARK  status: ('A' for Active; 'I' for Inactive)
REMARK    1  A    between atoms: C_8  and  N_10 
REMARK    2  A    between atoms: N_10  and  C_11 
REMARK    3  A    between atoms: C_11  and  C_12 
REMARK    4  A    between atoms: C_15  and  C_19 
REMARK    5  A    between atoms: C_23  and  C_25 
ROOT
HETATM    1  C   UNK N   1      28.058  23.972  -3.738  0.00  0.00     0.036 A 
HETATM    2  C   UNK N   1      28.568  23.380  -2.568  0.00  0.00     0.128 A 
HETATM    3  C   UNK N   1      29.820  22.747  -2.590  0.00  0.00     0.055 A 
HETATM    4  C   UNK N   1      30.563  22.729  -3.779  0.00  0.00    -0.020 A 
HETATM    5  C   UNK N   1      30.047  23.355  -4.920  0.00  0.00     0.055 A 
HETATM    6  C   UNK N   1      28.817  23.967  -4.911  0.00  0.00     0.128 A 
HETATM    7  F   UNK N   1      28.362  24.529  -6.059  0.00  0.00    -0.205 F 
HETATM    8  F   UNK N   1      27.834  23.376  -1.426  0.00  0.00    -0.205 F 
ENDROOT
BRANCH   4   9
HETATM    9  C   UNK N   1      31.783  21.921  -3.952  0.00  0.00    -0.025 A 
HETATM   10  C   UNK N   1      32.659  21.583  -2.909  0.00  0.00     0.012 A 
HETATM   11  C   UNK N   1      33.692  20.657  -3.150  0.00  0.00     0.002 A 
HETATM   12  C   UNK N   1      33.815  20.041  -4.412  0.00  0.00     0.015 A 
HETATM   13  C   UNK N   1      32.933  20.394  -5.443  0.00  0.00     0.010 A 
HETATM   14  C   UNK N   1      31.954  21.327  -5.196  0.00  0.00     0.027 A 
BRANCH  13  15
HETATM   15  C   UNK N   1      32.901  19.747  -6.758  0.00  0.00     0.131 A 
HETATM   16  N   UNK N   1      33.932  19.118  -7.343  0.00  0.00    -0.336 N 
HETATM   17  C   UNK N   1      33.398  18.626  -8.482  0.00  0.00     0.199 A 
ATOM     18  HN  UNK N   1      34.891  19.031  -7.007  1.00  0.00     0.168 HD
HETATM   19  N   UNK N   1      32.092  18.950  -8.575  0.00  0.00    -0.295 N 
HETATM   20  N   UNK N   1      31.782  19.644  -7.500  0.00  0.00    -0.284 N 
HETATM   21  H   UNK N   1      31.483  18.713  -9.311  0.00  0.00     0.187 HD
ATOM     22  HN  UNK N   1      30.865  20.031  -7.270  1.00  0.00     0.188 HD
ENDBRANCH  13  15
ENDBRANCH   4   9
BRANCH   1  23
HETATM   23  C   UNK N   1      26.701  24.586  -3.741  0.00  0.00     0.159 C 
BRANCH  23  24
HETATM   24  N   UNK N   1      26.786  26.041  -3.658  0.00  0.00    -0.412 N 
HETATM   25  H   UNK N   1      27.569  26.543  -3.240  0.00  0.00     0.153 HD
BRANCH  24  26
HETATM   26  C   UNK N   1      25.614  26.696  -4.248  0.00  0.00     0.085 C 
HETATM   27  C   UNK N   1      25.850  28.208  -4.073  0.00  0.00     0.064 C 
HETATM   28  C   UNK N   1      26.717  28.463  -5.239  0.00  0.00    -0.050 A 
HETATM   29  C   UNK N   1      26.589  27.486  -6.184  0.00  0.00    -0.050 A 
HETATM   30  C   UNK N   1      27.642  29.492  -5.383  0.00  0.00     0.007 A 
HETATM   31  C   UNK N   1      27.375  27.472  -7.332  0.00  0.00     0.007 A 
HETATM   32  C   UNK N   1      25.622  26.461  -5.775  0.00  0.00     0.064 C 
HETATM   33  C   UNK N   1      28.311  28.500  -7.507  0.00  0.00     0.001 A 
HETATM   34  C   UNK N   1      28.445  29.511  -6.535  0.00  0.00     0.001 A 
ENDBRANCH  24  26
ENDBRANCH  23  24
ENDBRANCH   1  23
TORSDOF 5
ENDMDL
