MODEL 1
REMARK VINA RESULT:      -7.0      0.000      0.000
REMARK  10 active torsions:
REMARK  status: ('A' for Active; 'I' for Inactive)
REMARK    1  A    between atoms: C_5  and  C_8 
REMARK    2  A    between atoms: C_8  and  N_9 
REMARK    3  A    between atoms: C_13  and  C_16 
REMARK    4  A    between atoms: C_16  and  C_17 
REMARK    5  A    between atoms: C_17  and  C_18 
REMARK    6  A    between atoms: C_18  and  C_19 
REMARK    7  A    between atoms: C_22  and  O_25 
REMARK    8  A    between atoms: O_25  and  C_26 
REMARK    9  A    between atoms: C_26  and  C_29 
REMARK   10  A    between atoms: C_29  and  O_31 
ROOT
HETATM    1  C   UNK N   1      28.145  18.295   8.965  0.00  0.00     0.078 C 
ENDROOT
BRANCH   1   2
HETATM    2  C   UNK N   1      28.192  18.348   7.472  0.00  0.00     0.100 A 
HETATM    3  N   UNK N   1      27.541  19.278   6.736  0.00  0.00    -0.296 N 
HETATM    4  C   UNK N   1      27.859  18.929   5.469  0.00  0.00     0.342 A 
HETATM    5  H   UNK N   1      26.977  20.022   7.046  0.00  0.00     0.172 HD
HETATM    6  N   UNK N   1      28.660  17.833   5.446  0.00  0.00    -0.237 N 
HETATM    7  O   UNK N   1      27.472  19.529   4.483  0.00  0.00    -0.245 OA
HETATM    8  N   UNK N   1      28.873  17.472   6.698  0.00  0.00    -0.282 N 
ATOM      9  HN  UNK N   1      29.439  16.687   7.020  1.00  0.00     0.188 HD
BRANCH   6  10
HETATM   10  C   UNK N   1      29.251  17.150   4.295  0.00  0.00     0.192 C 
BRANCH  10  11
HETATM   11  C   UNK N   1      30.647  16.687   4.564  0.00  0.00    -0.038 A 
HETATM   12  C   UNK N   1      30.914  15.346   4.870  0.00  0.00     0.009 A 
HETATM   13  C   UNK N   1      32.232  14.928   5.084  0.00  0.00     0.007 A 
HETATM   14  C   UNK N   1      33.282  15.849   4.991  0.00  0.00    -0.062 A 
HETATM   15  C   UNK N   1      34.683  15.406   5.210  0.00  0.00     0.048 C 
HETATM   16  C   UNK N   1      33.013  17.187   4.691  0.00  0.00     0.007 A 
HETATM   17  C   UNK N   1      31.699  17.605   4.478  0.00  0.00     0.009 A 
ENDBRANCH  10  11
ENDBRANCH   6  10
ENDBRANCH   1   2
BRANCH   1  18
HETATM   18  C   UNK N   1      29.524  18.337   9.635  0.00  0.00     0.012 C 
BRANCH  18  19
HETATM   19  C   UNK N   1      30.676  18.736   8.709  0.00  0.00     0.039 C 
BRANCH  19  20
HETATM   20  C   UNK N   1      31.794  17.745   8.608  0.00  0.00    -0.058 A 
HETATM   21  C   UNK N   1      33.084  18.236   8.400  0.00  0.00     0.010 A 
HETATM   22  C   UNK N   1      34.176  17.370   8.409  0.00  0.00     0.037 A 
HETATM   23  C   UNK N   1      33.988  16.003   8.635  0.00  0.00     0.070 A 
HETATM   24  C   UNK N   1      32.692  15.496   8.787  0.00  0.00     0.037 A 
HETATM   25  C   UNK N   1      31.596  16.365   8.779  0.00  0.00     0.010 A 
BRANCH  23  26
HETATM   26  O   UNK N   1      35.074  15.205   8.764  0.00  0.00    -0.330 OA
BRANCH  26  27
HETATM   27  C   UNK N   1      35.664  14.912   9.991  0.00  0.00     0.145 C 
HETATM   28  C   UNK N   1      35.785  16.167  10.852  0.00  0.00     0.058 C 
HETATM   29  C   UNK N   1      37.082  14.433   9.717  0.00  0.00     0.058 C 
BRANCH  27  30
HETATM   30  C   UNK N   1      34.883  13.859  10.758  0.00  0.00     0.175 C 
HETATM   31  O   UNK N   1      34.995  12.674  10.479  0.00  0.00    -0.648 OA
BRANCH  30  32
HETATM   32  O   UNK N   1      34.080  14.217  11.779  0.00  0.00    -0.774 OA
HETATM   33  H   UNK N   1      34.040  13.772  12.602  0.00  0.00     0.167 HD
ENDBRANCH  30  32
ENDBRANCH  27  30
ENDBRANCH  26  27
ENDBRANCH  23  26
ENDBRANCH  19  20
ENDBRANCH  18  19
ENDBRANCH   1  18
TORSDOF 10
ENDMDL
MODEL 2
REMARK VINA RESULT:      -7.0     12.783     16.073
REMARK  10 active torsions:
REMARK  status: ('A' for Active; 'I' for Inactive)
REMARK    1  A    between atoms: C_5  and  C_8 
REMARK    2  A    between atoms: C_8  and  N_9 
REMARK    3  A    between atoms: C_13  and  C_16 
REMARK    4  A    between atoms: C_16  and  C_17 
REMARK    5  A    between atoms: C_17  and  C_18 
REMARK    6  A    between atoms: C_18  and  C_19 
REMARK    7  A    between atoms: C_22  and  O_25 
REMARK    8  A    between atoms: O_25  and  C_26 
REMARK    9  A    between atoms: C_26  and  C_29 
REMARK   10  A    between atoms: C_29  and  O_31 
ROOT
HETATM    1  C   UNK N   1      28.622  30.416  -5.041  0.00  0.00     0.078 C 
ENDROOT
BRANCH   1   2
HETATM    2  C   UNK N   1      27.513  29.473  -4.703  0.00  0.00     0.100 A 
HETATM    3  N   UNK N   1      27.157  29.161  -3.436  0.00  0.00    -0.296 N 
HETATM    4  C   UNK N   1      26.143  28.285  -3.620  0.00  0.00     0.342 A 
HETATM    5  H   UNK N   1      27.541  29.490  -2.591  0.00  0.00     0.172 HD
HETATM    6  N   UNK N   1      25.907  28.075  -4.940  0.00  0.00    -0.237 N 
HETATM    7  O   UNK N   1      25.528  27.760  -2.710  0.00  0.00    -0.245 OA
HETATM    8  N   UNK N   1      26.760  28.821  -5.618  0.00  0.00    -0.282 N 
ATOM      9  HN  UNK N   1      26.836  28.893  -6.633  1.00  0.00     0.188 HD
BRANCH   6  10
HETATM   10  C   UNK N   1      24.890  27.233  -5.569  0.00  0.00     0.192 C 
BRANCH  10  11
HETATM   11  C   UNK N   1      25.449  25.936  -6.060  0.00  0.00    -0.038 A 
HETATM   12  C   UNK N   1      25.870  25.790  -7.389  0.00  0.00     0.009 A 
HETATM   13  C   UNK N   1      26.422  24.578  -7.817  0.00  0.00     0.007 A 
HETATM   14  C   UNK N   1      26.554  23.512  -6.918  0.00  0.00    -0.062 A 
HETATM   15  C   UNK N   1      27.147  22.227  -7.368  0.00  0.00     0.048 C 
HETATM   16  C   UNK N   1      26.128  23.658  -5.595  0.00  0.00     0.007 A 
HETATM   17  C   UNK N   1      25.577  24.867  -5.167  0.00  0.00     0.009 A 
ENDBRANCH  10  11
ENDBRANCH   6  10
ENDBRANCH   1   2
BRANCH   1  18
HETATM   18  C   UNK N   1      30.023  29.858  -4.759  0.00  0.00     0.012 C 
BRANCH  18  19
HETATM   19  C   UNK N   1      30.460  28.721  -5.686  0.00  0.00     0.039 C 
BRANCH  19  20
HETATM   20  C   UNK N   1      30.167  27.338  -5.192  0.00  0.00    -0.058 A 
HETATM   21  C   UNK N   1      29.698  26.401  -6.114  0.00  0.00     0.010 A 
HETATM   22  C   UNK N   1      29.515  25.073  -5.735  0.00  0.00     0.037 A 
HETATM   23  C   UNK N   1      29.807  24.666  -4.430  0.00  0.00     0.070 A 
HETATM   24  C   UNK N   1      30.221  25.612  -3.484  0.00  0.00     0.037 A 
HETATM   25  C   UNK N   1      30.407  26.945  -3.864  0.00  0.00     0.010 A 
BRANCH  23  26
HETATM   26  O   UNK N   1      29.740  23.350  -4.122  0.00  0.00    -0.330 OA
BRANCH  26  27
HETATM   27  C   UNK N   1      30.863  22.532  -4.023  0.00  0.00     0.145 C 
HETATM   28  C   UNK N   1      32.050  23.142  -4.765  0.00  0.00     0.058 C 
HETATM   29  C   UNK N   1      30.540  21.220  -4.722  0.00  0.00     0.058 C 
BRANCH  27  30
HETATM   30  C   UNK N   1      31.257  22.284  -2.578  0.00  0.00     0.175 C 
HETATM   31  O   UNK N   1      30.682  22.863  -1.667  0.00  0.00    -0.648 OA
BRANCH  30  32
HETATM   32  O   UNK N   1      32.226  21.397  -2.279  0.00  0.00    -0.774 OA
HETATM   33  H   UNK N   1      32.303  20.547  -2.665  0.00  0.00     0.167 HD
ENDBRANCH  30  32
ENDBRANCH  27  30
ENDBRANCH  26  27
ENDBRANCH  23  26
ENDBRANCH  19  20
ENDBRANCH  18  19
ENDBRANCH   1  18
TORSDOF 10
ENDMDL
MODEL 3
REMARK VINA RESULT:      -6.8      5.888     10.663
REMARK  10 active torsions:
REMARK  status: ('A' for Active; 'I' for Inactive)
REMARK    1  A    between atoms: C_5  and  C_8 
REMARK    2  A    between atoms: C_8  and  N_9 
REMARK    3  A    between atoms: C_13  and  C_16 
REMARK    4  A    between atoms: C_16  and  C_17 
REMARK    5  A    between atoms: C_17  and  C_18 
REMARK    6  A    between atoms: C_18  and  C_19 
REMARK    7  A    between atoms: C_22  and  O_25 
REMARK    8  A    between atoms: O_25  and  C_26 
REMARK    9  A    between atoms: C_26  and  C_29 
REMARK   10  A    between atoms: C_29  and  O_31 
ROOT
HETATM    1  C   UNK N   1      36.265  12.384  11.753  0.00  0.00     0.078 C 
ENDROOT
BRANCH   1   2
HETATM    2  C   UNK N   1      36.195  12.902  13.153  0.00  0.00     0.100 A 
HETATM    3  N   UNK N   1      37.167  13.649  13.724  0.00  0.00    -0.296 N 
HETATM    4  C   UNK N   1      36.683  13.867  14.968  0.00  0.00     0.342 A 
HETATM    5  H   UNK N   1      38.016  13.957  13.330  0.00  0.00     0.172 HD
HETATM    6  N   UNK N   1      35.477  13.269  15.138  0.00  0.00    -0.237 N 
HETATM    7  O   UNK N   1      37.265  14.518  15.816  0.00  0.00    -0.245 OA
HETATM    8  N   UNK N   1      35.168  12.670  14.003  0.00  0.00    -0.282 N 
ATOM      9  HN  UNK N   1      34.321  12.137  13.804  1.00  0.00     0.188 HD
BRANCH   6  10
HETATM   10  C   UNK N   1      34.603  13.280  16.311  0.00  0.00     0.192 C 
BRANCH  10  11
HETATM   11  C   UNK N   1      35.127  12.423  17.419  0.00  0.00    -0.038 A 
HETATM   12  C   UNK N   1      35.659  11.153  17.157  0.00  0.00     0.009 A 
HETATM   13  C   UNK N   1      36.175  10.383  18.205  0.00  0.00     0.007 A 
HETATM   14  C   UNK N   1      36.160  10.882  19.513  0.00  0.00    -0.062 A 
HETATM   15  C   UNK N   1      36.715  10.069  20.626  0.00  0.00     0.048 C 
HETATM   16  C   UNK N   1      35.624  12.146  19.773  0.00  0.00     0.007 A 
HETATM   17  C   UNK N   1      35.109  12.915  18.728  0.00  0.00     0.009 A 
ENDBRANCH  10  11
ENDBRANCH   6  10
ENDBRANCH   1   2
BRANCH   1  18
HETATM   18  C   UNK N   1      37.654  12.503  11.113  0.00  0.00     0.012 C 
BRANCH  18  19
HETATM   19  C   UNK N   1      37.911  13.819  10.374  0.00  0.00     0.039 C 
BRANCH  19  20
HETATM   20  C   UNK N   1      36.688  14.598  10.002  0.00  0.00    -0.058 A 
HETATM   21  C   UNK N   1      35.937  14.154   8.912  0.00  0.00     0.010 A 
HETATM   22  C   UNK N   1      34.731  14.774   8.589  0.00  0.00     0.037 A 
HETATM   23  C   UNK N   1      34.260  15.841   9.359  0.00  0.00     0.070 A 
HETATM   24  C   UNK N   1      35.036  16.330  10.418  0.00  0.00     0.037 A 
HETATM   25  C   UNK N   1      36.245  15.707  10.743  0.00  0.00     0.010 A 
BRANCH  23  26
HETATM   26  O   UNK N   1      33.030  16.343   9.101  0.00  0.00    -0.330 OA
BRANCH  26  27
HETATM   27  C   UNK N   1      32.771  17.226   8.056  0.00  0.00     0.145 C 
HETATM   28  C   UNK N   1      31.722  18.258   8.460  0.00  0.00     0.058 C 
HETATM   29  C   UNK N   1      32.174  16.422   6.911  0.00  0.00     0.058 C 
BRANCH  27  30
HETATM   30  C   UNK N   1      34.027  17.950   7.602  0.00  0.00     0.175 C 
HETATM   31  O   UNK N   1      34.490  18.868   8.263  0.00  0.00    -0.648 OA
BRANCH  30  32
HETATM   32  O   UNK N   1      34.666  17.566   6.480  0.00  0.00    -0.774 OA
HETATM   33  H   UNK N   1      34.717  18.079   5.698  0.00  0.00     0.167 HD
ENDBRANCH  30  32
ENDBRANCH  27  30
ENDBRANCH  26  27
ENDBRANCH  23  26
ENDBRANCH  19  20
ENDBRANCH  18  19
ENDBRANCH   1  18
TORSDOF 10
ENDMDL
MODEL 4
REMARK VINA RESULT:      -6.4      5.438      7.340
REMARK  10 active torsions:
REMARK  status: ('A' for Active; 'I' for Inactive)
REMARK    1  A    between atoms: C_5  and  C_8 
REMARK    2  A    between atoms: C_8  and  N_9 
REMARK    3  A    between atoms: C_13  and  C_16 
REMARK    4  A    between atoms: C_16  and  C_17 
REMARK    5  A    between atoms: C_17  and  C_18 
REMARK    6  A    between atoms: C_18  and  C_19 
REMARK    7  A    between atoms: C_22  and  O_25 
REMARK    8  A    between atoms: O_25  and  C_26 
REMARK    9  A    between atoms: C_26  and  C_29 
REMARK   10  A    between atoms: C_29  and  O_31 
ROOT
HETATM    1  C   UNK N   1      25.265  16.305   5.669  0.00  0.00     0.078 C 
ENDROOT
BRANCH   1   2
HETATM    2  C   UNK N   1      24.125  15.480   6.172  0.00  0.00     0.100 A 
HETATM    3  N   UNK N   1      22.861  15.947   6.296  0.00  0.00    -0.296 N 
HETATM    4  C   UNK N   1      22.197  14.877   6.789  0.00  0.00     0.342 A 
HETATM    5  H   UNK N   1      22.513  16.842   6.080  0.00  0.00     0.172 HD
HETATM    6  N   UNK N   1      23.027  13.818   6.962  0.00  0.00    -0.237 N 
HETATM    7  O   UNK N   1      21.006  14.877   7.041  0.00  0.00    -0.245 OA
HETATM    8  N   UNK N   1      24.232  14.192   6.572  0.00  0.00    -0.282 N 
ATOM      9  HN  UNK N   1      25.078  13.622   6.571  1.00  0.00     0.188 HD
BRANCH   6  10
HETATM   10  C   UNK N   1      22.713  12.472   7.441  0.00  0.00     0.192 C 
BRANCH  10  11
HETATM   11  C   UNK N   1      22.827  12.356   8.927  0.00  0.00    -0.038 A 
HETATM   12  C   UNK N   1      21.689  12.412   9.743  0.00  0.00     0.009 A 
HETATM   13  C   UNK N   1      21.816  12.266  11.129  0.00  0.00     0.007 A 
HETATM   14  C   UNK N   1      23.078  12.065  11.699  0.00  0.00    -0.062 A 
HETATM   15  C   UNK N   1      23.215  11.903  13.169  0.00  0.00     0.048 C 
HETATM   16  C   UNK N   1      24.213  12.016  10.884  0.00  0.00     0.007 A 
HETATM   17  C   UNK N   1      24.087  12.160   9.501  0.00  0.00     0.009 A 
ENDBRANCH  10  11
ENDBRANCH   6  10
ENDBRANCH   1   2
BRANCH   1  18
HETATM   18  C   UNK N   1      26.598  16.021   6.371  0.00  0.00     0.012 C 
BRANCH  18  19
HETATM   19  C   UNK N   1      27.690  17.065   6.124  0.00  0.00     0.039 C 
BRANCH  19  20
HETATM   20  C   UNK N   1      29.037  16.734   6.687  0.00  0.00    -0.058 A 
HETATM   21  C   UNK N   1      29.775  15.724   6.067  0.00  0.00     0.010 A 
HETATM   22  C   UNK N   1      31.078  15.450   6.479  0.00  0.00     0.037 A 
HETATM   23  C   UNK N   1      31.660  16.191   7.511  0.00  0.00     0.070 A 
HETATM   24  C   UNK N   1      30.906  17.166   8.177  0.00  0.00     0.037 A 
HETATM   25  C   UNK N   1      29.599  17.442   7.763  0.00  0.00     0.010 A 
BRANCH  23  26
HETATM   26  O   UNK N   1      32.965  15.990   7.808  0.00  0.00    -0.330 OA
BRANCH  26  27
HETATM   27  C   UNK N   1      33.994  16.773   7.288  0.00  0.00     0.145 C 
HETATM   28  C   UNK N   1      33.521  17.552   6.063  0.00  0.00     0.058 C 
HETATM   29  C   UNK N   1      35.090  15.833   6.810  0.00  0.00     0.058 C 
BRANCH  27  30
HETATM   30  C   UNK N   1      34.537  17.749   8.316  0.00  0.00     0.175 C 
HETATM   31  O   UNK N   1      34.488  17.489   9.509  0.00  0.00    -0.648 OA
BRANCH  30  32
HETATM   32  O   UNK N   1      35.111  18.903   7.922  0.00  0.00    -0.774 OA
HETATM   33  H   UNK N   1      35.854  19.294   8.339  0.00  0.00     0.167 HD
ENDBRANCH  30  32
ENDBRANCH  27  30
ENDBRANCH  26  27
ENDBRANCH  23  26
ENDBRANCH  19  20
ENDBRANCH  18  19
ENDBRANCH   1  18
TORSDOF 10
ENDMDL
MODEL 5
REMARK VINA RESULT:      -6.4     14.113     17.548
REMARK  10 active torsions:
REMARK  status: ('A' for Active; 'I' for Inactive)
REMARK    1  A    between atoms: C_5  and  C_8 
REMARK    2  A    between atoms: C_8  and  N_9 
REMARK    3  A    between atoms: C_13  and  C_16 
REMARK    4  A    between atoms: C_16  and  C_17 
REMARK    5  A    between atoms: C_17  and  C_18 
REMARK    6  A    between atoms: C_18  and  C_19 
REMARK    7  A    between atoms: C_22  and  O_25 
REMARK    8  A    between atoms: O_25  and  C_26 
REMARK    9  A    between atoms: C_26  and  C_29 
REMARK   10  A    between atoms: C_29  and  O_31 
ROOT
HETATM    1  C   UNK N   1      27.536  30.377  -4.705  0.00  0.00     0.078 C 
ENDROOT
BRANCH   1   2
HETATM    2  C   UNK N   1      28.323  29.428  -5.550  0.00  0.00     0.100 A 
HETATM    3  N   UNK N   1      28.026  29.155  -6.841  0.00  0.00    -0.296 N 
HETATM    4  C   UNK N   1      28.978  28.256  -7.181  0.00  0.00     0.342 A 
HETATM    5  H   UNK N   1      27.299  29.520  -7.395  0.00  0.00     0.172 HD
HETATM    6  N   UNK N   1      29.804  27.995  -6.136  0.00  0.00    -0.237 N 
HETATM    7  O   UNK N   1      29.072  27.753  -8.285  0.00  0.00    -0.245 OA
HETATM    8  N   UNK N   1      29.398  28.731  -5.117  0.00  0.00    -0.282 N 
ATOM      9  HN  UNK N   1      29.814  28.767  -4.186  1.00  0.00     0.188 HD
BRANCH   6  10
HETATM   10  C   UNK N   1      30.971  27.114  -6.084  0.00  0.00     0.192 C 
BRANCH  10  11
HETATM   11  C   UNK N   1      30.706  25.866  -5.304  0.00  0.00    -0.038 A 
HETATM   12  C   UNK N   1      30.927  25.820  -3.921  0.00  0.00     0.009 A 
HETATM   13  C   UNK N   1      30.641  24.652  -3.207  0.00  0.00     0.007 A 
HETATM   14  C   UNK N   1      30.133  23.531  -3.873  0.00  0.00    -0.062 A 
HETATM   15  C   UNK N   1      29.821  22.292  -3.115  0.00  0.00     0.048 C 
HETATM   16  C   UNK N   1      29.919  23.576  -5.254  0.00  0.00     0.007 A 
HETATM   17  C   UNK N   1      30.205  24.741  -5.968  0.00  0.00     0.009 A 
ENDBRANCH  10  11
ENDBRANCH   6  10
ENDBRANCH   1   2
BRANCH   1  18
HETATM   18  C   UNK N   1      26.301  29.749  -4.047  0.00  0.00     0.012 C 
BRANCH  18  19
HETATM   19  C   UNK N   1      26.579  28.479  -3.239  0.00  0.00     0.039 C 
BRANCH  19  20
HETATM   20  C   UNK N   1      26.179  27.196  -3.899  0.00  0.00    -0.058 A 
HETATM   21  C   UNK N   1      25.308  27.265  -4.987  0.00  0.00     0.010 A 
HETATM   22  C   UNK N   1      24.989  26.115  -5.708  0.00  0.00     0.037 A 
HETATM   23  C   UNK N   1      25.546  24.884  -5.350  0.00  0.00     0.070 A 
HETATM   24  C   UNK N   1      26.374  24.797  -4.223  0.00  0.00     0.037 A 
HETATM   25  C   UNK N   1      26.695  25.950  -3.501  0.00  0.00     0.010 A 
BRANCH  23  26
HETATM   26  O   UNK N   1      25.320  23.808  -6.139  0.00  0.00    -0.330 OA
BRANCH  26  27
HETATM   27  C   UNK N   1      26.029  23.560  -7.312  0.00  0.00     0.145 C 
HETATM   28  C   UNK N   1      27.021  22.416  -7.119  0.00  0.00     0.058 C 
HETATM   29  C   UNK N   1      26.850  24.801  -7.624  0.00  0.00     0.058 C 
BRANCH  27  30
HETATM   30  C   UNK N   1      25.106  23.224  -8.471  0.00  0.00     0.175 C 
HETATM   31  O   UNK N   1      25.212  23.807  -9.540  0.00  0.00    -0.648 OA
BRANCH  30  32
HETATM   32  O   UNK N   1      24.180  22.255  -8.344  0.00  0.00    -0.774 OA
HETATM   33  H   UNK N   1      23.759  21.827  -9.064  0.00  0.00     0.167 HD
ENDBRANCH  30  32
ENDBRANCH  27  30
ENDBRANCH  26  27
ENDBRANCH  23  26
ENDBRANCH  19  20
ENDBRANCH  18  19
ENDBRANCH   1  18
TORSDOF 10
ENDMDL
MODEL 6
REMARK VINA RESULT:      -6.3      3.715      9.596
REMARK  10 active torsions:
REMARK  status: ('A' for Active; 'I' for Inactive)
REMARK    1  A    between atoms: C_5  and  C_8 
REMARK    2  A    between atoms: C_8  and  N_9 
REMARK    3  A    between atoms: C_13  and  C_16 
REMARK    4  A    between atoms: C_16  and  C_17 
REMARK    5  A    between atoms: C_17  and  C_18 
REMARK    6  A    between atoms: C_18  and  C_19 
REMARK    7  A    between atoms: C_22  and  O_25 
REMARK    8  A    between atoms: O_25  and  C_26 
REMARK    9  A    between atoms: C_26  and  C_29 
REMARK   10  A    between atoms: C_29  and  O_31 
ROOT
HETATM    1  C   UNK N   1      32.308  14.918   9.507  0.00  0.00     0.078 C 
ENDROOT
BRANCH   1   2
HETATM    2  C   UNK N   1      33.599  14.881  10.259  0.00  0.00     0.100 A 
HETATM    3  N   UNK N   1      34.360  15.974  10.494  0.00  0.00    -0.296 N 
HETATM    4  C   UNK N   1      35.409  15.465  11.179  0.00  0.00     0.342 A 
HETATM    5  H   UNK N   1      34.191  16.908  10.231  0.00  0.00     0.172 HD
HETATM    6  N   UNK N   1      35.287  14.123  11.341  0.00  0.00    -0.237 N 
HETATM    7  O   UNK N   1      36.337  16.135  11.593  0.00  0.00    -0.245 OA
HETATM    8  N   UNK N   1      34.153  13.758  10.770  0.00  0.00    -0.282 N 
ATOM      9  HN  UNK N   1      33.769  12.813  10.724  1.00  0.00     0.188 HD
BRANCH   6  10
HETATM   10  C   UNK N   1      36.176  13.197  12.040  0.00  0.00     0.192 C 
BRANCH  10  11
HETATM   11  C   UNK N   1      35.927  13.172  13.514  0.00  0.00    -0.038 A 
HETATM   12  C   UNK N   1      36.694  13.956  14.387  0.00  0.00     0.009 A 
HETATM   13  C   UNK N   1      36.420  13.943  15.759  0.00  0.00     0.007 A 
HETATM   14  C   UNK N   1      35.382  13.147  16.259  0.00  0.00    -0.062 A 
HETATM   15  C   UNK N   1      35.085  13.138  17.714  0.00  0.00     0.048 C 
HETATM   16  C   UNK N   1      34.623  12.361  15.387  0.00  0.00     0.007 A 
HETATM   17  C   UNK N   1      34.895  12.374  14.018  0.00  0.00     0.009 A 
ENDBRANCH  10  11
ENDBRANCH   6  10
ENDBRANCH   1   2
BRANCH   1  18
HETATM   18  C   UNK N   1      32.359  15.754   8.222  0.00  0.00     0.012 C 
BRANCH  18  19
HETATM   19  C   UNK N   1      32.021  17.236   8.405  0.00  0.00     0.039 C 
BRANCH  19  20
HETATM   20  C   UNK N   1      30.730  17.682   7.791  0.00  0.00    -0.058 A 
HETATM   21  C   UNK N   1      30.440  17.252   6.495  0.00  0.00     0.010 A 
HETATM   22  C   UNK N   1      29.207  17.545   5.916  0.00  0.00     0.037 A 
HETATM   23  C   UNK N   1      28.247  18.265   6.633  0.00  0.00     0.070 A 
HETATM   24  C   UNK N   1      28.553  18.751   7.910  0.00  0.00     0.037 A 
HETATM   25  C   UNK N   1      29.790  18.456   8.492  0.00  0.00     0.010 A 
BRANCH  23  26
HETATM   26  O   UNK N   1      27.015  18.428   6.097  0.00  0.00    -0.330 OA
BRANCH  26  27
HETATM   27  C   UNK N   1      26.672  19.511   5.289  0.00  0.00     0.145 C 
HETATM   28  C   UNK N   1      27.829  19.895   4.371  0.00  0.00     0.058 C 
HETATM   29  C   UNK N   1      26.422  20.703   6.199  0.00  0.00     0.058 C 
BRANCH  27  30
HETATM   30  C   UNK N   1      25.445  19.218   4.443  0.00  0.00     0.175 C 
HETATM   31  O   UNK N   1      24.459  18.690   4.936  0.00  0.00    -0.648 OA
BRANCH  30  32
HETATM   32  O   UNK N   1      25.416  19.568   3.142  0.00  0.00    -0.774 OA
HETATM   33  H   UNK N   1      25.525  20.444   2.827  0.00  0.00     0.167 HD
ENDBRANCH  30  32
ENDBRANCH  27  30
ENDBRANCH  26  27
ENDBRANCH  23  26
ENDBRANCH  19  20
ENDBRANCH  18  19
ENDBRANCH   1  18
TORSDOF 10
ENDMDL
MODEL 7
REMARK VINA RESULT:      -6.3      4.997      7.336
REMARK  10 active torsions:
REMARK  status: ('A' for Active; 'I' for Inactive)
REMARK    1  A    between atoms: C_5  and  C_8 
REMARK    2  A    between atoms: C_8  and  N_9 
REMARK    3  A    between atoms: C_13  and  C_16 
REMARK    4  A    between atoms: C_16  and  C_17 
REMARK    5  A    between atoms: C_17  and  C_18 
REMARK    6  A    between atoms: C_18  and  C_19 
REMARK    7  A    between atoms: C_22  and  O_25 
REMARK    8  A    between atoms: O_25  and  C_26 
REMARK    9  A    between atoms: C_26  and  C_29 
REMARK   10  A    between atoms: C_29  and  O_31 
ROOT
HETATM    1  C   UNK N   1      34.546  14.880  10.683  0.00  0.00     0.078 C 
ENDROOT
BRANCH   1   2
HETATM    2  C   UNK N   1      34.577  15.909   9.599  0.00  0.00     0.100 A 
HETATM    3  N   UNK N   1      34.775  17.228   9.826  0.00  0.00    -0.296 N 
HETATM    4  C   UNK N   1      34.710  17.756   8.583  0.00  0.00     0.342 A 
HETATM    5  H   UNK N   1      34.930  17.687  10.683  0.00  0.00     0.172 HD
HETATM    6  N   UNK N   1      34.474  16.797   7.652  0.00  0.00    -0.237 N 
HETATM    7  O   UNK N   1      34.848  18.941   8.342  0.00  0.00    -0.245 OA
HETATM    8  N   UNK N   1      34.395  15.641   8.286  0.00  0.00    -0.282 N 
ATOM      9  HN  UNK N   1      34.230  14.725   7.868  1.00  0.00     0.188 HD
BRANCH   6  10
HETATM   10  C   UNK N   1      34.360  16.933   6.200  0.00  0.00     0.192 C 
BRANCH  10  11
HETATM   11  C   UNK N   1      32.949  17.150   5.758  0.00  0.00    -0.038 A 
HETATM   12  C   UNK N   1      32.663  17.636   4.474  0.00  0.00     0.009 A 
HETATM   13  C   UNK N   1      31.334  17.799   4.070  0.00  0.00     0.007 A 
HETATM   14  C   UNK N   1      30.291  17.477   4.946  0.00  0.00    -0.062 A 
HETATM   15  C   UNK N   1      28.879  17.642   4.516  0.00  0.00     0.048 C 
HETATM   16  C   UNK N   1      30.578  16.998   6.228  0.00  0.00     0.007 A 
HETATM   17  C   UNK N   1      31.904  16.835   6.632  0.00  0.00     0.009 A 
ENDBRANCH  10  11
ENDBRANCH   6  10
ENDBRANCH   1   2
BRANCH   1  18
HETATM   18  C   UNK N   1      35.505  15.169  11.845  0.00  0.00     0.012 C 
BRANCH  18  19
HETATM   19  C   UNK N   1      36.222  13.939  12.407  0.00  0.00     0.039 C 
BRANCH  19  20
HETATM   20  C   UNK N   1      35.801  13.519  13.781  0.00  0.00    -0.058 A 
HETATM   21  C   UNK N   1      34.788  12.564  13.890  0.00  0.00     0.010 A 
HETATM   22  C   UNK N   1      34.433  12.056  15.138  0.00  0.00     0.037 A 
HETATM   23  C   UNK N   1      35.093  12.492  16.290  0.00  0.00     0.070 A 
HETATM   24  C   UNK N   1      36.069  13.492  16.194  0.00  0.00     0.037 A 
HETATM   25  C   UNK N   1      36.427  14.002  14.942  0.00  0.00     0.010 A 
BRANCH  23  26
HETATM   26  O   UNK N   1      34.816  11.893  17.471  0.00  0.00    -0.330 OA
BRANCH  26  27
HETATM   27  C   UNK N   1      35.468  10.744  17.915  0.00  0.00     0.145 C 
HETATM   28  C   UNK N   1      36.586  10.346  16.955  0.00  0.00     0.058 C 
HETATM   29  C   UNK N   1      34.458   9.608  17.903  0.00  0.00     0.058 C 
BRANCH  27  30
HETATM   30  C   UNK N   1      36.052  10.926  19.305  0.00  0.00     0.175 C 
HETATM   31  O   UNK N   1      36.981  10.230  19.687  0.00  0.00    -0.648 OA
BRANCH  30  32
HETATM   32  O   UNK N   1      35.572  11.882  20.125  0.00  0.00    -0.774 OA
HETATM   33  H   UNK N   1      35.992  12.706  20.280  0.00  0.00     0.167 HD
ENDBRANCH  30  32
ENDBRANCH  27  30
ENDBRANCH  26  27
ENDBRANCH  23  26
ENDBRANCH  19  20
ENDBRANCH  18  19
ENDBRANCH   1  18
TORSDOF 10
ENDMDL
MODEL 8
REMARK VINA RESULT:      -6.2     12.545     15.124
REMARK  10 active torsions:
REMARK  status: ('A' for Active; 'I' for Inactive)
REMARK    1  A    between atoms: C_5  and  C_8 
REMARK    2  A    between atoms: C_8  and  N_9 
REMARK    3  A    between atoms: C_13  and  C_16 
REMARK    4  A    between atoms: C_16  and  C_17 
REMARK    5  A    between atoms: C_17  and  C_18 
REMARK    6  A    between atoms: C_18  and  C_19 
REMARK    7  A    between atoms: C_22  and  O_25 
REMARK    8  A    between atoms: O_25  and  C_26 
REMARK    9  A    between atoms: C_26  and  C_29 
REMARK   10  A    between atoms: C_29  and  O_31 
ROOT
HETATM    1  C   UNK N   1      25.929  24.946  -4.831  0.00  0.00     0.078 C 
ENDROOT
BRANCH   1   2
HETATM    2  C   UNK N   1      25.741  24.251  -6.141  0.00  0.00     0.100 A 
HETATM    3  N   UNK N   1      25.483  24.898  -7.301  0.00  0.00    -0.296 N 
HETATM    4  C   UNK N   1      25.381  23.885  -8.190  0.00  0.00     0.342 A 
HETATM    5  H   UNK N   1      25.393  25.866  -7.457  0.00  0.00     0.172 HD
HETATM    6  N   UNK N   1      25.562  22.682  -7.589  0.00  0.00    -0.237 N 
HETATM    7  O   UNK N   1      25.157  24.045  -9.376  0.00  0.00    -0.245 OA
HETATM    8  N   UNK N   1      25.792  22.910  -6.309  0.00  0.00    -0.282 N 
ATOM      9  HN  UNK N   1      25.973  22.212  -5.587  1.00  0.00     0.188 HD
BRANCH   6  10
HETATM   10  C   UNK N   1      25.562  21.346  -8.186  0.00  0.00     0.192 C 
BRANCH  10  11
HETATM   11  C   UNK N   1      26.893  20.979  -8.760  0.00  0.00    -0.038 A 
HETATM   12  C   UNK N   1      27.187  21.223 -10.108  0.00  0.00     0.009 A 
HETATM   13  C   UNK N   1      28.451  20.902 -10.615  0.00  0.00     0.007 A 
HETATM   14  C   UNK N   1      29.420  20.340  -9.775  0.00  0.00    -0.062 A 
HETATM   15  C   UNK N   1      30.765  20.006 -10.310  0.00  0.00     0.048 C 
HETATM   16  C   UNK N   1      29.122  20.092  -8.433  0.00  0.00     0.007 A 
HETATM   17  C   UNK N   1      27.861  20.411  -7.926  0.00  0.00     0.009 A 
ENDBRANCH  10  11
ENDBRANCH   6  10
ENDBRANCH   1   2
BRANCH   1  18
HETATM   18  C   UNK N   1      26.697  24.120  -3.792  0.00  0.00     0.012 C 
BRANCH  18  19
HETATM   19  C   UNK N   1      28.159  24.530  -3.598  0.00  0.00     0.039 C 
BRANCH  19  20
HETATM   20  C   UNK N   1      29.171  23.464  -3.883  0.00  0.00    -0.058 A 
HETATM   21  C   UNK N   1      30.030  23.086  -2.850  0.00  0.00     0.010 A 
HETATM   22  C   UNK N   1      30.915  22.024  -3.024  0.00  0.00     0.037 A 
HETATM   23  C   UNK N   1      30.945  21.324  -4.234  0.00  0.00     0.070 A 
HETATM   24  C   UNK N   1      30.128  21.735  -5.295  0.00  0.00     0.037 A 
HETATM   25  C   UNK N   1      29.239  22.800  -5.119  0.00  0.00     0.010 A 
BRANCH  23  26
HETATM   26  O   UNK N   1      31.723  20.222  -4.335  0.00  0.00    -0.330 OA
BRANCH  26  27
HETATM   27  C   UNK N   1      32.976  20.226  -4.943  0.00  0.00     0.145 C 
HETATM   28  C   UNK N   1      33.558  21.636  -4.985  0.00  0.00     0.058 C 
HETATM   29  C   UNK N   1      32.788  19.789  -6.388  0.00  0.00     0.058 C 
BRANCH  27  30
HETATM   30  C   UNK N   1      33.954  19.308  -4.231  0.00  0.00     0.175 C 
HETATM   31  O   UNK N   1      35.136  19.606  -4.141  0.00  0.00    -0.648 OA
BRANCH  30  32
HETATM   32  O   UNK N   1      33.524  18.167  -3.659  0.00  0.00    -0.774 OA
HETATM   33  H   UNK N   1      34.086  17.481  -3.357  0.00  0.00     0.167 HD
ENDBRANCH  30  32
ENDBRANCH  27  30
ENDBRANCH  26  27
ENDBRANCH  23  26
ENDBRANCH  19  20
ENDBRANCH  18  19
ENDBRANCH   1  18
TORSDOF 10
ENDMDL
MODEL 9
REMARK VINA RESULT:      -6.1      5.011     10.100
REMARK  10 active torsions:
REMARK  status: ('A' for Active; 'I' for Inactive)
REMARK    1  A    between atoms: C_5  and  C_8 
REMARK    2  A    between atoms: C_8  and  N_9 
REMARK    3  A    between atoms: C_13  and  C_16 
REMARK    4  A    between atoms: C_16  and  C_17 
REMARK    5  A    between atoms: C_17  and  C_18 
REMARK    6  A    between atoms: C_18  and  C_19 
REMARK    7  A    between atoms: C_22  and  O_25 
REMARK    8  A    between atoms: O_25  and  C_26 
REMARK    9  A    between atoms: C_26  and  C_29 
REMARK   10  A    between atoms: C_29  and  O_31 
ROOT
HETATM    1  C   UNK N   1      35.980  15.705  11.335  0.00  0.00     0.078 C 
ENDROOT
BRANCH   1   2
HETATM    2  C   UNK N   1      35.821  14.441  12.116  0.00  0.00     0.100 A 
HETATM    3  N   UNK N   1      34.750  13.622  12.004  0.00  0.00    -0.296 N 
HETATM    4  C   UNK N   1      35.033  12.640  12.889  0.00  0.00     0.342 A 
HETATM    5  H   UNK N   1      33.961  13.719  11.423  0.00  0.00     0.172 HD
HETATM    6  N   UNK N   1      36.219  12.863  13.510  0.00  0.00    -0.237 N 
HETATM    7  O   UNK N   1      34.310  11.682  13.092  0.00  0.00    -0.245 OA
HETATM    8  N   UNK N   1      36.715  13.986  13.024  0.00  0.00    -0.282 N 
ATOM      9  HN  UNK N   1      37.599  14.426  13.282  1.00  0.00     0.188 HD
BRANCH   6  10
HETATM   10  C   UNK N   1      36.905  12.040  14.506  0.00  0.00     0.192 C 
BRANCH  10  11
HETATM   11  C   UNK N   1      36.317  12.193  15.873  0.00  0.00    -0.038 A 
HETATM   12  C   UNK N   1      36.202  11.093  16.734  0.00  0.00     0.009 A 
HETATM   13  C   UNK N   1      35.681  11.266  18.020  0.00  0.00     0.007 A 
HETATM   14  C   UNK N   1      35.276  12.537  18.447  0.00  0.00    -0.062 A 
HETATM   15  C   UNK N   1      34.730  12.724  19.815  0.00  0.00     0.048 C 
HETATM   16  C   UNK N   1      35.386  13.631  17.584  0.00  0.00     0.007 A 
HETATM   17  C   UNK N   1      35.906  13.459  16.300  0.00  0.00     0.009 A 
ENDBRANCH  10  11
ENDBRANCH   6  10
ENDBRANCH   1   2
BRANCH   1  18
HETATM   18  C   UNK N   1      34.720  16.128  10.570  0.00  0.00     0.012 C 
BRANCH  18  19
HETATM   19  C   UNK N   1      34.811  15.980   9.049  0.00  0.00     0.039 C 
BRANCH  19  20
HETATM   20  C   UNK N   1      33.536  16.215   8.301  0.00  0.00    -0.058 A 
HETATM   21  C   UNK N   1      33.021  15.163   7.542  0.00  0.00     0.010 A 
HETATM   22  C   UNK N   1      31.782  15.287   6.915  0.00  0.00     0.037 A 
HETATM   23  C   UNK N   1      31.042  16.465   7.049  0.00  0.00     0.070 A 
HETATM   24  C   UNK N   1      31.577  17.545   7.761  0.00  0.00     0.037 A 
HETATM   25  C   UNK N   1      32.819  17.420   8.391  0.00  0.00     0.010 A 
BRANCH  23  26
HETATM   26  O   UNK N   1      29.790  16.514   6.536  0.00  0.00    -0.330 OA
BRANCH  26  27
HETATM   27  C   UNK N   1      29.499  17.059   5.288  0.00  0.00     0.145 C 
HETATM   28  C   UNK N   1      28.721  16.067   4.427  0.00  0.00     0.058 C 
HETATM   29  C   UNK N   1      30.819  17.312   4.577  0.00  0.00     0.058 C 
BRANCH  27  30
HETATM   30  C   UNK N   1      28.700  18.345   5.404  0.00  0.00     0.175 C 
HETATM   31  O   UNK N   1      28.185  18.665   6.466  0.00  0.00    -0.648 OA
BRANCH  30  32
HETATM   32  O   UNK N   1      28.576  19.168   4.344  0.00  0.00    -0.774 OA
HETATM   33  H   UNK N   1      27.917  19.829   4.261  0.00  0.00     0.167 HD
ENDBRANCH  30  32
ENDBRANCH  27  30
ENDBRANCH  26  27
ENDBRANCH  23  26
ENDBRANCH  19  20
ENDBRANCH  18  19
ENDBRANCH   1  18
TORSDOF 10
ENDMDL
