MODEL 1
REMARK VINA RESULT:      -5.4      0.000      0.000
REMARK  17 active torsions:
REMARK  status: ('A' for Active; 'I' for Inactive)
REMARK    1  A    between atoms: C_1  and  C_3 
REMARK    2  A    between atoms: C_2  and  C_4 
REMARK    3  A    between atoms: C_3  and  C_5 
REMARK    4  A    between atoms: C_3  and  O_6 
REMARK    5  A    between atoms: C_5  and  C_8 
REMARK    6  A    between atoms: C_7  and  C_9 
REMARK    7  A    between atoms: C_8  and  C_10 
REMARK    8  A    between atoms: C_10  and  C_12 
REMARK    9  A    between atoms: C_11  and  C_13 
REMARK   10  A    between atoms: C_12  and  O_14 
REMARK   11  A    between atoms: C_13  and  C_16 
REMARK   12  A    between atoms: C_13  and  O_17 
REMARK   13  A    between atoms: C_16  and  C_18 
REMARK   14  A    between atoms: C_19  and  C_20 
REMARK   15  A    between atoms: C_20  and  C_21 
REMARK   16  A    between atoms: C_21  and  C_22 
REMARK   17  A    between atoms: C_22  and  C_23 
ROOT
HETATM    1  C   UNK N   1      29.441  20.483  -7.217  0.00  0.00    -0.000 C 
HETATM    2  C   UNK N   1      28.961  21.646  -7.640  0.00  0.00    -0.000 C 
ENDROOT
BRANCH   2   3
HETATM    3  C   UNK N   1      27.556  22.033  -7.583  0.00  0.00    -0.002 C 
HETATM    4  C   UNK N   1      27.207  22.787  -6.546  0.00  0.00     0.005 C 
BRANCH   4   5
HETATM    5  C   UNK N   1      25.794  23.088  -6.208  0.00  0.00     0.144 C 
BRANCH   5   6
HETATM    6  C   UNK N   1      25.775  24.475  -5.577  0.00  0.00     0.062 C 
BRANCH   6   7
HETATM    7  C   UNK N   1      25.872  25.575  -6.596  0.00  0.00    -0.028 C 
HETATM    8  C   UNK N   1      25.478  26.847  -6.423  0.00  0.00    -0.031 C 
BRANCH   8   9
HETATM    9  C   UNK N   1      24.862  27.397  -5.176  0.00  0.00     0.027 C 
BRANCH   9  10
HETATM   10  C   UNK N   1      25.873  28.326  -4.527  0.00  0.00     0.004 C 
BRANCH  10  11
HETATM   11  C   UNK N   1      26.837  27.564  -3.637  0.00  0.00    -0.000 C 
BRANCH  11  12
HETATM   12  C   UNK N   1      28.243  27.735  -4.181  0.00  0.00    -0.005 C 
HETATM   13  C   UNK N   1      28.891  26.382  -4.387  0.00  0.00     0.005 C 
ENDBRANCH  11  12
ENDBRANCH  10  11
ENDBRANCH   9  10
ENDBRANCH   8   9
ENDBRANCH   6   7
ENDBRANCH   5   6
BRANCH   5  14
HETATM   14  O   UNK N   1      25.047  23.118  -7.385  0.00  0.00    -0.391 OA
HETATM   15  H   UNK N   1      24.814  23.958  -7.812  0.00  0.00     0.210 HD
ENDBRANCH   5  14
ENDBRANCH   4   5
ENDBRANCH   2   3
BRANCH   1  16
HETATM   16  C   UNK N   1      30.904  20.394  -7.167  0.00  0.00    -0.002 C 
HETATM   17  C   UNK N   1      31.681  20.626  -6.110  0.00  0.00     0.004 C 
BRANCH  17  18
HETATM   18  C   UNK N   1      31.225  20.910  -4.720  0.00  0.00     0.141 C 
BRANCH  18  19
HETATM   19  C   UNK N   1      31.917  22.214  -4.345  0.00  0.00     0.036 C 
BRANCH  19  20
HETATM   20  C   UNK N   1      30.980  23.389  -4.145  0.00  0.00     0.013 C 
BRANCH  20  21
HETATM   21  C   UNK N   1      29.635  22.842  -3.682  0.00  0.00     0.110 C 
BRANCH  21  22
HETATM   22  C   UNK N   1      29.394  22.964  -2.206  0.00  0.00     0.139 C 
HETATM   23  O   UNK N   1      28.260  23.023  -1.753  0.00  0.00    -0.650 OA
BRANCH  22  24
HETATM   24  O   UNK N   1      30.446  23.012  -1.368  0.00  0.00    -0.776 OA
HETATM   25  H   UNK N   1      31.327  22.919  -1.673  0.00  0.00     0.167 HD
ENDBRANCH  22  24
ENDBRANCH  21  22
ENDBRANCH  20  21
ENDBRANCH  19  20
ENDBRANCH  18  19
BRANCH  18  26
HETATM   26  O   UNK N   1      31.667  19.876  -3.890  0.00  0.00    -0.392 OA
HETATM   27  H   UNK N   1      31.993  20.059  -2.995  0.00  0.00     0.210 HD
ENDBRANCH  18  26
ENDBRANCH  17  18
ENDBRANCH   1  16
TORSDOF 17
ENDMDL
MODEL 2
REMARK VINA RESULT:      -5.3      2.491      6.703
REMARK  17 active torsions:
REMARK  status: ('A' for Active; 'I' for Inactive)
REMARK    1  A    between atoms: C_1  and  C_3 
REMARK    2  A    between atoms: C_2  and  C_4 
REMARK    3  A    between atoms: C_3  and  C_5 
REMARK    4  A    between atoms: C_3  and  O_6 
REMARK    5  A    between atoms: C_5  and  C_8 
REMARK    6  A    between atoms: C_7  and  C_9 
REMARK    7  A    between atoms: C_8  and  C_10 
REMARK    8  A    between atoms: C_10  and  C_12 
REMARK    9  A    between atoms: C_11  and  C_13 
REMARK   10  A    between atoms: C_12  and  O_14 
REMARK   11  A    between atoms: C_13  and  C_16 
REMARK   12  A    between atoms: C_13  and  O_17 
REMARK   13  A    between atoms: C_16  and  C_18 
REMARK   14  A    between atoms: C_19  and  C_20 
REMARK   15  A    between atoms: C_20  and  C_21 
REMARK   16  A    between atoms: C_21  and  C_22 
REMARK   17  A    between atoms: C_22  and  C_23 
ROOT
HETATM    1  C   UNK N   1      28.181  23.563  -3.534  0.00  0.00    -0.000 C 
HETATM    2  C   UNK N   1      28.828  23.254  -2.417  0.00  0.00    -0.000 C 
ENDROOT
BRANCH   2   3
HETATM    3  C   UNK N   1      30.177  22.703  -2.365  0.00  0.00    -0.002 C 
HETATM    4  C   UNK N   1      30.473  21.813  -3.307  0.00  0.00     0.005 C 
BRANCH   4   5
HETATM    5  C   UNK N   1      31.709  20.993  -3.281  0.00  0.00     0.144 C 
BRANCH   5   6
HETATM    6  C   UNK N   1      32.412  21.207  -4.615  0.00  0.00     0.062 C 
BRANCH   6   7
HETATM    7  C   UNK N   1      33.388  22.350  -4.578  0.00  0.00    -0.028 C 
HETATM    8  C   UNK N   1      33.137  23.613  -4.959  0.00  0.00    -0.031 C 
BRANCH   8   9
HETATM    9  C   UNK N   1      31.833  24.108  -5.497  0.00  0.00     0.027 C 
BRANCH   9  10
HETATM   10  C   UNK N   1      31.977  25.594  -5.777  0.00  0.00     0.004 C 
BRANCH  10  11
HETATM   11  C   UNK N   1      32.048  26.397  -4.492  0.00  0.00    -0.000 C 
BRANCH  11  12
HETATM   12  C   UNK N   1      30.796  26.127  -3.678  0.00  0.00    -0.005 C 
HETATM   13  C   UNK N   1      29.626  26.901  -4.248  0.00  0.00     0.005 C 
ENDBRANCH  11  12
ENDBRANCH  10  11
ENDBRANCH   9  10
ENDBRANCH   8   9
ENDBRANCH   6   7
ENDBRANCH   5   6
BRANCH   5  14
HETATM   14  O   UNK N   1      32.534  21.456  -2.256  0.00  0.00    -0.391 OA
HETATM   15  H   UNK N   1      32.268  22.202  -1.695  0.00  0.00     0.210 HD
ENDBRANCH   5  14
ENDBRANCH   4   5
ENDBRANCH   2   3
BRANCH   1  16
HETATM   16  C   UNK N   1      26.930  24.304  -3.346  0.00  0.00    -0.002 C 
HETATM   17  C   UNK N   1      26.140  24.792  -4.301  0.00  0.00     0.004 C 
BRANCH  17  18
HETATM   18  C   UNK N   1      26.296  24.589  -5.770  0.00  0.00     0.141 C 
BRANCH  18  19
HETATM   19  C   UNK N   1      26.323  25.995  -6.354  0.00  0.00     0.036 C 
BRANCH  19  20
HETATM   20  C   UNK N   1      25.364  26.968  -5.698  0.00  0.00     0.013 C 
BRANCH  20  21
HETATM   21  C   UNK N   1      26.165  28.188  -5.259  0.00  0.00     0.110 C 
BRANCH  21  22
HETATM   22  C   UNK N   1      25.881  28.641  -3.856  0.00  0.00     0.139 C 
HETATM   23  O   UNK N   1      25.467  27.861  -3.012  0.00  0.00    -0.650 OA
BRANCH  22  24
HETATM   24  O   UNK N   1      26.083  29.931  -3.527  0.00  0.00    -0.776 OA
HETATM   25  H   UNK N   1      25.439  30.431  -3.065  0.00  0.00     0.167 HD
ENDBRANCH  22  24
ENDBRANCH  21  22
ENDBRANCH  20  21
ENDBRANCH  19  20
ENDBRANCH  18  19
BRANCH  18  26
HETATM   26  O   UNK N   1      25.177  23.895  -6.240  0.00  0.00    -0.392 OA
HETATM   27  H   UNK N   1      25.158  23.529  -7.138  0.00  0.00     0.210 HD
ENDBRANCH  18  26
ENDBRANCH  17  18
ENDBRANCH   1  16
TORSDOF 17
ENDMDL
MODEL 3
REMARK VINA RESULT:      -5.3      2.377      6.967
REMARK  17 active torsions:
REMARK  status: ('A' for Active; 'I' for Inactive)
REMARK    1  A    between atoms: C_1  and  C_3 
REMARK    2  A    between atoms: C_2  and  C_4 
REMARK    3  A    between atoms: C_3  and  C_5 
REMARK    4  A    between atoms: C_3  and  O_6 
REMARK    5  A    between atoms: C_5  and  C_8 
REMARK    6  A    between atoms: C_7  and  C_9 
REMARK    7  A    between atoms: C_8  and  C_10 
REMARK    8  A    between atoms: C_10  and  C_12 
REMARK    9  A    between atoms: C_11  and  C_13 
REMARK   10  A    between atoms: C_12  and  O_14 
REMARK   11  A    between atoms: C_13  and  C_16 
REMARK   12  A    between atoms: C_13  and  O_17 
REMARK   13  A    between atoms: C_16  and  C_18 
REMARK   14  A    between atoms: C_19  and  C_20 
REMARK   15  A    between atoms: C_20  and  C_21 
REMARK   16  A    between atoms: C_21  and  C_22 
REMARK   17  A    between atoms: C_22  and  C_23 
ROOT
HETATM    1  C   UNK N   1      28.505  23.772  -3.672  0.00  0.00    -0.000 C 
HETATM    2  C   UNK N   1      29.181  23.142  -2.718  0.00  0.00    -0.000 C 
ENDROOT
BRANCH   2   3
HETATM    3  C   UNK N   1      30.608  22.845  -2.771  0.00  0.00    -0.002 C 
HETATM    4  C   UNK N   1      30.935  21.684  -3.329  0.00  0.00     0.005 C 
BRANCH   4   5
HETATM    5  C   UNK N   1      32.307  21.121  -3.273  0.00  0.00     0.144 C 
BRANCH   5   6
HETATM    6  C   UNK N   1      33.183  21.998  -4.157  0.00  0.00     0.062 C 
BRANCH   6   7
HETATM    7  C   UNK N   1      33.044  21.669  -5.617  0.00  0.00    -0.028 C 
HETATM    8  C   UNK N   1      32.495  22.459  -6.554  0.00  0.00    -0.031 C 
BRANCH   8   9
HETATM    9  C   UNK N   1      31.915  23.815  -6.307  0.00  0.00     0.027 C 
BRANCH   9  10
HETATM   10  C   UNK N   1      30.426  23.746  -6.597  0.00  0.00     0.004 C 
BRANCH  10  11
HETATM   11  C   UNK N   1      30.079  22.533  -7.439  0.00  0.00    -0.000 C 
BRANCH  11  12
HETATM   12  C   UNK N   1      28.786  21.931  -6.919  0.00  0.00    -0.005 C 
HETATM   13  C   UNK N   1      28.260  20.901  -7.896  0.00  0.00     0.005 C 
ENDBRANCH  11  12
ENDBRANCH  10  11
ENDBRANCH   9  10
ENDBRANCH   8   9
ENDBRANCH   6   7
ENDBRANCH   5   6
BRANCH   5  14
HETATM   14  O   UNK N   1      32.770  21.198  -1.959  0.00  0.00    -0.391 OA
HETATM   15  H   UNK N   1      33.165  22.013  -1.613  0.00  0.00     0.210 HD
ENDBRANCH   5  14
ENDBRANCH   4   5
ENDBRANCH   2   3
BRANCH   1  16
HETATM   16  C   UNK N   1      27.136  24.157  -3.315  0.00  0.00    -0.002 C 
HETATM   17  C   UNK N   1      26.138  24.425  -4.156  0.00  0.00     0.004 C 
BRANCH  17  18
HETATM   18  C   UNK N   1      26.165  24.279  -5.639  0.00  0.00     0.141 C 
BRANCH  18  19
HETATM   19  C   UNK N   1      25.565  25.575  -6.167  0.00  0.00     0.036 C 
BRANCH  19  20
HETATM   20  C   UNK N   1      26.290  26.831  -5.724  0.00  0.00     0.013 C 
BRANCH  20  21
HETATM   21  C   UNK N   1      25.269  27.752  -5.067  0.00  0.00     0.110 C 
BRANCH  21  22
HETATM   22  C   UNK N   1      25.714  28.333  -3.757  0.00  0.00     0.139 C 
HETATM   23  O   UNK N   1      25.888  27.623  -2.777  0.00  0.00    -0.650 OA
BRANCH  22  24
HETATM   24  O   UNK N   1      25.921  29.660  -3.661  0.00  0.00    -0.776 OA
HETATM   25  H   UNK N   1      26.025  30.087  -2.834  0.00  0.00     0.167 HD
ENDBRANCH  22  24
ENDBRANCH  21  22
ENDBRANCH  20  21
ENDBRANCH  19  20
ENDBRANCH  18  19
BRANCH  18  26
HETATM   26  O   UNK N   1      25.353  23.196  -5.990  0.00  0.00    -0.392 OA
HETATM   27  H   UNK N   1      25.147  23.006  -6.918  0.00  0.00     0.210 HD
ENDBRANCH  18  26
ENDBRANCH  17  18
ENDBRANCH   1  16
TORSDOF 17
ENDMDL
MODEL 4
REMARK VINA RESULT:      -5.3      1.887      3.834
REMARK  17 active torsions:
REMARK  status: ('A' for Active; 'I' for Inactive)
REMARK    1  A    between atoms: C_1  and  C_3 
REMARK    2  A    between atoms: C_2  and  C_4 
REMARK    3  A    between atoms: C_3  and  C_5 
REMARK    4  A    between atoms: C_3  and  O_6 
REMARK    5  A    between atoms: C_5  and  C_8 
REMARK    6  A    between atoms: C_7  and  C_9 
REMARK    7  A    between atoms: C_8  and  C_10 
REMARK    8  A    between atoms: C_10  and  C_12 
REMARK    9  A    between atoms: C_11  and  C_13 
REMARK   10  A    between atoms: C_12  and  O_14 
REMARK   11  A    between atoms: C_13  and  C_16 
REMARK   12  A    between atoms: C_13  and  O_17 
REMARK   13  A    between atoms: C_16  and  C_18 
REMARK   14  A    between atoms: C_19  and  C_20 
REMARK   15  A    between atoms: C_20  and  C_21 
REMARK   16  A    between atoms: C_21  and  C_22 
REMARK   17  A    between atoms: C_22  and  C_23 
ROOT
HETATM    1  C   UNK N   1      27.879  24.009  -3.726  0.00  0.00    -0.000 C 
HETATM    2  C   UNK N   1      26.585  24.268  -3.867  0.00  0.00    -0.000 C 
ENDROOT
BRANCH   2   3
HETATM    3  C   UNK N   1      25.932  24.560  -5.138  0.00  0.00    -0.002 C 
HETATM    4  C   UNK N   1      26.371  23.869  -6.185  0.00  0.00     0.005 C 
BRANCH   4   5
HETATM    5  C   UNK N   1      25.982  24.187  -7.581  0.00  0.00     0.144 C 
BRANCH   5   6
HETATM    6  C   UNK N   1      25.857  25.702  -7.673  0.00  0.00     0.062 C 
BRANCH   6   7
HETATM    7  C   UNK N   1      27.014  26.334  -8.396  0.00  0.00    -0.028 C 
HETATM    8  C   UNK N   1      27.766  27.350  -7.943  0.00  0.00    -0.031 C 
BRANCH   8   9
HETATM    9  C   UNK N   1      27.582  28.041  -6.629  0.00  0.00     0.027 C 
BRANCH   9  10
HETATM   10  C   UNK N   1      28.403  27.296  -5.591  0.00  0.00     0.004 C 
BRANCH  10  11
HETATM   11  C   UNK N   1      28.066  27.752  -4.184  0.00  0.00    -0.000 C 
BRANCH  11  12
HETATM   12  C   UNK N   1      26.791  28.575  -4.230  0.00  0.00    -0.005 C 
HETATM   13  C   UNK N   1      25.684  27.865  -3.479  0.00  0.00     0.005 C 
ENDBRANCH  11  12
ENDBRANCH  10  11
ENDBRANCH   9  10
ENDBRANCH   8   9
ENDBRANCH   6   7
ENDBRANCH   5   6
BRANCH   5  14
HETATM   14  O   UNK N   1      26.998  23.764  -8.438  0.00  0.00    -0.391 OA
HETATM   15  H   UNK N   1      27.470  24.393  -9.006  0.00  0.00     0.210 HD
ENDBRANCH   5  14
ENDBRANCH   4   5
ENDBRANCH   2   3
BRANCH   1  16
HETATM   16  C   UNK N   1      28.277  23.528  -2.399  0.00  0.00    -0.002 C 
HETATM   17  C   UNK N   1      29.396  22.873  -2.091  0.00  0.00     0.004 C 
BRANCH  17  18
HETATM   18  C   UNK N   1      30.538  22.590  -3.006  0.00  0.00     0.141 C 
BRANCH  18  19
HETATM   19  C   UNK N   1      30.144  21.312  -3.733  0.00  0.00     0.036 C 
BRANCH  19  20
HETATM   20  C   UNK N   1      30.621  21.233  -5.170  0.00  0.00     0.013 C 
BRANCH  20  21
HETATM   21  C   UNK N   1      29.516  21.791  -6.060  0.00  0.00     0.110 C 
BRANCH  21  22
HETATM   22  C   UNK N   1      29.165  20.918  -7.229  0.00  0.00     0.139 C 
HETATM   23  O   UNK N   1      28.554  21.364  -8.190  0.00  0.00    -0.650 OA
BRANCH  22  24
HETATM   24  O   UNK N   1      29.526  19.621  -7.215  0.00  0.00    -0.776 OA
HETATM   25  H   UNK N   1      30.425  19.358  -7.176  0.00  0.00     0.167 HD
ENDBRANCH  22  24
ENDBRANCH  21  22
ENDBRANCH  20  21
ENDBRANCH  19  20
ENDBRANCH  18  19
BRANCH  18  26
HETATM   26  O   UNK N   1      31.680  22.369  -2.230  0.00  0.00    -0.392 OA
HETATM   27  H   UNK N   1      31.722  21.630  -1.602  0.00  0.00     0.210 HD
ENDBRANCH  18  26
ENDBRANCH  17  18
ENDBRANCH   1  16
TORSDOF 17
ENDMDL
MODEL 5
REMARK VINA RESULT:      -5.3      2.452      6.576
REMARK  17 active torsions:
REMARK  status: ('A' for Active; 'I' for Inactive)
REMARK    1  A    between atoms: C_1  and  C_3 
REMARK    2  A    between atoms: C_2  and  C_4 
REMARK    3  A    between atoms: C_3  and  C_5 
REMARK    4  A    between atoms: C_3  and  O_6 
REMARK    5  A    between atoms: C_5  and  C_8 
REMARK    6  A    between atoms: C_7  and  C_9 
REMARK    7  A    between atoms: C_8  and  C_10 
REMARK    8  A    between atoms: C_10  and  C_12 
REMARK    9  A    between atoms: C_11  and  C_13 
REMARK   10  A    between atoms: C_12  and  O_14 
REMARK   11  A    between atoms: C_13  and  C_16 
REMARK   12  A    between atoms: C_13  and  O_17 
REMARK   13  A    between atoms: C_16  and  C_18 
REMARK   14  A    between atoms: C_19  and  C_20 
REMARK   15  A    between atoms: C_20  and  C_21 
REMARK   16  A    between atoms: C_21  and  C_22 
REMARK   17  A    between atoms: C_22  and  C_23 
ROOT
HETATM    1  C   UNK N   1      28.993  26.794  -4.839  0.00  0.00    -0.000 C 
HETATM    2  C   UNK N   1      29.083  26.236  -6.040  0.00  0.00    -0.000 C 
ENDROOT
BRANCH   2   3
HETATM    3  C   UNK N   1      29.473  24.852  -6.285  0.00  0.00    -0.002 C 
HETATM    4  C   UNK N   1      28.896  24.267  -7.329  0.00  0.00     0.005 C 
BRANCH   4   5
HETATM    5  C   UNK N   1      29.003  22.811  -7.597  0.00  0.00     0.144 C 
BRANCH   5   6
HETATM    6  C   UNK N   1      29.040  22.112  -6.244  0.00  0.00     0.062 C 
BRANCH   6   7
HETATM    7  C   UNK N   1      30.197  21.161  -6.117  0.00  0.00    -0.028 C 
HETATM    8  C   UNK N   1      30.807  20.811  -4.972  0.00  0.00    -0.031 C 
BRANCH   8   9
HETATM    9  C   UNK N   1      30.443  21.313  -3.612  0.00  0.00     0.027 C 
BRANCH   9  10
HETATM   10  C   UNK N   1      31.227  22.589  -3.360  0.00  0.00     0.004 C 
BRANCH  10  11
HETATM   11  C   UNK N   1      30.332  23.699  -2.845  0.00  0.00    -0.000 C 
BRANCH  11  12
HETATM   12  C   UNK N   1      29.003  23.099  -2.422  0.00  0.00    -0.005 C 
HETATM   13  C   UNK N   1      27.859  23.886  -3.025  0.00  0.00     0.005 C 
ENDBRANCH  11  12
ENDBRANCH  10  11
ENDBRANCH   9  10
ENDBRANCH   8   9
ENDBRANCH   6   7
ENDBRANCH   5   6
BRANCH   5  14
HETATM   14  O   UNK N   1      27.864  22.397  -8.288  0.00  0.00    -0.391 OA
HETATM   15  H   UNK N   1      27.319  21.663  -7.963  0.00  0.00     0.210 HD
ENDBRANCH   5  14
ENDBRANCH   4   5
ENDBRANCH   2   3
BRANCH   1  16
HETATM   16  C   UNK N   1      28.374  28.123  -4.814  0.00  0.00    -0.002 C 
HETATM   17  C   UNK N   1      27.099  28.404  -4.546  0.00  0.00     0.004 C 
BRANCH  17  18
HETATM   18  C   UNK N   1      26.053  27.440  -4.100  0.00  0.00     0.141 C 
BRANCH  18  19
HETATM   19  C   UNK N   1      25.036  27.420  -5.233  0.00  0.00     0.036 C 
BRANCH  19  20
HETATM   20  C   UNK N   1      25.370  26.466  -6.363  0.00  0.00     0.013 C 
BRANCH  20  21
HETATM   21  C   UNK N   1      25.614  25.090  -5.756  0.00  0.00     0.110 C 
BRANCH  21  22
HETATM   22  C   UNK N   1      25.441  23.951  -6.718  0.00  0.00     0.139 C 
HETATM   23  O   UNK N   1      25.307  24.151  -7.917  0.00  0.00    -0.650 OA
BRANCH  22  24
HETATM   24  O   UNK N   1      25.430  22.689  -6.250  0.00  0.00    -0.776 OA
HETATM   25  H   UNK N   1      26.196  22.289  -5.886  0.00  0.00     0.167 HD
ENDBRANCH  22  24
ENDBRANCH  21  22
ENDBRANCH  20  21
ENDBRANCH  19  20
ENDBRANCH  18  19
BRANCH  18  26
HETATM   26  O   UNK N   1      25.464  27.937  -2.934  0.00  0.00    -0.392 OA
HETATM   27  H   UNK N   1      25.005  28.792  -2.932  0.00  0.00     0.210 HD
ENDBRANCH  18  26
ENDBRANCH  17  18
ENDBRANCH   1  16
TORSDOF 17
ENDMDL
MODEL 6
REMARK VINA RESULT:      -5.2      1.874      3.677
REMARK  17 active torsions:
REMARK  status: ('A' for Active; 'I' for Inactive)
REMARK    1  A    between atoms: C_1  and  C_3 
REMARK    2  A    between atoms: C_2  and  C_4 
REMARK    3  A    between atoms: C_3  and  C_5 
REMARK    4  A    between atoms: C_3  and  O_6 
REMARK    5  A    between atoms: C_5  and  C_8 
REMARK    6  A    between atoms: C_7  and  C_9 
REMARK    7  A    between atoms: C_8  and  C_10 
REMARK    8  A    between atoms: C_10  and  C_12 
REMARK    9  A    between atoms: C_11  and  C_13 
REMARK   10  A    between atoms: C_12  and  O_14 
REMARK   11  A    between atoms: C_13  and  C_16 
REMARK   12  A    between atoms: C_13  and  O_17 
REMARK   13  A    between atoms: C_16  and  C_18 
REMARK   14  A    between atoms: C_19  and  C_20 
REMARK   15  A    between atoms: C_20  and  C_21 
REMARK   16  A    between atoms: C_21  and  C_22 
REMARK   17  A    between atoms: C_22  and  C_23 
ROOT
HETATM    1  C   UNK N   1      29.712  23.766  -3.184  0.00  0.00    -0.000 C 
HETATM    2  C   UNK N   1      28.409  23.740  -2.932  0.00  0.00    -0.000 C 
ENDROOT
BRANCH   2   3
HETATM    3  C   UNK N   1      27.408  24.511  -3.660  0.00  0.00    -0.002 C 
HETATM    4  C   UNK N   1      26.493  23.799  -4.310  0.00  0.00     0.005 C 
BRANCH   4   5
HETATM    5  C   UNK N   1      25.539  24.400  -5.274  0.00  0.00     0.144 C 
BRANCH   5   6
HETATM    6  C   UNK N   1      26.234  25.608  -5.891  0.00  0.00     0.062 C 
BRANCH   6   7
HETATM    7  C   UNK N   1      25.320  26.794  -6.025  0.00  0.00    -0.028 C 
HETATM    8  C   UNK N   1      25.092  27.723  -5.083  0.00  0.00    -0.031 C 
BRANCH   8   9
HETATM    9  C   UNK N   1      25.708  27.739  -3.720  0.00  0.00     0.027 C 
BRANCH   9  10
HETATM   10  C   UNK N   1      27.018  28.502  -3.809  0.00  0.00     0.004 C 
BRANCH  10  11
HETATM   11  C   UNK N   1      26.857  29.794  -4.587  0.00  0.00    -0.000 C 
BRANCH  11  12
HETATM   12  C   UNK N   1      28.128  30.050  -5.376  0.00  0.00    -0.005 C 
HETATM   13  C   UNK N   1      28.144  29.203  -6.630  0.00  0.00     0.005 C 
ENDBRANCH  11  12
ENDBRANCH  10  11
ENDBRANCH   9  10
ENDBRANCH   8   9
ENDBRANCH   6   7
ENDBRANCH   5   6
BRANCH   5  14
HETATM   14  O   UNK N   1      25.270  23.472  -6.279  0.00  0.00    -0.391 OA
HETATM   15  H   UNK N   1      25.231  23.737  -7.212  0.00  0.00     0.210 HD
ENDBRANCH   5  14
ENDBRANCH   4   5
ENDBRANCH   2   3
BRANCH   1  16
HETATM   16  C   UNK N   1      30.504  22.753  -2.479  0.00  0.00    -0.002 C 
HETATM   17  C   UNK N   1      31.325  21.859  -3.028  0.00  0.00     0.004 C 
BRANCH  17  18
HETATM   18  C   UNK N   1      31.707  21.772  -4.466  0.00  0.00     0.141 C 
BRANCH  18  19
HETATM   19  C   UNK N   1      30.645  20.878  -5.095  0.00  0.00     0.036 C 
BRANCH  19  20
HETATM   20  C   UNK N   1      30.269  21.251  -6.515  0.00  0.00     0.013 C 
BRANCH  20  21
HETATM   21  C   UNK N   1      28.965  22.037  -6.463  0.00  0.00     0.110 C 
BRANCH  21  22
HETATM   22  C   UNK N   1      28.037  21.771  -7.612  0.00  0.00     0.139 C 
HETATM   23  O   UNK N   1      27.867  20.638  -8.039  0.00  0.00    -0.650 OA
BRANCH  22  24
HETATM   24  O   UNK N   1      27.384  22.801  -8.183  0.00  0.00    -0.776 OA
HETATM   25  H   UNK N   1      26.449  22.861  -8.176  0.00  0.00     0.167 HD
ENDBRANCH  22  24
ENDBRANCH  21  22
ENDBRANCH  20  21
ENDBRANCH  19  20
ENDBRANCH  18  19
BRANCH  18  26
HETATM   26  O   UNK N   1      32.961  21.161  -4.553  0.00  0.00    -0.392 OA
HETATM   27  H   UNK N   1      33.469  20.948  -3.755  0.00  0.00     0.210 HD
ENDBRANCH  18  26
ENDBRANCH  17  18
ENDBRANCH   1  16
TORSDOF 17
ENDMDL
MODEL 7
REMARK VINA RESULT:      -5.2     14.314     17.333
REMARK  17 active torsions:
REMARK  status: ('A' for Active; 'I' for Inactive)
REMARK    1  A    between atoms: C_1  and  C_3 
REMARK    2  A    between atoms: C_2  and  C_4 
REMARK    3  A    between atoms: C_3  and  C_5 
REMARK    4  A    between atoms: C_3  and  O_6 
REMARK    5  A    between atoms: C_5  and  C_8 
REMARK    6  A    between atoms: C_7  and  C_9 
REMARK    7  A    between atoms: C_8  and  C_10 
REMARK    8  A    between atoms: C_10  and  C_12 
REMARK    9  A    between atoms: C_11  and  C_13 
REMARK   10  A    between atoms: C_12  and  O_14 
REMARK   11  A    between atoms: C_13  and  C_16 
REMARK   12  A    between atoms: C_13  and  O_17 
REMARK   13  A    between atoms: C_16  and  C_18 
REMARK   14  A    between atoms: C_19  and  C_20 
REMARK   15  A    between atoms: C_20  and  C_21 
REMARK   16  A    between atoms: C_21  and  C_22 
REMARK   17  A    between atoms: C_22  and  C_23 
ROOT
HETATM    1  C   UNK N   1      21.136  15.342   8.777  0.00  0.00    -0.000 C 
HETATM    2  C   UNK N   1      20.376  14.421   9.358  0.00  0.00    -0.000 C 
ENDROOT
BRANCH   2   3
HETATM    3  C   UNK N   1      20.885  13.247  10.057  0.00  0.00    -0.002 C 
HETATM    4  C   UNK N   1      22.190  13.246  10.310  0.00  0.00     0.005 C 
BRANCH   4   5
HETATM    5  C   UNK N   1      22.913  12.051  10.810  0.00  0.00     0.144 C 
BRANCH   5   6
HETATM    6  C   UNK N   1      23.994  11.726   9.787  0.00  0.00     0.062 C 
BRANCH   6   7
HETATM    7  C   UNK N   1      24.743  12.947   9.331  0.00  0.00    -0.028 C 
HETATM    8  C   UNK N   1      24.755  13.444   8.083  0.00  0.00    -0.031 C 
BRANCH   8   9
HETATM    9  C   UNK N   1      24.021  12.862   6.916  0.00  0.00     0.027 C 
BRANCH   9  10
HETATM   10  C   UNK N   1      23.430  14.011   6.117  0.00  0.00     0.004 C 
BRANCH  10  11
HETATM   11  C   UNK N   1      24.017  15.343   6.542  0.00  0.00    -0.000 C 
BRANCH  11  12
HETATM   12  C   UNK N   1      24.365  16.142   5.300  0.00  0.00    -0.005 C 
HETATM   13  C   UNK N   1      23.895  15.411   4.060  0.00  0.00     0.005 C 
ENDBRANCH  11  12
ENDBRANCH  10  11
ENDBRANCH   9  10
ENDBRANCH   8   9
ENDBRANCH   6   7
ENDBRANCH   5   6
BRANCH   5  14
HETATM   14  O   UNK N   1      23.521  12.370  12.024  0.00  0.00    -0.391 OA
HETATM   15  H   UNK N   1      24.484  12.477  12.091  0.00  0.00     0.210 HD
ENDBRANCH   5  14
ENDBRANCH   4   5
ENDBRANCH   2   3
BRANCH   1  16
HETATM   16  C   UNK N   1      20.426  16.543   8.327  0.00  0.00    -0.002 C 
HETATM   17  C   UNK N   1      20.098  16.853   7.073  0.00  0.00     0.004 C 
BRANCH  17  18
HETATM   18  C   UNK N   1      20.279  15.991   5.871  0.00  0.00     0.141 C 
BRANCH  18  19
HETATM   19  C   UNK N   1      20.475  16.969   4.720  0.00  0.00     0.036 C 
BRANCH  19  20
HETATM   20  C   UNK N   1      21.297  18.194   5.067  0.00  0.00     0.013 C 
BRANCH  20  21
HETATM   21  C   UNK N   1      21.974  18.679   3.791  0.00  0.00     0.110 C 
BRANCH  21  22
HETATM   22  C   UNK N   1      21.455  19.991   3.277  0.00  0.00     0.139 C 
HETATM   23  O   UNK N   1      22.009  20.572   2.354  0.00  0.00    -0.650 OA
BRANCH  22  24
HETATM   24  O   UNK N   1      20.365  20.537   3.847  0.00  0.00    -0.776 OA
HETATM   25  H   UNK N   1      20.036  20.240   4.673  0.00  0.00     0.167 HD
ENDBRANCH  22  24
ENDBRANCH  21  22
ENDBRANCH  20  21
ENDBRANCH  19  20
ENDBRANCH  18  19
BRANCH  18  26
HETATM   26  O   UNK N   1      19.109  15.251   5.679  0.00  0.00    -0.392 OA
HETATM   27  H   UNK N   1      18.953  14.428   6.167  0.00  0.00     0.210 HD
ENDBRANCH  18  26
ENDBRANCH  17  18
ENDBRANCH   1  16
TORSDOF 17
ENDMDL
MODEL 8
REMARK VINA RESULT:      -5.2     14.591     17.636
REMARK  17 active torsions:
REMARK  status: ('A' for Active; 'I' for Inactive)
REMARK    1  A    between atoms: C_1  and  C_3 
REMARK    2  A    between atoms: C_2  and  C_4 
REMARK    3  A    between atoms: C_3  and  C_5 
REMARK    4  A    between atoms: C_3  and  O_6 
REMARK    5  A    between atoms: C_5  and  C_8 
REMARK    6  A    between atoms: C_7  and  C_9 
REMARK    7  A    between atoms: C_8  and  C_10 
REMARK    8  A    between atoms: C_10  and  C_12 
REMARK    9  A    between atoms: C_11  and  C_13 
REMARK   10  A    between atoms: C_12  and  O_14 
REMARK   11  A    between atoms: C_13  and  C_16 
REMARK   12  A    between atoms: C_13  and  O_17 
REMARK   13  A    between atoms: C_16  and  C_18 
REMARK   14  A    between atoms: C_19  and  C_20 
REMARK   15  A    between atoms: C_20  and  C_21 
REMARK   16  A    between atoms: C_21  and  C_22 
REMARK   17  A    between atoms: C_22  and  C_23 
ROOT
HETATM    1  C   UNK N   1      20.955  15.166   7.118  0.00  0.00    -0.000 C 
HETATM    2  C   UNK N   1      20.842  14.856   8.405  0.00  0.00    -0.000 C 
ENDROOT
BRANCH   2   3
HETATM    3  C   UNK N   1      21.037  13.520   8.956  0.00  0.00    -0.002 C 
HETATM    4  C   UNK N   1      21.573  13.470  10.171  0.00  0.00     0.005 C 
BRANCH   4   5
HETATM    5  C   UNK N   1      22.043  12.207  10.793  0.00  0.00     0.144 C 
BRANCH   5   6
HETATM    6  C   UNK N   1      23.075  11.605   9.849  0.00  0.00     0.062 C 
BRANCH   6   7
HETATM    7  C   UNK N   1      24.448  12.185  10.047  0.00  0.00    -0.028 C 
HETATM    8  C   UNK N   1      25.053  13.071   9.240  0.00  0.00    -0.031 C 
BRANCH   8   9
HETATM    9  C   UNK N   1      24.464  13.639   7.987  0.00  0.00     0.027 C 
BRANCH   9  10
HETATM   10  C   UNK N   1      24.607  12.597   6.891  0.00  0.00     0.004 C 
BRANCH  10  11
HETATM   11  C   UNK N   1      23.330  12.462   6.084  0.00  0.00    -0.000 C 
BRANCH  11  12
HETATM   12  C   UNK N   1      22.822  11.037   6.207  0.00  0.00    -0.005 C 
HETATM   13  C   UNK N   1      23.948  10.116   6.628  0.00  0.00     0.005 C 
ENDBRANCH  11  12
ENDBRANCH  10  11
ENDBRANCH   9  10
ENDBRANCH   8   9
ENDBRANCH   6   7
ENDBRANCH   5   6
BRANCH   5  14
HETATM   14  O   UNK N   1      22.661  12.508  12.007  0.00  0.00    -0.391 OA
HETATM   15  H   UNK N   1      22.253  12.263  12.852  0.00  0.00     0.210 HD
ENDBRANCH   5  14
ENDBRANCH   4   5
ENDBRANCH   2   3
BRANCH   1  16
HETATM   16  C   UNK N   1      20.934  16.601   6.819  0.00  0.00    -0.002 C 
HETATM   17  C   UNK N   1      20.663  17.166   5.643  0.00  0.00     0.004 C 
BRANCH  17  18
HETATM   18  C   UNK N   1      20.207  16.468   4.408  0.00  0.00     0.141 C 
BRANCH  18  19
HETATM   19  C   UNK N   1      20.815  17.268   3.264  0.00  0.00     0.036 C 
BRANCH  19  20
HETATM   20  C   UNK N   1      19.862  18.242   2.600  0.00  0.00     0.013 C 
BRANCH  20  21
HETATM   21  C   UNK N   1      20.688  19.383   2.020  0.00  0.00     0.110 C 
BRANCH  21  22
HETATM   22  C   UNK N   1      20.843  20.562   2.938  0.00  0.00     0.139 C 
HETATM   23  O   UNK N   1      20.227  20.628   3.991  0.00  0.00    -0.650 OA
BRANCH  22  24
HETATM   24  O   UNK N   1      21.673  21.562   2.589  0.00  0.00    -0.776 OA
HETATM   25  H   UNK N   1      22.321  21.459   1.920  0.00  0.00     0.167 HD
ENDBRANCH  22  24
ENDBRANCH  21  22
ENDBRANCH  20  21
ENDBRANCH  19  20
ENDBRANCH  18  19
BRANCH  18  26
HETATM   26  O   UNK N   1      18.812  16.536   4.353  0.00  0.00    -0.392 OA
HETATM   27  H   UNK N   1      18.362  17.343   4.058  0.00  0.00     0.210 HD
ENDBRANCH  18  26
ENDBRANCH  17  18
ENDBRANCH   1  16
TORSDOF 17
ENDMDL
MODEL 9
REMARK VINA RESULT:      -5.1     10.571     12.698
REMARK  17 active torsions:
REMARK  status: ('A' for Active; 'I' for Inactive)
REMARK    1  A    between atoms: C_1  and  C_3 
REMARK    2  A    between atoms: C_2  and  C_4 
REMARK    3  A    between atoms: C_3  and  C_5 
REMARK    4  A    between atoms: C_3  and  O_6 
REMARK    5  A    between atoms: C_5  and  C_8 
REMARK    6  A    between atoms: C_7  and  C_9 
REMARK    7  A    between atoms: C_8  and  C_10 
REMARK    8  A    between atoms: C_10  and  C_12 
REMARK    9  A    between atoms: C_11  and  C_13 
REMARK   10  A    between atoms: C_12  and  O_14 
REMARK   11  A    between atoms: C_13  and  C_16 
REMARK   12  A    between atoms: C_13  and  O_17 
REMARK   13  A    between atoms: C_16  and  C_18 
REMARK   14  A    between atoms: C_19  and  C_20 
REMARK   15  A    between atoms: C_20  and  C_21 
REMARK   16  A    between atoms: C_21  and  C_22 
REMARK   17  A    between atoms: C_22  and  C_23 
ROOT
HETATM    1  C   UNK N   1      25.577  19.379   3.420  0.00  0.00    -0.000 C 
HETATM    2  C   UNK N   1      24.534  20.201   3.431  0.00  0.00    -0.000 C 
ENDROOT
BRANCH   2   3
HETATM    3  C   UNK N   1      23.157  19.796   3.172  0.00  0.00    -0.002 C 
HETATM    4  C   UNK N   1      22.351  20.751   2.719  0.00  0.00     0.005 C 
BRANCH   4   5
HETATM    5  C   UNK N   1      20.881  20.580   2.610  0.00  0.00     0.144 C 
BRANCH   5   6
HETATM    6  C   UNK N   1      20.637  19.185   2.050  0.00  0.00     0.062 C 
BRANCH   6   7
HETATM    7  C   UNK N   1      19.804  18.332   2.966  0.00  0.00    -0.028 C 
HETATM    8  C   UNK N   1      20.034  17.044   3.270  0.00  0.00    -0.031 C 
BRANCH   8   9
HETATM    9  C   UNK N   1      21.167  16.223   2.742  0.00  0.00     0.027 C 
BRANCH   9  10
HETATM   10  C   UNK N   1      20.684  15.513   1.488  0.00  0.00     0.004 C 
BRANCH  10  11
HETATM   11  C   UNK N   1      19.621  14.480   1.809  0.00  0.00    -0.000 C 
BRANCH  11  12
HETATM   12  C   UNK N   1      18.904  14.102   0.526  0.00  0.00    -0.005 C 
HETATM   13  C   UNK N   1      18.543  15.347  -0.256  0.00  0.00     0.005 C 
ENDBRANCH  11  12
ENDBRANCH  10  11
ENDBRANCH   9  10
ENDBRANCH   8   9
ENDBRANCH   6   7
ENDBRANCH   5   6
BRANCH   5  14
HETATM   14  O   UNK N   1      20.325  20.659   3.887  0.00  0.00    -0.391 OA
HETATM   15  H   UNK N   1      19.772  21.412   4.149  0.00  0.00     0.210 HD
ENDBRANCH   5  14
ENDBRANCH   4   5
ENDBRANCH   2   3
BRANCH   1  16
HETATM   16  C   UNK N   1      26.829  19.954   3.921  0.00  0.00    -0.002 C 
HETATM   17  C   UNK N   1      27.890  19.286   4.373  0.00  0.00     0.004 C 
BRANCH  17  18
HETATM   18  C   UNK N   1      28.078  17.807   4.357  0.00  0.00     0.141 C 
BRANCH  18  19
HETATM   19  C   UNK N   1      28.881  17.506   5.616  0.00  0.00     0.036 C 
BRANCH  19  20
HETATM   20  C   UNK N   1      28.566  18.406   6.794  0.00  0.00     0.013 C 
BRANCH  20  21
HETATM   21  C   UNK N   1      29.365  17.905   7.991  0.00  0.00     0.110 C 
BRANCH  21  22
HETATM   22  C   UNK N   1      28.789  18.290   9.323  0.00  0.00     0.139 C 
HETATM   23  O   UNK N   1      29.496  18.746  10.209  0.00  0.00    -0.650 OA
BRANCH  22  24
HETATM   24  O   UNK N   1      27.471  18.125   9.543  0.00  0.00    -0.776 OA
HETATM   25  H   UNK N   1      26.998  17.394   9.196  0.00  0.00     0.167 HD
ENDBRANCH  22  24
ENDBRANCH  21  22
ENDBRANCH  20  21
ENDBRANCH  19  20
ENDBRANCH  18  19
BRANCH  18  26
HETATM   26  O   UNK N   1      28.820  17.470   3.222  0.00  0.00    -0.392 OA
HETATM   27  H   UNK N   1      28.628  16.661   2.722  0.00  0.00     0.210 HD
ENDBRANCH  18  26
ENDBRANCH  17  18
ENDBRANCH   1  16
TORSDOF 17
ENDMDL
