MODEL 1
REMARK VINA RESULT:      -8.0      0.000      0.000
REMARK  4 active torsions:
REMARK  status: ('A' for Active; 'I' for Inactive)
REMARK    1  A    between atoms: C_2  and  C_4 
REMARK    2  A    between atoms: C_6  and  O_12 
REMARK    3  A    between atoms: O_12  and  C_13 
REMARK    4  A    between atoms: C_16  and  N_20 
ROOT
HETATM    1  N   UNK N   1      22.376  18.438   4.518  0.00  0.00    -0.204 N 
HETATM    2  C   UNK N   1      23.740  18.565   4.653  0.00  0.00     0.348 A 
HETATM    3  O   UNK N   1      24.364  17.897   5.461  0.00  0.00    -0.245 OA
HETATM    4  N   UNK N   1      24.404  19.435   3.833  0.00  0.00    -0.271 N 
HETATM    5  C   UNK N   1      23.710  20.191   2.920  0.00  0.00     0.288 A 
HETATM    6  O   UNK N   1      24.311  20.918   2.153  0.00  0.00    -0.265 OA
HETATM    7  C   UNK N   1      22.318  20.109   2.884  0.00  0.00     0.197 A 
HETATM    8  N   UNK N   1      21.716  19.231   3.680  0.00  0.00    -0.275 N 
ATOM      9  HN  UNK N   1      20.700  19.162   3.647  1.00  0.00     0.188 HD
HETATM   10  C   UNK N   1      21.474  20.881   2.019  0.00  0.00     0.125 C 
HETATM   11  N   UNK N   1      20.728  21.464   1.354  0.00  0.00    -0.190 NA
HETATM   12  H   UNK N   1      25.383  19.519   3.897  0.00  0.00     0.174 HD
ENDROOT
BRANCH   1  13
HETATM   13  C   UNK N   1      21.582  17.485   5.200  0.00  0.00     0.065 C 
HETATM   14  C   UNK N   1      21.268  16.235   4.673  0.00  0.00     0.058 C 
HETATM   15  C   UNK N   1      20.622  15.312   5.473  0.00  0.00     0.071 C 
HETATM   16  C   UNK N   1      20.311  15.639   6.797  0.00  0.00     0.121 C 
HETATM   17 Cl   UNK N   1      20.219  13.735   4.819  0.00  0.00    -0.081 Cl
HETATM   18  C   UNK N   1      20.432  16.994   7.237  0.00  0.00     0.071 C 
HETATM   19  C   UNK N   1      21.088  17.863   6.437  0.00  0.00     0.058 C 
HETATM   20 Cl   UNK N   1      19.773  17.738   8.706  0.00  0.00    -0.081 Cl
BRANCH  16  21
HETATM   21  O   UNK N   1      19.917  14.638   7.591  0.00  0.00    -0.289 OA
BRANCH  21  22
HETATM   22  C   UNK N   1      20.619  14.228   8.652  0.00  0.00     0.163 C 
HETATM   23  C   UNK N   1      21.917  13.930   8.433  0.00  0.00     0.071 C 
HETATM   24  C   UNK N   1      22.603  13.152   9.327  0.00  0.00     0.019 C 
HETATM   25  C   UNK N   1      21.919  12.671  10.465  0.00  0.00     0.266 C 
HETATM   26  N   UNK N   1      20.660  13.144  10.729  0.00  0.00    -0.264 N 
HETATM   27  O   UNK N   1      22.428  11.858  11.214  0.00  0.00    -0.266 OA
HETATM   28  N   UNK N   1      20.036  13.927   9.850  0.00  0.00    -0.277 N 
HETATM   29  H   UNK N   1      20.214  12.902  11.573  0.00  0.00     0.190 HD
ATOM     30  HN  UNK N   1      19.117  14.307  10.074  1.00  0.00     0.189 HD
BRANCH  24  31
HETATM   31  C   UNK N   1      24.005  12.820   8.939  0.00  0.00     0.016 C 
HETATM   32  C   UNK N   1      25.198  13.288   9.731  0.00  0.00     0.015 C 
HETATM   33  C   UNK N   1      24.244  11.962   7.699  0.00  0.00     0.015 C 
ENDBRANCH  24  31
ENDBRANCH  21  22
ENDBRANCH  16  21
ENDBRANCH   1  13
TORSDOF 4
ENDMDL
MODEL 2
REMARK VINA RESULT:      -7.9      8.279     11.627
REMARK  4 active torsions:
REMARK  status: ('A' for Active; 'I' for Inactive)
REMARK    1  A    between atoms: C_2  and  C_4 
REMARK    2  A    between atoms: C_6  and  O_12 
REMARK    3  A    between atoms: O_12  and  C_13 
REMARK    4  A    between atoms: C_16  and  N_20 
ROOT
HETATM    1  N   UNK N   1      33.587  16.864   8.293  0.00  0.00    -0.204 N 
HETATM    2  C   UNK N   1      34.445  17.837   8.755  0.00  0.00     0.348 A 
HETATM    3  O   UNK N   1      34.412  18.974   8.315  0.00  0.00    -0.245 OA
HETATM    4  N   UNK N   1      35.321  17.520   9.755  0.00  0.00    -0.271 N 
HETATM    5  C   UNK N   1      35.365  16.242  10.257  0.00  0.00     0.288 A 
HETATM    6  O   UNK N   1      36.103  15.981  11.186  0.00  0.00    -0.265 OA
HETATM    7  C   UNK N   1      34.551  15.260   9.692  0.00  0.00     0.197 A 
HETATM    8  N   UNK N   1      33.695  15.619   8.741  0.00  0.00    -0.275 N 
ATOM      9  HN  UNK N   1      33.092  14.903   8.335  1.00  0.00     0.188 HD
HETATM   10  C   UNK N   1      34.538  13.880  10.086  0.00  0.00     0.125 C 
HETATM   11  N   UNK N   1      34.468  12.756  10.347  0.00  0.00    -0.190 NA
HETATM   12  H   UNK N   1      35.923  18.210  10.117  0.00  0.00     0.174 HD
ENDROOT
BRANCH   1  13
HETATM   13  C   UNK N   1      32.542  17.085   7.363  0.00  0.00     0.065 C 
HETATM   14  C   UNK N   1      32.745  17.144   5.986  0.00  0.00     0.058 C 
HETATM   15  C   UNK N   1      31.648  17.205   5.149  0.00  0.00     0.071 C 
HETATM   16  C   UNK N   1      30.359  17.189   5.691  0.00  0.00     0.121 C 
HETATM   17 Cl   UNK N   1      31.891  17.283   3.413  0.00  0.00    -0.081 Cl
HETATM   18  C   UNK N   1      30.183  17.362   7.099  0.00  0.00     0.071 C 
HETATM   19  C   UNK N   1      31.276  17.275   7.889  0.00  0.00     0.058 C 
HETATM   20 Cl   UNK N   1      28.694  17.745   7.985  0.00  0.00    -0.081 Cl
BRANCH  16  21
HETATM   21  O   UNK N   1      29.346  17.000   4.839  0.00  0.00    -0.289 OA
BRANCH  21  22
HETATM   22  C   UNK N   1      28.373  17.897   4.652  0.00  0.00     0.163 C 
HETATM   23  C   UNK N   1      27.108  17.429   4.699  0.00  0.00     0.071 C 
HETATM   24  C   UNK N   1      26.086  18.154   4.149  0.00  0.00     0.019 C 
HETATM   25  C   UNK N   1      26.392  19.387   3.531  0.00  0.00     0.266 C 
HETATM   26  N   UNK N   1      27.657  19.898   3.663  0.00  0.00    -0.264 N 
HETATM   27  O   UNK N   1      25.556  20.003   2.897  0.00  0.00    -0.266 OA
HETATM   28  N   UNK N   1      28.619  19.174   4.236  0.00  0.00    -0.277 N 
HETATM   29  H   UNK N   1      27.856  20.803   3.333  0.00  0.00     0.190 HD
ATOM     30  HN  UNK N   1      29.546  19.578   4.366  1.00  0.00     0.189 HD
BRANCH  24  31
HETATM   31  C   UNK N   1      24.746  17.499   4.188  0.00  0.00     0.016 C 
HETATM   32  C   UNK N   1      23.577  18.087   4.935  0.00  0.00     0.015 C 
HETATM   33  C   UNK N   1      24.543  16.189   3.431  0.00  0.00     0.015 C 
ENDBRANCH  24  31
ENDBRANCH  21  22
ENDBRANCH  16  21
ENDBRANCH   1  13
TORSDOF 4
ENDMDL
MODEL 3
REMARK VINA RESULT:      -7.8      1.872      2.329
REMARK  4 active torsions:
REMARK  status: ('A' for Active; 'I' for Inactive)
REMARK    1  A    between atoms: C_2  and  C_4 
REMARK    2  A    between atoms: C_6  and  O_12 
REMARK    3  A    between atoms: O_12  and  C_13 
REMARK    4  A    between atoms: C_16  and  N_20 
ROOT
HETATM    1  N   UNK N   1      23.288  17.948   4.385  0.00  0.00    -0.204 N 
HETATM    2  C   UNK N   1      24.624  18.276   4.452  0.00  0.00     0.348 A 
HETATM    3  O   UNK N   1      25.419  17.580   5.062  0.00  0.00    -0.245 OA
HETATM    4  N   UNK N   1      25.064  19.386   3.786  0.00  0.00    -0.271 N 
HETATM    5  C   UNK N   1      24.176  20.175   3.097  0.00  0.00     0.288 A 
HETATM    6  O   UNK N   1      24.581  21.126   2.457  0.00  0.00    -0.265 OA
HETATM    7  C   UNK N   1      22.816  19.868   3.137  0.00  0.00     0.197 A 
HETATM    8  N   UNK N   1      22.436  18.764   3.774  0.00  0.00    -0.275 N 
ATOM      9  HN  UNK N   1      21.444  18.532   3.795  1.00  0.00     0.188 HD
HETATM   10  C   UNK N   1      21.782  20.638   2.507  0.00  0.00     0.125 C 
HETATM   11  N   UNK N   1      20.895  21.203   2.028  0.00  0.00    -0.190 NA
HETATM   12  H   UNK N   1      26.020  19.620   3.801  0.00  0.00     0.174 HD
ENDROOT
BRANCH   1  13
HETATM   13  C   UNK N   1      22.720  16.762   4.908  0.00  0.00     0.065 C 
HETATM   14  C   UNK N   1      22.673  15.562   4.203  0.00  0.00     0.058 C 
HETATM   15  C   UNK N   1      22.244  14.420   4.850  0.00  0.00     0.071 C 
HETATM   16  C   UNK N   1      21.883  14.481   6.199  0.00  0.00     0.121 C 
HETATM   17 Cl   UNK N   1      22.178  12.903   3.971  0.00  0.00    -0.081 Cl
HETATM   18  C   UNK N   1      21.718  15.754   6.829  0.00  0.00     0.071 C 
HETATM   19  C   UNK N   1      22.168  16.846   6.175  0.00  0.00     0.058 C 
HETATM   20 Cl   UNK N   1      20.929  16.125   8.374  0.00  0.00    -0.081 Cl
BRANCH  16  21
HETATM   21  O   UNK N   1      21.716  13.316   6.835  0.00  0.00    -0.289 OA
BRANCH  21  22
HETATM   22  C   UNK N   1      22.585  12.845   7.734  0.00  0.00     0.163 C 
HETATM   23  C   UNK N   1      22.083  12.529   8.946  0.00  0.00     0.071 C 
HETATM   24  C   UNK N   1      22.915  12.417  10.027  0.00  0.00     0.019 C 
HETATM   25  C   UNK N   1      24.296  12.647   9.841  0.00  0.00     0.266 C 
HETATM   26  N   UNK N   1      24.776  12.791   8.566  0.00  0.00    -0.264 N 
HETATM   27  O   UNK N   1      25.061  12.710  10.785  0.00  0.00    -0.266 OA
HETATM   28  N   UNK N   1      23.936  12.862   7.533  0.00  0.00    -0.277 N 
HETATM   29  H   UNK N   1      25.747  12.844   8.411  0.00  0.00     0.190 HD
ATOM     30  HN  UNK N   1      24.304  12.929   6.584  1.00  0.00     0.189 HD
BRANCH  24  31
HETATM   31  C   UNK N   1      22.237  12.146  11.329  0.00  0.00     0.016 C 
HETATM   32  C   UNK N   1      22.998  11.814  12.586  0.00  0.00     0.015 C 
HETATM   33  C   UNK N   1      20.713  12.219  11.396  0.00  0.00     0.015 C 
ENDBRANCH  24  31
ENDBRANCH  21  22
ENDBRANCH  16  21
ENDBRANCH   1  13
TORSDOF 4
ENDMDL
MODEL 4
REMARK VINA RESULT:      -7.8      7.278      9.391
REMARK  4 active torsions:
REMARK  status: ('A' for Active; 'I' for Inactive)
REMARK    1  A    between atoms: C_2  and  C_4 
REMARK    2  A    between atoms: C_6  and  O_12 
REMARK    3  A    between atoms: O_12  and  C_13 
REMARK    4  A    between atoms: C_16  and  N_20 
ROOT
HETATM    1  N   UNK N   1      27.000  19.052   5.724  0.00  0.00    -0.204 N 
HETATM    2  C   UNK N   1      26.857  20.370   5.351  0.00  0.00     0.348 A 
HETATM    3  O   UNK N   1      27.649  21.223   5.714  0.00  0.00    -0.245 OA
HETATM    4  N   UNK N   1      25.822  20.711   4.526  0.00  0.00    -0.271 N 
HETATM    5  C   UNK N   1      24.924  19.757   4.111  0.00  0.00     0.288 A 
HETATM    6  O   UNK N   1      24.042  20.053   3.330  0.00  0.00    -0.265 OA
HETATM    7  C   UNK N   1      25.044  18.453   4.593  0.00  0.00     0.197 A 
HETATM    8  N   UNK N   1      26.081  18.160   5.372  0.00  0.00    -0.275 N 
ATOM      9  HN  UNK N   1      26.176  17.205   5.716  1.00  0.00     0.188 HD
HETATM   10  C   UNK N   1      24.146  17.379   4.282  0.00  0.00     0.125 C 
HETATM   11  N   UNK N   1      23.469  16.463   4.078  0.00  0.00    -0.190 NA
HETATM   12  H   UNK N   1      25.719  21.643   4.227  0.00  0.00     0.174 HD
ENDROOT
BRANCH   1  13
HETATM   13  C   UNK N   1      28.094  18.536   6.459  0.00  0.00     0.065 C 
HETATM   14  C   UNK N   1      28.338  18.855   7.793  0.00  0.00     0.058 C 
HETATM   15  C   UNK N   1      29.335  18.183   8.473  0.00  0.00     0.071 C 
HETATM   16  C   UNK N   1      30.068  17.187   7.821  0.00  0.00     0.121 C 
HETATM   17 Cl   UNK N   1      29.652  18.578  10.152  0.00  0.00    -0.081 Cl
HETATM   18  C   UNK N   1      29.960  17.043   6.403  0.00  0.00     0.071 C 
HETATM   19  C   UNK N   1      28.959  17.699   5.775  0.00  0.00     0.058 C 
HETATM   20 Cl   UNK N   1      31.020  16.141   5.302  0.00  0.00    -0.081 Cl
BRANCH  16  21
HETATM   21  O   UNK N   1      30.841  16.406   8.585  0.00  0.00    -0.289 OA
BRANCH  21  22
HETATM   22  C   UNK N   1      32.163  16.566   8.689  0.00  0.00     0.163 C 
HETATM   23  C   UNK N   1      32.867  15.493   9.106  0.00  0.00     0.071 C 
HETATM   24  C   UNK N   1      34.129  15.652   9.610  0.00  0.00     0.019 C 
HETATM   25  C   UNK N   1      34.664  16.957   9.687  0.00  0.00     0.266 C 
HETATM   26  N   UNK N   1      33.984  17.987   9.091  0.00  0.00    -0.264 N 
HETATM   27  O   UNK N   1      35.715  17.179  10.259  0.00  0.00    -0.266 OA
HETATM   28  N   UNK N   1      32.769  17.785   8.581  0.00  0.00    -0.277 N 
HETATM   29  H   UNK N   1      34.394  18.880   9.041  0.00  0.00     0.190 HD
ATOM     30  HN  UNK N   1      32.288  18.548   8.104  1.00  0.00     0.189 HD
BRANCH  24  31
HETATM   31  C   UNK N   1      34.776  14.406  10.116  0.00  0.00     0.016 C 
HETATM   32  C   UNK N   1      35.381  13.375   9.199  0.00  0.00     0.015 C 
HETATM   33  C   UNK N   1      34.841  14.170  11.624  0.00  0.00     0.015 C 
ENDBRANCH  24  31
ENDBRANCH  21  22
ENDBRANCH  16  21
ENDBRANCH   1  13
TORSDOF 4
ENDMDL
MODEL 5
REMARK VINA RESULT:      -7.8      5.267      7.879
REMARK  4 active torsions:
REMARK  status: ('A' for Active; 'I' for Inactive)
REMARK    1  A    between atoms: C_2  and  C_4 
REMARK    2  A    between atoms: C_6  and  O_12 
REMARK    3  A    between atoms: O_12  and  C_13 
REMARK    4  A    between atoms: C_16  and  N_20 
ROOT
HETATM    1  N   UNK N   1      23.223  19.183   3.815  0.00  0.00    -0.204 N 
HETATM    2  C   UNK N   1      22.831  20.260   3.051  0.00  0.00     0.348 A 
HETATM    3  O   UNK N   1      23.608  21.157   2.772  0.00  0.00    -0.245 OA
HETATM    4  N   UNK N   1      21.552  20.295   2.571  0.00  0.00    -0.271 N 
HETATM    5  C   UNK N   1      20.669  19.289   2.881  0.00  0.00     0.288 A 
HETATM    6  O   UNK N   1      19.552  19.294   2.402  0.00  0.00    -0.265 OA
HETATM    7  C   UNK N   1      21.074  18.267   3.741  0.00  0.00     0.197 A 
HETATM    8  N   UNK N   1      22.334  18.259   4.162  0.00  0.00    -0.275 N 
ATOM      9  HN  UNK N   1      22.635  17.507   4.782  1.00  0.00     0.188 HD
HETATM   10  C   UNK N   1      20.237  17.190   4.185  0.00  0.00     0.125 C 
HETATM   11  N   UNK N   1      19.627  16.292   4.585  0.00  0.00    -0.190 NA
HETATM   12  H   UNK N   1      21.262  21.044   2.001  0.00  0.00     0.174 HD
ENDROOT
BRANCH   1  13
HETATM   13  C   UNK N   1      24.545  18.950   4.262  0.00  0.00     0.065 C 
HETATM   14  C   UNK N   1      25.384  19.959   4.729  0.00  0.00     0.058 C 
HETATM   15  C   UNK N   1      26.598  19.617   5.291  0.00  0.00     0.071 C 
HETATM   16  C   UNK N   1      26.959  18.270   5.397  0.00  0.00     0.121 C 
HETATM   17 Cl   UNK N   1      27.664  20.880   5.880  0.00  0.00    -0.081 Cl
HETATM   18  C   UNK N   1      26.195  17.278   4.706  0.00  0.00     0.071 C 
HETATM   19  C   UNK N   1      25.002  17.645   4.188  0.00  0.00     0.058 C 
HETATM   20 Cl   UNK N   1      26.628  15.590   4.370  0.00  0.00    -0.081 Cl
BRANCH  16  21
HETATM   21  O   UNK N   1      28.017  17.984   6.163  0.00  0.00    -0.289 OA
BRANCH  21  22
HETATM   22  C   UNK N   1      29.196  17.599   5.665  0.00  0.00     0.163 C 
HETATM   23  C   UNK N   1      30.129  17.215   6.561  0.00  0.00     0.071 C 
HETATM   24  C   UNK N   1      31.450  17.180   6.205  0.00  0.00     0.019 C 
HETATM   25  C   UNK N   1      31.804  17.562   4.891  0.00  0.00     0.266 C 
HETATM   26  N   UNK N   1      30.809  17.774   3.974  0.00  0.00    -0.264 N 
HETATM   27  O   UNK N   1      32.967  17.696   4.562  0.00  0.00    -0.266 OA
HETATM   28  N   UNK N   1      29.531  17.766   4.352  0.00  0.00    -0.277 N 
HETATM   29  H   UNK N   1      31.039  17.934   3.030  0.00  0.00     0.190 HD
ATOM     30  HN  UNK N   1      28.796  17.885   3.654  1.00  0.00     0.189 HD
BRANCH  24  31
HETATM   31  C   UNK N   1      32.397  16.821   7.300  0.00  0.00     0.016 C 
HETATM   32  C   UNK N   1      32.658  15.395   7.711  0.00  0.00     0.015 C 
HETATM   33  C   UNK N   1      33.143  17.938   8.027  0.00  0.00     0.015 C 
ENDBRANCH  24  31
ENDBRANCH  21  22
ENDBRANCH  16  21
ENDBRANCH   1  13
TORSDOF 4
ENDMDL
MODEL 6
REMARK VINA RESULT:      -7.7     13.695     16.498
REMARK  4 active torsions:
REMARK  status: ('A' for Active; 'I' for Inactive)
REMARK    1  A    between atoms: C_2  and  C_4 
REMARK    2  A    between atoms: C_6  and  O_12 
REMARK    3  A    between atoms: O_12  and  C_13 
REMARK    4  A    between atoms: C_16  and  N_20 
ROOT
HETATM    1  N   UNK N   1      36.039  13.633  11.445  0.00  0.00    -0.204 N 
HETATM    2  C   UNK N   1      37.051  13.055  10.711  0.00  0.00     0.348 A 
HETATM    3  O   UNK N   1      37.921  12.388  11.245  0.00  0.00    -0.245 OA
HETATM    4  N   UNK N   1      37.049  13.209   9.353  0.00  0.00    -0.271 N 
HETATM    5  C   UNK N   1      36.074  13.960   8.743  0.00  0.00     0.288 A 
HETATM    6  O   UNK N   1      36.042  14.044   7.531  0.00  0.00    -0.265 OA
HETATM    7  C   UNK N   1      35.124  14.613   9.529  0.00  0.00     0.197 A 
HETATM    8  N   UNK N   1      35.147  14.414  10.843  0.00  0.00    -0.275 N 
ATOM      9  HN  UNK N   1      34.447  14.882  11.418  1.00  0.00     0.188 HD
HETATM   10  C   UNK N   1      34.088  15.467   9.023  0.00  0.00     0.125 C 
HETATM   11  N   UNK N   1      33.228  16.166   8.694  0.00  0.00    -0.190 NA
HETATM   12  H   UNK N   1      37.750  12.781   8.810  0.00  0.00     0.174 HD
ENDROOT
BRANCH   1  13
HETATM   13  C   UNK N   1      35.839  13.445  12.833  0.00  0.00     0.065 C 
HETATM   14  C   UNK N   1      36.518  14.171  13.808  0.00  0.00     0.058 C 
HETATM   15  C   UNK N   1      36.146  14.031  15.131  0.00  0.00     0.071 C 
HETATM   16  C   UNK N   1      35.088  13.181  15.468  0.00  0.00     0.121 C 
HETATM   17 Cl   UNK N   1      36.996  14.939  16.368  0.00  0.00    -0.081 Cl
HETATM   18  C   UNK N   1      34.567  12.279  14.487  0.00  0.00     0.071 C 
HETATM   19  C   UNK N   1      34.938  12.460  13.201  0.00  0.00     0.058 C 
HETATM   20 Cl   UNK N   1      33.513  10.874  14.733  0.00  0.00    -0.081 Cl
BRANCH  16  21
HETATM   21  O   UNK N   1      34.611  13.271  16.714  0.00  0.00    -0.289 OA
BRANCH  21  22
HETATM   22  C   UNK N   1      35.189  12.674  17.761  0.00  0.00     0.163 C 
HETATM   23  C   UNK N   1      35.459  11.359  17.628  0.00  0.00     0.071 C 
HETATM   24  C   UNK N   1      35.678  10.587  18.737  0.00  0.00     0.019 C 
HETATM   25  C   UNK N   1      35.604  11.198  20.008  0.00  0.00     0.266 C 
HETATM   26  N   UNK N   1      35.501  12.562  20.081  0.00  0.00    -0.264 N 
HETATM   27  O   UNK N   1      35.640  10.540  21.031  0.00  0.00    -0.266 OA
HETATM   28  N   UNK N   1      35.323  13.285  18.975  0.00  0.00    -0.277 N 
HETATM   29  H   UNK N   1      35.558  13.011  20.955  0.00  0.00     0.190 HD
ATOM     30  HN  UNK N   1      35.288  14.302  19.035  1.00  0.00     0.189 HD
BRANCH  24  31
HETATM   31  C   UNK N   1      35.884   9.133  18.471  0.00  0.00     0.016 C 
HETATM   32  C   UNK N   1      37.235   8.553  18.141  0.00  0.00     0.015 C 
HETATM   33  C   UNK N   1      34.685   8.191  18.549  0.00  0.00     0.015 C 
ENDBRANCH  24  31
ENDBRANCH  21  22
ENDBRANCH  16  21
ENDBRANCH   1  13
TORSDOF 4
ENDMDL
MODEL 7
REMARK VINA RESULT:      -7.7      8.120     10.839
REMARK  4 active torsions:
REMARK  status: ('A' for Active; 'I' for Inactive)
REMARK    1  A    between atoms: C_2  and  C_4 
REMARK    2  A    between atoms: C_6  and  O_12 
REMARK    3  A    between atoms: O_12  and  C_13 
REMARK    4  A    between atoms: C_16  and  N_20 
ROOT
HETATM    1  N   UNK N   1      33.053  16.764   8.815  0.00  0.00    -0.204 N 
HETATM    2  C   UNK N   1      34.035  17.691   8.547  0.00  0.00     0.348 A 
HETATM    3  O   UNK N   1      33.878  18.556   7.701  0.00  0.00    -0.245 OA
HETATM    4  N   UNK N   1      35.191  17.654   9.275  0.00  0.00    -0.271 N 
HETATM    5  C   UNK N   1      35.376  16.683  10.229  0.00  0.00     0.288 A 
HETATM    6  O   UNK N   1      36.379  16.691  10.915  0.00  0.00    -0.265 OA
HETATM    7  C   UNK N   1      34.401  15.700  10.401  0.00  0.00     0.197 A 
HETATM    8  N   UNK N   1      33.281  15.791   9.690  0.00  0.00    -0.275 N 
ATOM      9  HN  UNK N   1      32.563  15.080   9.823  1.00  0.00     0.188 HD
HETATM   10  C   UNK N   1      34.495  14.604  11.322  0.00  0.00     0.125 C 
HETATM   11  N   UNK N   1      34.495  13.697  12.039  0.00  0.00    -0.190 NA
HETATM   12  H   UNK N   1      35.893  18.325   9.116  0.00  0.00     0.174 HD
ENDROOT
BRANCH   1  13
HETATM   13  C   UNK N   1      31.760  16.767   8.237  0.00  0.00     0.065 C 
HETATM   14  C   UNK N   1      30.723  17.579   8.690  0.00  0.00     0.058 C 
HETATM   15  C   UNK N   1      29.547  17.630   7.968  0.00  0.00     0.071 C 
HETATM   16  C   UNK N   1      29.421  16.884   6.793  0.00  0.00     0.121 C 
HETATM   17 Cl   UNK N   1      28.233  18.648   8.530  0.00  0.00    -0.081 Cl
HETATM   18  C   UNK N   1      30.400  15.889   6.480  0.00  0.00     0.071 C 
HETATM   19  C   UNK N   1      31.547  15.884   7.193  0.00  0.00     0.058 C 
HETATM   20 Cl   UNK N   1      30.298  14.580   5.286  0.00  0.00    -0.081 Cl
BRANCH  16  21
HETATM   21  O   UNK N   1      28.372  17.158   6.010  0.00  0.00    -0.289 OA
BRANCH  21  22
HETATM   22  C   UNK N   1      27.316  16.347   5.895  0.00  0.00     0.163 C 
HETATM   23  C   UNK N   1      27.184  15.696   4.720  0.00  0.00     0.071 C 
HETATM   24  C   UNK N   1      25.974  15.166   4.360  0.00  0.00     0.019 C 
HETATM   25  C   UNK N   1      24.880  15.327   5.239  0.00  0.00     0.266 C 
HETATM   26  N   UNK N   1      25.106  15.839   6.490  0.00  0.00    -0.264 N 
HETATM   27  O   UNK N   1      23.752  15.012   4.911  0.00  0.00    -0.266 OA
HETATM   28  N   UNK N   1      26.308  16.314   6.816  0.00  0.00    -0.277 N 
HETATM   29  H   UNK N   1      24.377  15.856   7.151  0.00  0.00     0.190 HD
ATOM     30  HN  UNK N   1      26.478  16.655   7.763  1.00  0.00     0.189 HD
BRANCH  24  31
HETATM   31  C   UNK N   1      25.929  14.544   3.005  0.00  0.00     0.016 C 
HETATM   32  C   UNK N   1      25.812  15.357   1.742  0.00  0.00     0.015 C 
HETATM   33  C   UNK N   1      26.017  13.024   2.888  0.00  0.00     0.015 C 
ENDBRANCH  24  31
ENDBRANCH  21  22
ENDBRANCH  16  21
ENDBRANCH   1  13
TORSDOF 4
ENDMDL
MODEL 8
REMARK VINA RESULT:      -7.6      1.217      2.131
REMARK  4 active torsions:
REMARK  status: ('A' for Active; 'I' for Inactive)
REMARK    1  A    between atoms: C_2  and  C_4 
REMARK    2  A    between atoms: C_6  and  O_12 
REMARK    3  A    between atoms: O_12  and  C_13 
REMARK    4  A    between atoms: C_16  and  N_20 
ROOT
HETATM    1  N   UNK N   1      22.040  18.621   4.303  0.00  0.00    -0.204 N 
HETATM    2  C   UNK N   1      21.558  19.652   3.528  0.00  0.00     0.348 A 
HETATM    3  O   UNK N   1      20.361  19.854   3.413  0.00  0.00    -0.245 OA
HETATM    4  N   UNK N   1      22.450  20.481   2.908  0.00  0.00    -0.271 N 
HETATM    5  C   UNK N   1      23.800  20.261   3.031  0.00  0.00     0.288 A 
HETATM    6  O   UNK N   1      24.589  21.036   2.528  0.00  0.00    -0.265 OA
HETATM    7  C   UNK N   1      24.247  19.146   3.741  0.00  0.00     0.197 A 
HETATM    8  N   UNK N   1      23.346  18.382   4.350  0.00  0.00    -0.275 N 
ATOM      9  HN  UNK N   1      23.672  17.574   4.879  1.00  0.00     0.188 HD
HETATM   10  C   UNK N   1      25.623  18.773   3.900  0.00  0.00     0.125 C 
HETATM   11  N   UNK N   1      26.707  18.409   4.073  0.00  0.00    -0.190 NA
HETATM   12  H   UNK N   1      22.124  21.240   2.371  0.00  0.00     0.174 HD
ENDROOT
BRANCH   1  13
HETATM   13  C   UNK N   1      21.240  17.773   5.106  0.00  0.00     0.065 C 
HETATM   14  C   UNK N   1      20.647  16.606   4.630  0.00  0.00     0.058 C 
HETATM   15  C   UNK N   1      20.016  15.761   5.522  0.00  0.00     0.071 C 
HETATM   16  C   UNK N   1      19.999  16.078   6.884  0.00  0.00     0.121 C 
HETATM   17 Cl   UNK N   1      19.263  14.290   4.934  0.00  0.00    -0.081 Cl
HETATM   18  C   UNK N   1      20.405  17.381   7.311  0.00  0.00     0.071 C 
HETATM   19  C   UNK N   1      21.037  18.172   6.416  0.00  0.00     0.058 C 
HETATM   20 Cl   UNK N   1      20.140  18.158   8.884  0.00  0.00    -0.081 Cl
BRANCH  16  21
HETATM   21  O   UNK N   1      19.600  15.118   7.725  0.00  0.00    -0.289 OA
BRANCH  21  22
HETATM   22  C   UNK N   1      20.413  14.546   8.618  0.00  0.00     0.163 C 
HETATM   23  C   UNK N   1      21.662  14.260   8.196  0.00  0.00     0.071 C 
HETATM   24  C   UNK N   1      22.425  13.349   8.874  0.00  0.00     0.019 C 
HETATM   25  C   UNK N   1      21.870  12.719  10.010  0.00  0.00     0.266 C 
HETATM   26  N   UNK N   1      20.672  13.170  10.498  0.00  0.00    -0.264 N 
HETATM   27  O   UNK N   1      22.438  11.796  10.565  0.00  0.00    -0.266 OA
HETATM   28  N   UNK N   1      19.973  14.084   9.825  0.00  0.00    -0.277 N 
HETATM   29  H   UNK N   1      20.325  12.816  11.348  0.00  0.00     0.190 HD
ATOM     30  HN  UNK N   1      19.102  14.443  10.217  1.00  0.00     0.189 HD
BRANCH  24  31
HETATM   31  C   UNK N   1      23.755  13.053   8.267  0.00  0.00     0.016 C 
HETATM   32  C   UNK N   1      25.053  13.447   8.923  0.00  0.00     0.015 C 
HETATM   33  C   UNK N   1      23.809  12.308   6.935  0.00  0.00     0.015 C 
ENDBRANCH  24  31
ENDBRANCH  21  22
ENDBRANCH  16  21
ENDBRANCH   1  13
TORSDOF 4
ENDMDL
MODEL 9
REMARK VINA RESULT:      -7.6      4.716      6.445
REMARK  4 active torsions:
REMARK  status: ('A' for Active; 'I' for Inactive)
REMARK    1  A    between atoms: C_2  and  C_4 
REMARK    2  A    between atoms: C_6  and  O_12 
REMARK    3  A    between atoms: O_12  and  C_13 
REMARK    4  A    between atoms: C_16  and  N_20 
ROOT
HETATM    1  N   UNK N   1      22.132  18.009   3.939  0.00  0.00    -0.204 N 
HETATM    2  C   UNK N   1      21.095  17.150   4.227  0.00  0.00     0.348 A 
HETATM    3  O   UNK N   1      21.254  16.183   4.953  0.00  0.00    -0.245 OA
HETATM    4  N   UNK N   1      19.857  17.417   3.712  0.00  0.00    -0.271 N 
HETATM    5  C   UNK N   1      19.669  18.503   2.892  0.00  0.00     0.288 A 
HETATM    6  O   UNK N   1      18.555  18.771   2.486  0.00  0.00    -0.265 OA
HETATM    7  C   UNK N   1      20.766  19.291   2.541  0.00  0.00     0.197 A 
HETATM    8  N   UNK N   1      21.945  19.011   3.087  0.00  0.00    -0.275 N 
ATOM      9  HN  UNK N   1      22.745  19.593   2.840  1.00  0.00     0.188 HD
HETATM   10  C   UNK N   1      20.715  20.418   1.654  0.00  0.00     0.125 C 
HETATM   11  N   UNK N   1      20.756  21.336   0.953  0.00  0.00    -0.190 NA
HETATM   12  H   UNK N   1      19.098  16.829   3.929  0.00  0.00     0.174 HD
ENDROOT
BRANCH   1  13
HETATM   13  C   UNK N   1      23.425  17.932   4.509  0.00  0.00     0.065 C 
HETATM   14  C   UNK N   1      23.900  16.807   5.178  0.00  0.00     0.058 C 
HETATM   15  C   UNK N   1      25.226  16.764   5.563  0.00  0.00     0.071 C 
HETATM   16  C   UNK N   1      26.071  17.836   5.261  0.00  0.00     0.121 C 
HETATM   17 Cl   UNK N   1      25.834  15.353   6.410  0.00  0.00    -0.081 Cl
HETATM   18  C   UNK N   1      25.512  19.064   4.787  0.00  0.00     0.071 C 
HETATM   19  C   UNK N   1      24.217  19.062   4.400  0.00  0.00     0.058 C 
HETATM   20 Cl   UNK N   1      26.283  20.659   4.683  0.00  0.00    -0.081 Cl
BRANCH  16  21
HETATM   21  O   UNK N   1      27.383  17.641   5.431  0.00  0.00    -0.289 OA
BRANCH  21  22
HETATM   22  C   UNK N   1      28.052  18.076   6.503  0.00  0.00     0.163 C 
HETATM   23  C   UNK N   1      29.327  17.650   6.628  0.00  0.00     0.071 C 
HETATM   24  C   UNK N   1      29.955  17.710   7.842  0.00  0.00     0.019 C 
HETATM   25  C   UNK N   1      29.237  18.215   8.948  0.00  0.00     0.266 C 
HETATM   26  N   UNK N   1      28.013  18.794   8.733  0.00  0.00    -0.264 N 
HETATM   27  O   UNK N   1      29.686  18.155  10.078  0.00  0.00    -0.266 OA
HETATM   28  N   UNK N   1      27.448  18.746   7.528  0.00  0.00    -0.277 N 
HETATM   29  H   UNK N   1      27.550  19.247   9.474  0.00  0.00     0.190 HD
ATOM     30  HN  UNK N   1      26.556  19.215   7.368  1.00  0.00     0.189 HD
BRANCH  24  31
HETATM   31  C   UNK N   1      31.331  17.134   7.877  0.00  0.00     0.016 C 
HETATM   32  C   UNK N   1      32.543  17.952   8.243  0.00  0.00     0.015 C 
HETATM   33  C   UNK N   1      31.522  15.656   7.544  0.00  0.00     0.015 C 
ENDBRANCH  24  31
ENDBRANCH  21  22
ENDBRANCH  16  21
ENDBRANCH   1  13
TORSDOF 4
ENDMDL
