MODEL 1
REMARK VINA RESULT:      -9.1      0.000      0.000
REMARK  6 active torsions:
REMARK  status: ('A' for Active; 'I' for Inactive)
REMARK    1  A    between atoms: C_2  and  C_4 
REMARK    2  A    between atoms: C_2  and  O_32 
REMARK    3  A    between atoms: C_9  and  C_10 
REMARK    4  A    between atoms: C_17  and  C_20 
REMARK    5  A    between atoms: C_21  and  C_22 
REMARK    6  A    between atoms: C_25  and  C_28 
ROOT
HETATM    1  C   UNK N   1      32.639  16.919   7.456  0.00  0.00    -0.023 A 
HETATM    2  C   UNK N   1      33.531  18.012   7.677  0.00  0.00     0.014 A 
HETATM    3  C   UNK N   1      34.526  17.931   8.681  0.00  0.00     0.033 A 
HETATM    4  C   UNK N   1      34.580  16.750   9.428  0.00  0.00     0.060 A 
HETATM    5  C   UNK N   1      33.781  15.700   9.137  0.00  0.00     0.061 A 
HETATM    6  C   UNK N   1      32.831  15.741   8.169  0.00  0.00     0.044 A 
HETATM    7  N   UNK N   1      33.944  14.731  10.035  0.00  0.00    -0.341 N 
HETATM    8  C   UNK N   1      34.851  15.237  10.884  0.00  0.00     0.106 A 
HETATM    9  N   UNK N   1      35.284  16.484  10.533  0.00  0.00    -0.341 N 
ATOM     10  HN  UNK N   1      35.977  17.070  11.000  1.00  0.00     0.167 HD
HETATM   11  H   UNK N   1      33.502  13.851  10.069  0.00  0.00     0.167 HD
ENDROOT
BRANCH   8  12
HETATM   12  C   UNK N   1      35.198  14.551  12.110  0.00  0.00     0.049 C 
HETATM   13  C   UNK N   1      34.877  13.286  12.312  0.00  0.00     0.015 C 
BRANCH  13  14
HETATM   14  C   UNK N   1      35.191  12.670  13.590  0.00  0.00    -0.036 A 
HETATM   15  C   UNK N   1      34.465  11.538  13.938  0.00  0.00     0.012 A 
HETATM   16  C   UNK N   1      34.556  11.022  15.222  0.00  0.00     0.017 A 
HETATM   17  C   UNK N   1      35.392  11.620  16.169  0.00  0.00     0.048 A 
HETATM   18  C   UNK N   1      36.169  12.734  15.808  0.00  0.00     0.017 A 
HETATM   19  C   UNK N   1      36.050  13.275  14.525  0.00  0.00     0.012 A 
BRANCH  17  20
HETATM   20  C   UNK N   1      35.422  11.098  17.569  0.00  0.00     0.417 C 
HETATM   21  F   UNK N   1      35.213  12.132  18.459  0.00  0.00    -0.166 F 
HETATM   22  F   UNK N   1      34.428  10.147  17.724  0.00  0.00    -0.166 F 
HETATM   23  F   UNK N   1      36.643  10.504  17.842  0.00  0.00    -0.166 F 
ENDBRANCH  17  20
ENDBRANCH  13  14
ENDBRANCH   8  12
BRANCH   1  24
HETATM   24  C   UNK N   1      31.390  17.100   6.667  0.00  0.00    -0.017 A 
HETATM   25  C   UNK N   1      31.501  17.032   5.268  0.00  0.00     0.013 A 
HETATM   26  C   UNK N   1      30.406  17.268   4.443  0.00  0.00     0.001 A 
HETATM   27  C   UNK N   1      29.177  17.601   4.995  0.00  0.00     0.001 A 
HETATM   28  C   UNK N   1      29.037  17.704   6.374  0.00  0.00     0.011 A 
HETATM   29  C   UNK N   1      30.110  17.463   7.249  0.00  0.00    -0.014 A 
BRANCH  29  30
HETATM   30  C   UNK N   1      29.828  17.699   8.749  0.00  0.00     0.078 C 
HETATM   31  C   UNK N   1      28.333  17.647   9.049  0.00  0.00     0.051 C 
HETATM   32  C   UNK N   1      30.441  19.001   9.244  0.00  0.00     0.051 C 
BRANCH  30  33
HETATM   33  O   UNK N   1      30.404  16.689   9.521  0.00  0.00    -0.386 OA
HETATM   34  H   UNK N   1      30.451  16.765  10.487  0.00  0.00     0.211 HD
ENDBRANCH  30  33
ENDBRANCH  29  30
ENDBRANCH   1  24
TORSDOF 6
ENDMDL
MODEL 2
REMARK VINA RESULT:      -9.0      1.606      2.827
REMARK  6 active torsions:
REMARK  status: ('A' for Active; 'I' for Inactive)
REMARK    1  A    between atoms: C_2  and  C_4 
REMARK    2  A    between atoms: C_2  and  O_32 
REMARK    3  A    between atoms: C_9  and  C_10 
REMARK    4  A    between atoms: C_17  and  C_20 
REMARK    5  A    between atoms: C_21  and  C_22 
REMARK    6  A    between atoms: C_25  and  C_28 
ROOT
HETATM    1  C   UNK N   1      33.066  16.458   8.561  0.00  0.00    -0.023 A 
HETATM    2  C   UNK N   1      34.074  17.404   8.918  0.00  0.00     0.014 A 
HETATM    3  C   UNK N   1      35.024  17.093   9.921  0.00  0.00     0.033 A 
HETATM    4  C   UNK N   1      34.918  15.838  10.528  0.00  0.00     0.060 A 
HETATM    5  C   UNK N   1      34.009  14.931  10.107  0.00  0.00     0.061 A 
HETATM    6  C   UNK N   1      33.097  15.193   9.136  0.00  0.00     0.044 A 
HETATM    7  N   UNK N   1      34.031  13.855  10.890  0.00  0.00    -0.341 N 
HETATM    8  C   UNK N   1      34.968  14.150  11.804  0.00  0.00     0.106 A 
HETATM    9  N   UNK N   1      35.554  15.367  11.605  0.00  0.00    -0.341 N 
ATOM     10  HN  UNK N   1      36.298  15.809  12.146  1.00  0.00     0.167 HD
HETATM   11  H   UNK N   1      33.488  13.036  10.816  0.00  0.00     0.167 HD
ENDROOT
BRANCH   8  12
HETATM   12  C   UNK N   1      35.196  13.294  12.949  0.00  0.00     0.049 C 
HETATM   13  C   UNK N   1      35.612  13.777  14.106  0.00  0.00     0.015 C 
BRANCH  13  14
HETATM   14  C   UNK N   1      35.888  12.861  15.199  0.00  0.00    -0.036 A 
HETATM   15  C   UNK N   1      36.669  11.751  14.905  0.00  0.00     0.012 A 
HETATM   16  C   UNK N   1      36.799  10.728  15.833  0.00  0.00     0.017 A 
HETATM   17  C   UNK N   1      36.166  10.814  17.076  0.00  0.00     0.048 A 
HETATM   18  C   UNK N   1      35.418  11.958  17.400  0.00  0.00     0.017 A 
HETATM   19  C   UNK N   1      35.258  12.972  16.450  0.00  0.00     0.012 A 
BRANCH  17  20
HETATM   20  C   UNK N   1      36.255   9.671  18.035  0.00  0.00     0.417 C 
HETATM   21  F   UNK N   1      37.012   8.657  17.485  0.00  0.00    -0.166 F 
HETATM   22  F   UNK N   1      36.844  10.103  19.210  0.00  0.00    -0.166 F 
HETATM   23  F   UNK N   1      34.992   9.185  18.332  0.00  0.00    -0.166 F 
ENDBRANCH  17  20
ENDBRANCH  13  14
ENDBRANCH   8  12
BRANCH   1  24
HETATM   24  C   UNK N   1      31.870  16.876   7.779  0.00  0.00    -0.017 A 
HETATM   25  C   UNK N   1      30.645  16.935   8.465  0.00  0.00     0.013 A 
HETATM   26  C   UNK N   1      29.459  17.236   7.804  0.00  0.00     0.001 A 
HETATM   27  C   UNK N   1      29.463  17.462   6.434  0.00  0.00     0.001 A 
HETATM   28  C   UNK N   1      30.652  17.384   5.719  0.00  0.00     0.011 A 
HETATM   29  C   UNK N   1      31.877  17.096   6.344  0.00  0.00    -0.014 A 
BRANCH  29  30
HETATM   30  C   UNK N   1      33.099  16.958   5.409  0.00  0.00     0.078 C 
HETATM   31  C   UNK N   1      32.758  17.375   3.982  0.00  0.00     0.051 C 
HETATM   32  C   UNK N   1      33.684  15.553   5.443  0.00  0.00     0.051 C 
BRANCH  30  33
HETATM   33  O   UNK N   1      34.127  17.809   5.817  0.00  0.00    -0.386 OA
HETATM   34  H   UNK N   1      35.055  17.594   5.633  0.00  0.00     0.211 HD
ENDBRANCH  30  33
ENDBRANCH  29  30
ENDBRANCH   1  24
TORSDOF 6
ENDMDL
MODEL 3
REMARK VINA RESULT:      -8.9      1.101      2.399
REMARK  6 active torsions:
REMARK  status: ('A' for Active; 'I' for Inactive)
REMARK    1  A    between atoms: C_2  and  C_4 
REMARK    2  A    between atoms: C_2  and  O_32 
REMARK    3  A    between atoms: C_9  and  C_10 
REMARK    4  A    between atoms: C_17  and  C_20 
REMARK    5  A    between atoms: C_21  and  C_22 
REMARK    6  A    between atoms: C_25  and  C_28 
ROOT
HETATM    1  C   UNK N   1      32.198  17.018   7.703  0.00  0.00    -0.023 A 
HETATM    2  C   UNK N   1      33.301  17.925   7.717  0.00  0.00     0.014 A 
HETATM    3  C   UNK N   1      34.395  17.708   8.589  0.00  0.00     0.033 A 
HETATM    4  C   UNK N   1      34.332  16.584   9.418  0.00  0.00     0.060 A 
HETATM    5  C   UNK N   1      33.318  15.696   9.320  0.00  0.00     0.061 A 
HETATM    6  C   UNK N   1      32.265  15.867   8.481  0.00  0.00     0.044 A 
HETATM    7  N   UNK N   1      33.422  14.767  10.267  0.00  0.00    -0.341 N 
HETATM    8  C   UNK N   1      34.519  15.133  10.948  0.00  0.00     0.106 A 
HETATM    9  N   UNK N   1      35.123  16.249  10.443  0.00  0.00    -0.341 N 
ATOM     10  HN  UNK N   1      35.972  16.713  10.767  1.00  0.00     0.167 HD
HETATM   11  H   UNK N   1      32.834  13.995  10.430  0.00  0.00     0.167 HD
ENDROOT
BRANCH   8  12
HETATM   12  C   UNK N   1      34.901  14.464  12.173  0.00  0.00     0.049 C 
HETATM   13  C   UNK N   1      34.881  13.147  12.280  0.00  0.00     0.015 C 
BRANCH  13  14
HETATM   14  C   UNK N   1      35.210  12.535  13.556  0.00  0.00    -0.036 A 
HETATM   15  C   UNK N   1      34.450  11.438  13.940  0.00  0.00     0.012 A 
HETATM   16  C   UNK N   1      34.559  10.934  15.228  0.00  0.00     0.017 A 
HETATM   17  C   UNK N   1      35.449  11.509  16.141  0.00  0.00     0.048 A 
HETATM   18  C   UNK N   1      36.258  12.585  15.742  0.00  0.00     0.017 A 
HETATM   19  C   UNK N   1      36.121  13.115  14.456  0.00  0.00     0.012 A 
BRANCH  17  20
HETATM   20  C   UNK N   1      35.500  11.002  17.546  0.00  0.00     0.417 C 
HETATM   21  F   UNK N   1      36.705  10.367  17.771  0.00  0.00    -0.166 F 
HETATM   22  F   UNK N   1      35.369  12.066  18.421  0.00  0.00    -0.166 F 
HETATM   23  F   UNK N   1      34.467  10.110  17.782  0.00  0.00    -0.166 F 
ENDBRANCH  17  20
ENDBRANCH  13  14
ENDBRANCH   8  12
BRANCH   1  24
HETATM   24  C   UNK N   1      30.906  17.395   7.067  0.00  0.00    -0.017 A 
HETATM   25  C   UNK N   1      29.878  17.835   7.917  0.00  0.00     0.013 A 
HETATM   26  C   UNK N   1      28.611  18.132   7.426  0.00  0.00     0.001 A 
HETATM   27  C   UNK N   1      28.332  17.975   6.076  0.00  0.00     0.001 A 
HETATM   28  C   UNK N   1      29.317  17.515   5.210  0.00  0.00     0.011 A 
HETATM   29  C   UNK N   1      30.615  17.213   5.656  0.00  0.00    -0.014 A 
BRANCH  29  30
HETATM   30  C   UNK N   1      31.577  16.631   4.597  0.00  0.00     0.078 C 
HETATM   31  C   UNK N   1      32.723  17.593   4.297  0.00  0.00     0.051 C 
HETATM   32  C   UNK N   1      30.846  16.236   3.322  0.00  0.00     0.051 C 
BRANCH  30  33
HETATM   33  O   UNK N   1      32.178  15.463   5.069  0.00  0.00    -0.386 OA
HETATM   34  H   UNK N   1      31.978  14.603   4.668  0.00  0.00     0.211 HD
ENDBRANCH  30  33
ENDBRANCH  29  30
ENDBRANCH   1  24
TORSDOF 6
ENDMDL
MODEL 4
REMARK VINA RESULT:      -8.6      1.917      3.414
REMARK  6 active torsions:
REMARK  status: ('A' for Active; 'I' for Inactive)
REMARK    1  A    between atoms: C_2  and  C_4 
REMARK    2  A    between atoms: C_2  and  O_32 
REMARK    3  A    between atoms: C_9  and  C_10 
REMARK    4  A    between atoms: C_17  and  C_20 
REMARK    5  A    between atoms: C_21  and  C_22 
REMARK    6  A    between atoms: C_25  and  C_28 
ROOT
HETATM    1  C   UNK N   1      33.883  15.975   9.128  0.00  0.00    -0.023 A 
HETATM    2  C   UNK N   1      34.861  16.904   9.596  0.00  0.00     0.014 A 
HETATM    3  C   UNK N   1      35.669  16.590  10.716  0.00  0.00     0.033 A 
HETATM    4  C   UNK N   1      35.455  15.350  11.324  0.00  0.00     0.060 A 
HETATM    5  C   UNK N   1      34.583  14.456  10.806  0.00  0.00     0.061 A 
HETATM    6  C   UNK N   1      33.809  14.721   9.723  0.00  0.00     0.044 A 
HETATM    7  N   UNK N   1      34.479  13.394  11.603  0.00  0.00    -0.341 N 
HETATM    8  C   UNK N   1      35.300  13.685  12.624  0.00  0.00     0.106 A 
HETATM    9  N   UNK N   1      35.937  14.885  12.482  0.00  0.00    -0.341 N 
ATOM     10  HN  UNK N   1      36.617  15.319  13.106  1.00  0.00     0.167 HD
HETATM   11  H   UNK N   1      33.930  12.587  11.473  0.00  0.00     0.167 HD
ENDROOT
BRANCH   8  12
HETATM   12  C   UNK N   1      35.360  12.846  13.802  0.00  0.00     0.049 C 
HETATM   13  C   UNK N   1      35.042  13.306  14.999  0.00  0.00     0.015 C 
BRANCH  13  14
HETATM   14  C   UNK N   1      35.186  12.436  16.153  0.00  0.00    -0.036 A 
HETATM   15  C   UNK N   1      34.994  13.012  17.402  0.00  0.00     0.012 A 
HETATM   16  C   UNK N   1      35.320  12.306  18.550  0.00  0.00     0.017 A 
HETATM   17  C   UNK N   1      35.822  11.004  18.464  0.00  0.00     0.048 A 
HETATM   18  C   UNK N   1      35.970  10.397  17.206  0.00  0.00     0.017 A 
HETATM   19  C   UNK N   1      35.675  11.122  16.048  0.00  0.00     0.012 A 
BRANCH  17  20
HETATM   20  C   UNK N   1      36.239  10.286  19.706  0.00  0.00     0.417 C 
HETATM   21  F   UNK N   1      36.479  11.196  20.716  0.00  0.00    -0.166 F 
HETATM   22  F   UNK N   1      35.231   9.420  20.094  0.00  0.00    -0.166 F 
HETATM   23  F   UNK N   1      37.389   9.547  19.479  0.00  0.00    -0.166 F 
ENDBRANCH  17  20
ENDBRANCH  13  14
ENDBRANCH   8  12
BRANCH   1  24
HETATM   24  C   UNK N   1      32.806  16.405   8.195  0.00  0.00    -0.017 A 
HETATM   25  C   UNK N   1      31.659  16.984   8.762  0.00  0.00     0.013 A 
HETATM   26  C   UNK N   1      30.567  17.342   7.980  0.00  0.00     0.001 A 
HETATM   27  C   UNK N   1      30.584  17.111   6.611  0.00  0.00     0.001 A 
HETATM   28  C   UNK N   1      31.691  16.514   6.020  0.00  0.00     0.011 A 
HETATM   29  C   UNK N   1      32.823  16.145   6.766  0.00  0.00    -0.014 A 
BRANCH  29  30
HETATM   30  C   UNK N   1      33.939  15.416   5.987  0.00  0.00     0.078 C 
HETATM   31  C   UNK N   1      33.790  15.615   4.482  0.00  0.00     0.051 C 
HETATM   32  C   UNK N   1      34.004  13.937   6.340  0.00  0.00     0.051 C 
BRANCH  30  33
HETATM   33  O   UNK N   1      35.190  15.941   6.316  0.00  0.00    -0.386 OA
HETATM   34  H   UNK N   1      35.438  16.841   6.050  0.00  0.00     0.211 HD
ENDBRANCH  30  33
ENDBRANCH  29  30
ENDBRANCH   1  24
TORSDOF 6
ENDMDL
MODEL 5
REMARK VINA RESULT:      -8.4      5.635     11.069
REMARK  6 active torsions:
REMARK  status: ('A' for Active; 'I' for Inactive)
REMARK    1  A    between atoms: C_2  and  C_4 
REMARK    2  A    between atoms: C_2  and  O_32 
REMARK    3  A    between atoms: C_9  and  C_10 
REMARK    4  A    between atoms: C_17  and  C_20 
REMARK    5  A    between atoms: C_21  and  C_22 
REMARK    6  A    between atoms: C_25  and  C_28 
ROOT
HETATM    1  C   UNK N   1      35.915  12.654  15.234  0.00  0.00    -0.023 A 
HETATM    2  C   UNK N   1      36.739  13.799  15.453  0.00  0.00     0.014 A 
HETATM    3  C   UNK N   1      36.817  14.821  14.477  0.00  0.00     0.033 A 
HETATM    4  C   UNK N   1      36.063  14.645  13.313  0.00  0.00     0.060 A 
HETATM    5  C   UNK N   1      35.226  13.594  13.172  0.00  0.00     0.061 A 
HETATM    6  C   UNK N   1      35.115  12.608  14.098  0.00  0.00     0.044 A 
HETATM    7  N   UNK N   1      34.692  13.587  11.952  0.00  0.00    -0.341 N 
HETATM    8  C   UNK N   1      35.246  14.655  11.359  0.00  0.00     0.106 A 
HETATM    9  N   UNK N   1      36.093  15.349  12.176  0.00  0.00    -0.341 N 
ATOM     10  HN  UNK N   1      36.619  16.198  11.969  1.00  0.00     0.167 HD
HETATM   11  H   UNK N   1      34.043  12.949  11.575  0.00  0.00     0.167 HD
ENDROOT
BRANCH   8  12
HETATM   12  C   UNK N   1      35.046  14.920   9.950  0.00  0.00     0.049 C 
HETATM   13  C   UNK N   1      34.775  16.133   9.504  0.00  0.00     0.015 C 
BRANCH  13  14
HETATM   14  C   UNK N   1      34.517  16.325   8.087  0.00  0.00    -0.036 A 
HETATM   15  C   UNK N   1      33.830  17.476   7.724  0.00  0.00     0.012 A 
HETATM   16  C   UNK N   1      33.362  17.627   6.427  0.00  0.00     0.017 A 
HETATM   17  C   UNK N   1      33.597  16.635   5.470  0.00  0.00     0.048 A 
HETATM   18  C   UNK N   1      34.336  15.493   5.817  0.00  0.00     0.017 A 
HETATM   19  C   UNK N   1      34.776  15.325   7.134  0.00  0.00     0.012 A 
BRANCH  17  20
HETATM   20  C   UNK N   1      33.022  16.777   4.098  0.00  0.00     0.417 C 
HETATM   21  F   UNK N   1      31.739  16.268   4.072  0.00  0.00    -0.166 F 
HETATM   22  F   UNK N   1      32.995  18.116   3.749  0.00  0.00    -0.166 F 
HETATM   23  F   UNK N   1      33.798  16.099   3.171  0.00  0.00    -0.166 F 
ENDBRANCH  17  20
ENDBRANCH  13  14
ENDBRANCH   8  12
BRANCH   1  24
HETATM   24  C   UNK N   1      36.076  11.427  16.063  0.00  0.00    -0.017 A 
HETATM   25  C   UNK N   1      35.369  11.377  17.276  0.00  0.00     0.013 A 
HETATM   26  C   UNK N   1      35.518  10.310  18.156  0.00  0.00     0.001 A 
HETATM   27  C   UNK N   1      36.394   9.276  17.856  0.00  0.00     0.001 A 
HETATM   28  C   UNK N   1      37.131   9.307  16.678  0.00  0.00     0.011 A 
HETATM   29  C   UNK N   1      37.006  10.356  15.752  0.00  0.00    -0.014 A 
BRANCH  29  30
HETATM   30  C   UNK N   1      37.950  10.298  14.531  0.00  0.00     0.078 C 
HETATM   31  C   UNK N   1      37.186   9.964  13.253  0.00  0.00     0.051 C 
HETATM   32  C   UNK N   1      39.102   9.327  14.749  0.00  0.00     0.051 C 
BRANCH  30  33
HETATM   33  O   UNK N   1      38.539  11.543  14.306  0.00  0.00    -0.386 OA
HETATM   34  H   UNK N   1      38.330  12.056  13.509  0.00  0.00     0.211 HD
ENDBRANCH  30  33
ENDBRANCH  29  30
ENDBRANCH   1  24
TORSDOF 6
ENDMDL
MODEL 6
REMARK VINA RESULT:      -8.3      5.480     10.948
REMARK  6 active torsions:
REMARK  status: ('A' for Active; 'I' for Inactive)
REMARK    1  A    between atoms: C_2  and  C_4 
REMARK    2  A    between atoms: C_2  and  O_32 
REMARK    3  A    between atoms: C_9  and  C_10 
REMARK    4  A    between atoms: C_17  and  C_20 
REMARK    5  A    between atoms: C_21  and  C_22 
REMARK    6  A    between atoms: C_25  and  C_28 
ROOT
HETATM    1  C   UNK N   1      36.529  12.132  14.533  0.00  0.00    -0.023 A 
HETATM    2  C   UNK N   1      36.981  13.419  14.953  0.00  0.00     0.014 A 
HETATM    3  C   UNK N   1      36.588  14.581  14.246  0.00  0.00     0.033 A 
HETATM    4  C   UNK N   1      35.758  14.398  13.136  0.00  0.00     0.060 A 
HETATM    5  C   UNK N   1      35.276  13.176  12.815  0.00  0.00     0.061 A 
HETATM    6  C   UNK N   1      35.619  12.047  13.485  0.00  0.00     0.044 A 
HETATM    7  N   UNK N   1      34.591  13.233  11.675  0.00  0.00    -0.341 N 
HETATM    8  C   UNK N   1      34.690  14.521  11.312  0.00  0.00     0.106 A 
HETATM    9  N   UNK N   1      35.394  15.282  12.201  0.00  0.00    -0.341 N 
ATOM     10  HN  UNK N   1      35.593  16.282  12.162  1.00  0.00     0.167 HD
HETATM   11  H   UNK N   1      34.122  12.503  11.209  0.00  0.00     0.167 HD
ENDROOT
BRANCH   8  12
HETATM   12  C   UNK N   1      34.204  14.979  10.028  0.00  0.00     0.049 C 
HETATM   13  C   UNK N   1      34.124  16.264   9.733  0.00  0.00     0.015 C 
BRANCH  13  14
HETATM   14  C   UNK N   1      33.566  16.664   8.453  0.00  0.00    -0.036 A 
HETATM   15  C   UNK N   1      32.303  16.178   8.139  0.00  0.00     0.012 A 
HETATM   16  C   UNK N   1      31.796  16.338   6.858  0.00  0.00     0.017 A 
HETATM   17  C   UNK N   1      32.538  17.008   5.880  0.00  0.00     0.048 A 
HETATM   18  C   UNK N   1      33.793  17.548   6.206  0.00  0.00     0.017 A 
HETATM   19  C   UNK N   1      34.319  17.354   7.487  0.00  0.00     0.012 A 
BRANCH  17  20
HETATM   20  C   UNK N   1      32.010  17.107   4.486  0.00  0.00     0.417 C 
HETATM   21  F   UNK N   1      31.560  15.871   4.067  0.00  0.00    -0.166 F 
HETATM   22  F   UNK N   1      30.965  18.013   4.455  0.00  0.00    -0.166 F 
HETATM   23  F   UNK N   1      32.998  17.547   3.620  0.00  0.00    -0.166 F 
ENDBRANCH  17  20
ENDBRANCH  13  14
ENDBRANCH   8  12
BRANCH   1  24
HETATM   24  C   UNK N   1      37.186  10.892  15.030  0.00  0.00    -0.017 A 
HETATM   25  C   UNK N   1      38.348  10.470  14.363  0.00  0.00     0.013 A 
HETATM   26  C   UNK N   1      38.987   9.282  14.701  0.00  0.00     0.001 A 
HETATM   27  C   UNK N   1      38.467   8.472  15.702  0.00  0.00     0.001 A 
HETATM   28  C   UNK N   1      37.304   8.844  16.365  0.00  0.00     0.011 A 
HETATM   29  C   UNK N   1      36.630  10.041  16.067  0.00  0.00    -0.014 A 
BRANCH  29  30
HETATM   30  C   UNK N   1      35.305  10.279  16.825  0.00  0.00     0.078 C 
HETATM   31  C   UNK N   1      35.324  11.607  17.574  0.00  0.00     0.051 C 
HETATM   32  C   UNK N   1      34.973   9.127  17.762  0.00  0.00     0.051 C 
BRANCH  30  33
HETATM   33  O   UNK N   1      34.237  10.363  15.931  0.00  0.00    -0.386 OA
HETATM   34  H   UNK N   1      33.501   9.732  15.973  0.00  0.00     0.211 HD
ENDBRANCH  30  33
ENDBRANCH  29  30
ENDBRANCH   1  24
TORSDOF 6
ENDMDL
MODEL 7
REMARK VINA RESULT:      -8.1      1.792      2.726
REMARK  6 active torsions:
REMARK  status: ('A' for Active; 'I' for Inactive)
REMARK    1  A    between atoms: C_2  and  C_4 
REMARK    2  A    between atoms: C_2  and  O_32 
REMARK    3  A    between atoms: C_9  and  C_10 
REMARK    4  A    between atoms: C_17  and  C_20 
REMARK    5  A    between atoms: C_21  and  C_22 
REMARK    6  A    between atoms: C_25  and  C_28 
ROOT
HETATM    1  C   UNK N   1      34.205  14.386   7.816  0.00  0.00    -0.023 A 
HETATM    2  C   UNK N   1      35.567  14.815   7.835  0.00  0.00     0.014 A 
HETATM    3  C   UNK N   1      36.402  14.498   8.933  0.00  0.00     0.033 A 
HETATM    4  C   UNK N   1      35.828  13.762   9.974  0.00  0.00     0.060 A 
HETATM    5  C   UNK N   1      34.563  13.295   9.888  0.00  0.00     0.061 A 
HETATM    6  C   UNK N   1      33.744  13.567   8.841  0.00  0.00     0.044 A 
HETATM    7  N   UNK N   1      34.207  12.710  11.030  0.00  0.00    -0.341 N 
HETATM    8  C   UNK N   1      35.289  12.854  11.809  0.00  0.00     0.106 A 
HETATM    9  N   UNK N   1      36.325  13.489  11.185  0.00  0.00    -0.341 N 
ATOM     10  HN  UNK N   1      37.252  13.702  11.554  1.00  0.00     0.167 HD
HETATM   11  H   UNK N   1      33.351  12.274  11.249  0.00  0.00     0.167 HD
ENDROOT
BRANCH   8  12
HETATM   12  C   UNK N   1      35.262  12.484  13.208  0.00  0.00     0.049 C 
HETATM   13  C   UNK N   1      35.859  13.216  14.132  0.00  0.00     0.015 C 
BRANCH  13  14
HETATM   14  C   UNK N   1      35.855  12.759  15.511  0.00  0.00    -0.036 A 
HETATM   15  C   UNK N   1      36.280  11.458  15.742  0.00  0.00     0.012 A 
HETATM   16  C   UNK N   1      36.105  10.881  16.992  0.00  0.00     0.017 A 
HETATM   17  C   UNK N   1      35.522  11.610  18.033  0.00  0.00     0.048 A 
HETATM   18  C   UNK N   1      35.137  12.944  17.820  0.00  0.00     0.017 A 
HETATM   19  C   UNK N   1      35.281  13.512  16.550  0.00  0.00     0.012 A 
BRANCH  17  20
HETATM   20  C   UNK N   1      35.272  10.951  19.350  0.00  0.00     0.417 C 
HETATM   21  F   UNK N   1      34.710  11.857  20.228  0.00  0.00    -0.166 F 
HETATM   22  F   UNK N   1      34.408   9.885  19.173  0.00  0.00    -0.166 F 
HETATM   23  F   UNK N   1      36.455  10.472  19.889  0.00  0.00    -0.166 F 
ENDBRANCH  17  20
ENDBRANCH  13  14
ENDBRANCH   8  12
BRANCH   1  24
HETATM   24  C   UNK N   1      33.228  14.985   6.865  0.00  0.00    -0.017 A 
HETATM   25  C   UNK N   1      33.016  14.307   5.653  0.00  0.00     0.013 A 
HETATM   26  C   UNK N   1      32.185  14.829   4.668  0.00  0.00     0.001 A 
HETATM   27  C   UNK N   1      31.561  16.054   4.860  0.00  0.00     0.001 A 
HETATM   28  C   UNK N   1      31.770  16.766   6.035  0.00  0.00     0.011 A 
HETATM   29  C   UNK N   1      32.590  16.274   7.065  0.00  0.00    -0.014 A 
BRANCH  29  30
HETATM   30  C   UNK N   1      32.795  17.213   8.274  0.00  0.00     0.078 C 
HETATM   31  C   UNK N   1      31.574  18.097   8.506  0.00  0.00     0.051 C 
HETATM   32  C   UNK N   1      34.059  18.050   8.135  0.00  0.00     0.051 C 
BRANCH  30  33
HETATM   33  O   UNK N   1      32.956  16.473   9.447  0.00  0.00    -0.386 OA
HETATM   34  H   UNK N   1      32.484  16.718  10.259  0.00  0.00     0.211 HD
ENDBRANCH  30  33
ENDBRANCH  29  30
ENDBRANCH   1  24
TORSDOF 6
ENDMDL
MODEL 8
REMARK VINA RESULT:      -8.0      2.886      4.588
REMARK  6 active torsions:
REMARK  status: ('A' for Active; 'I' for Inactive)
REMARK    1  A    between atoms: C_2  and  C_4 
REMARK    2  A    between atoms: C_2  and  O_32 
REMARK    3  A    between atoms: C_9  and  C_10 
REMARK    4  A    between atoms: C_17  and  C_20 
REMARK    5  A    between atoms: C_21  and  C_22 
REMARK    6  A    between atoms: C_25  and  C_28 
ROOT
HETATM    1  C   UNK N   1      35.520  14.829   9.220  0.00  0.00    -0.023 A 
HETATM    2  C   UNK N   1      36.936  14.646   9.211  0.00  0.00     0.014 A 
HETATM    3  C   UNK N   1      37.570  13.912  10.243  0.00  0.00     0.033 A 
HETATM    4  C   UNK N   1      36.749  13.394  11.249  0.00  0.00     0.060 A 
HETATM    5  C   UNK N   1      35.403  13.508  11.184  0.00  0.00     0.061 A 
HETATM    6  C   UNK N   1      34.767  14.190  10.198  0.00  0.00     0.044 A 
HETATM    7  N   UNK N   1      34.843  13.026  12.291  0.00  0.00    -0.341 N 
HETATM    8  C   UNK N   1      35.892  12.635  13.030  0.00  0.00     0.106 A 
HETATM    9  N   UNK N   1      37.094  12.832  12.412  0.00  0.00    -0.341 N 
ATOM     10  HN  UNK N   1      38.028  12.604  12.754  1.00  0.00     0.167 HD
HETATM   11  H   UNK N   1      33.886  12.970  12.515  0.00  0.00     0.167 HD
ENDROOT
BRANCH   8  12
HETATM   12  C   UNK N   1      35.723  12.188  14.397  0.00  0.00     0.049 C 
HETATM   13  C   UNK N   1      35.852  13.015  15.419  0.00  0.00     0.015 C 
BRANCH  13  14
HETATM   14  C   UNK N   1      35.738  12.494  16.770  0.00  0.00    -0.036 A 
HETATM   15  C   UNK N   1      35.901  11.125  16.932  0.00  0.00     0.012 A 
HETATM   16  C   UNK N   1      35.599  10.527  18.146  0.00  0.00     0.017 A 
HETATM   17  C   UNK N   1      35.149  11.297  19.223  0.00  0.00     0.048 A 
HETATM   18  C   UNK N   1      35.031  12.690  19.082  0.00  0.00     0.017 A 
HETATM   19  C   UNK N   1      35.302  13.287  17.847  0.00  0.00     0.012 A 
BRANCH  17  20
HETATM   20  C   UNK N   1      34.756  10.630  20.500  0.00  0.00     0.417 C 
HETATM   21  F   UNK N   1      34.141   9.424  20.228  0.00  0.00    -0.166 F 
HETATM   22  F   UNK N   1      35.886  10.409  21.268  0.00  0.00    -0.166 F 
HETATM   23  F   UNK N   1      33.885  11.430  21.222  0.00  0.00    -0.166 F 
ENDBRANCH  17  20
ENDBRANCH  13  14
ENDBRANCH   8  12
BRANCH   1  24
HETATM   24  C   UNK N   1      34.878  15.863   8.363  0.00  0.00    -0.017 A 
HETATM   25  C   UNK N   1      34.336  16.985   9.010  0.00  0.00     0.013 A 
HETATM   26  C   UNK N   1      33.645  17.965   8.305  0.00  0.00     0.001 A 
HETATM   27  C   UNK N   1      33.459  17.835   6.935  0.00  0.00     0.001 A 
HETATM   28  C   UNK N   1      33.957  16.724   6.266  0.00  0.00     0.011 A 
HETATM   29  C   UNK N   1      34.672  15.714   6.933  0.00  0.00    -0.014 A 
BRANCH  29  30
HETATM   30  C   UNK N   1      35.090  14.500   6.075  0.00  0.00     0.078 C 
HETATM   31  C   UNK N   1      34.564  13.195   6.664  0.00  0.00     0.051 C 
HETATM   32  C   UNK N   1      36.597  14.440   5.872  0.00  0.00     0.051 C 
BRANCH  30  33
HETATM   33  O   UNK N   1      34.535  14.589   4.797  0.00  0.00    -0.386 OA
HETATM   34  H   UNK N   1      33.666  14.204   4.603  0.00  0.00     0.211 HD
ENDBRANCH  30  33
ENDBRANCH  29  30
ENDBRANCH   1  24
TORSDOF 6
ENDMDL
MODEL 9
REMARK VINA RESULT:      -7.9      5.585     11.150
REMARK  6 active torsions:
REMARK  status: ('A' for Active; 'I' for Inactive)
REMARK    1  A    between atoms: C_2  and  C_4 
REMARK    2  A    between atoms: C_2  and  O_32 
REMARK    3  A    between atoms: C_9  and  C_10 
REMARK    4  A    between atoms: C_17  and  C_20 
REMARK    5  A    between atoms: C_21  and  C_22 
REMARK    6  A    between atoms: C_25  and  C_28 
ROOT
HETATM    1  C   UNK N   1      35.081  11.595  15.380  0.00  0.00    -0.023 A 
HETATM    2  C   UNK N   1      34.309  10.487  14.918  0.00  0.00     0.014 A 
HETATM    3  C   UNK N   1      33.970  10.373  13.548  0.00  0.00     0.033 A 
HETATM    4  C   UNK N   1      34.420  11.387  12.697  0.00  0.00     0.060 A 
HETATM    5  C   UNK N   1      35.223  12.377  13.148  0.00  0.00     0.061 A 
HETATM    6  C   UNK N   1      35.580  12.502  14.451  0.00  0.00     0.044 A 
HETATM    7  N   UNK N   1      35.442  13.270  12.186  0.00  0.00    -0.341 N 
HETATM    8  C   UNK N   1      34.734  12.797  11.149  0.00  0.00     0.106 A 
HETATM    9  N   UNK N   1      34.096  11.621  11.421  0.00  0.00    -0.341 N 
ATOM     10  HN  UNK N   1      33.516  11.056  10.800  1.00  0.00     0.167 HD
HETATM   11  H   UNK N   1      35.994  14.085  12.226  0.00  0.00     0.167 HD
ENDROOT
BRANCH   8  12
HETATM   12  C   UNK N   1      34.577  13.567   9.934  0.00  0.00     0.049 C 
HETATM   13  C   UNK N   1      34.322  14.863   9.960  0.00  0.00     0.015 C 
BRANCH  13  14
HETATM   14  C   UNK N   1      34.108  15.569   8.709  0.00  0.00    -0.036 A 
HETATM   15  C   UNK N   1      32.968  16.357   8.619  0.00  0.00     0.012 A 
HETATM   16  C   UNK N   1      32.585  16.888   7.397  0.00  0.00     0.017 A 
HETATM   17  C   UNK N   1      33.352  16.656   6.251  0.00  0.00     0.048 A 
HETATM   18  C   UNK N   1      34.534  15.903   6.345  0.00  0.00     0.017 A 
HETATM   19  C   UNK N   1      34.900  15.338   7.571  0.00  0.00     0.012 A 
BRANCH  17  20
HETATM   20  C   UNK N   1      32.886  17.172   4.929  0.00  0.00     0.417 C 
HETATM   21  F   UNK N   1      31.546  17.497   4.999  0.00  0.00    -0.166 F 
HETATM   22  F   UNK N   1      33.617  18.297   4.593  0.00  0.00    -0.166 F 
HETATM   23  F   UNK N   1      33.069  16.218   3.941  0.00  0.00    -0.166 F 
ENDBRANCH  17  20
ENDBRANCH  13  14
ENDBRANCH   8  12
BRANCH   1  24
HETATM   24  C   UNK N   1      35.158  11.921  16.831  0.00  0.00    -0.017 A 
HETATM   25  C   UNK N   1      34.823  13.231  17.212  0.00  0.00     0.013 A 
HETATM   26  C   UNK N   1      34.941  13.653  18.532  0.00  0.00     0.001 A 
HETATM   27  C   UNK N   1      35.419  12.782  19.502  0.00  0.00     0.001 A 
HETATM   28  C   UNK N   1      35.787  11.488  19.156  0.00  0.00     0.011 A 
HETATM   29  C   UNK N   1      35.674  11.011  17.839  0.00  0.00    -0.014 A 
BRANCH  29  30
HETATM   30  C   UNK N   1      36.199   9.581  17.588  0.00  0.00     0.078 C 
HETATM   31  C   UNK N   1      36.852   9.000  18.839  0.00  0.00     0.051 C 
HETATM   32  C   UNK N   1      37.148   9.524  16.400  0.00  0.00     0.051 C 
BRANCH  30  33
HETATM   33  O   UNK N   1      35.146   8.719  17.276  0.00  0.00    -0.386 OA
HETATM   34  H   UNK N   1      34.381   8.633  17.867  0.00  0.00     0.211 HD
ENDBRANCH  30  33
ENDBRANCH  29  30
ENDBRANCH   1  24
TORSDOF 6
ENDMDL
