MODEL 1
REMARK VINA RESULT:      -7.2      0.000      0.000
REMARK  7 active torsions:
REMARK  status: ('A' for Active; 'I' for Inactive)
REMARK    1  A    between atoms: C_12  and  C_5 
REMARK    2  A    between atoms: C_13  and  C_5 
REMARK    3  A    between atoms: N_24  and  C_12 
REMARK    4  A    between atoms: N_26  and  C_13 
REMARK    5  A    between atoms: C_19  and  C_18 
REMARK    6  A    between atoms: N_25  and  C_18 
REMARK    7  A    between atoms: O_27  and  C_19 
ROOT
HETATM    1  C   UNK N   1      36.560  15.682  17.389  0.00  0.00     0.001 A 
HETATM    2  C   UNK N   1      35.764   7.920  15.824  0.00  0.00     0.001 A 
HETATM    3  C   UNK N   1      37.209  15.604  16.172  0.00  0.00     0.002 A 
HETATM    4  C   UNK N   1      36.461   8.328  14.702  0.00  0.00     0.002 A 
HETATM    5  C   UNK N   1      35.891  14.568  17.876  0.00  0.00     0.014 A 
HETATM    6  C   UNK N   1      35.310   8.871  16.726  0.00  0.00     0.014 A 
HETATM    7  C   UNK N   1      37.185  14.411  15.457  0.00  0.00     0.030 A 
HETATM    8  C   UNK N   1      36.701   9.683  14.497  0.00  0.00     0.030 A 
HETATM    9  C   UNK N   1      35.097  12.331  17.855  0.00  0.00     0.014 C 
HETATM   10  C   UNK N   1      34.969  11.052  17.596  0.00  0.00     0.014 C 
HETATM   11  C   UNK N   1      35.867  13.350  17.178  0.00  0.00    -0.009 A 
HETATM   12  C   UNK N   1      35.552  10.241  16.547  0.00  0.00    -0.009 A 
HETATM   13  C   UNK N   1      36.536  13.241  15.924  0.00  0.00     0.045 A 
HETATM   14  C   UNK N   1      36.278  10.687  15.403  0.00  0.00     0.045 A 
HETATM   15  N   UNK N   1      36.621  12.064  15.070  0.00  0.00    -0.345 N 
ENDROOT
BRANCH  15  16
HETATM   16  C   UNK N   1      37.133  12.312  13.714  0.00  0.00     0.131 C 
BRANCH  16  17
HETATM   17  C   UNK N   1      36.052  12.579  12.655  0.00  0.00     0.050 C 
BRANCH  17  18
HETATM   18  C   UNK N   1      36.637  13.153  11.365  0.00  0.00     0.274 C 
BRANCH  18  19
HETATM   19  N   UNK N   1      35.836  14.208  10.735  0.00  0.00     0.091 N 
HETATM   20  C   UNK N   1      36.134  15.518  11.300  0.00  0.00     0.302 C 
HETATM   21  C   UNK N   1      35.086  16.509  10.782  0.00  0.00     0.302 C 
HETATM   22  N   UNK N   1      35.097  16.565   9.314  0.00  0.00     0.093 N 
HETATM   23  C   UNK N   1      34.925  15.228   8.742  0.00  0.00     0.302 C 
HETATM   24  C   UNK N   1      35.984  14.280   9.284  0.00  0.00     0.302 C 
BRANCH  22  25
HETATM   25  C   UNK N   1      33.921  17.319   8.911  0.00  0.00     0.298 C 
BRANCH  25  26
HETATM   26  C   UNK N   1      34.311  18.437   7.965  0.00  0.00     0.194 C 
BRANCH  26  27
HETATM   27  O   UNK N   1      35.309  19.216   8.548  0.00  0.00    -0.399 OA
HETATM   28  H   UNK N   1      36.139  19.402   8.081  0.00  0.00     0.209 HD
ENDBRANCH  26  27
ENDBRANCH  25  26
ENDBRANCH  22  25
ENDBRANCH  18  19
ENDBRANCH  17  18
ENDBRANCH  16  17
ENDBRANCH  15  16
TORSDOF 7
ENDMDL
MODEL 2
REMARK VINA RESULT:      -7.2     19.591     25.186
REMARK  7 active torsions:
REMARK  status: ('A' for Active; 'I' for Inactive)
REMARK    1  A    between atoms: C_12  and  C_5 
REMARK    2  A    between atoms: C_13  and  C_5 
REMARK    3  A    between atoms: N_24  and  C_12 
REMARK    4  A    between atoms: N_26  and  C_13 
REMARK    5  A    between atoms: C_19  and  C_18 
REMARK    6  A    between atoms: N_25  and  C_18 
REMARK    7  A    between atoms: O_27  and  C_19 
ROOT
HETATM    1  C   UNK N   1      27.276  30.323  -3.975  0.00  0.00     0.001 A 
HETATM    2  C   UNK N   1      26.764  25.428 -10.228  0.00  0.00     0.001 A 
HETATM    3  C   UNK N   1      26.274  29.474  -3.547  0.00  0.00     0.002 A 
HETATM    4  C   UNK N   1      25.794  24.882  -9.407  0.00  0.00     0.002 A 
HETATM    5  C   UNK N   1      27.951  30.040  -5.154  0.00  0.00     0.014 A 
HETATM    6  C   UNK N   1      27.571  26.447  -9.743  0.00  0.00     0.014 A 
HETATM    7  C   UNK N   1      25.953  28.353  -4.306  0.00  0.00     0.030 A 
HETATM    8  C   UNK N   1      25.638  25.366  -8.112  0.00  0.00     0.030 A 
HETATM    9  C   UNK N   1      28.471  28.808  -7.116  0.00  0.00     0.014 C 
HETATM   10  C   UNK N   1      28.383  28.001  -8.145  0.00  0.00     0.014 C 
HETATM   11  C   UNK N   1      27.632  28.923  -5.943  0.00  0.00    -0.009 A 
HETATM   12  C   UNK N   1      27.422  26.960  -8.446  0.00  0.00    -0.009 A 
HETATM   13  C   UNK N   1      26.596  28.036  -5.529  0.00  0.00     0.045 A 
HETATM   14  C   UNK N   1      26.422  26.422  -7.584  0.00  0.00     0.045 A 
HETATM   15  N   UNK N   1      26.130  26.841  -6.219  0.00  0.00    -0.345 N 
ENDROOT
BRANCH  15  16
HETATM   16  C   UNK N   1      25.246  25.970  -5.430  0.00  0.00     0.131 C 
BRANCH  16  17
HETATM   17  C   UNK N   1      25.892  24.663  -4.945  0.00  0.00     0.050 C 
BRANCH  17  18
HETATM   18  C   UNK N   1      26.775  24.877  -3.716  0.00  0.00     0.274 C 
BRANCH  18  19
HETATM   19  N   UNK N   1      28.103  24.257  -3.789  0.00  0.00     0.091 N 
HETATM   20  C   UNK N   1      29.147  25.249  -4.014  0.00  0.00     0.302 C 
HETATM   21  C   UNK N   1      30.447  24.506  -4.336  0.00  0.00     0.302 C 
HETATM   22  N   UNK N   1      30.821  23.603  -3.240  0.00  0.00     0.093 N 
HETATM   23  C   UNK N   1      29.723  22.687  -2.923  0.00  0.00     0.302 C 
HETATM   24  C   UNK N   1      28.455  23.467  -2.613  0.00  0.00     0.302 C 
BRANCH  22  25
HETATM   25  C   UNK N   1      31.902  22.765  -3.731  0.00  0.00     0.298 C 
BRANCH  25  26
HETATM   26  C   UNK N   1      31.813  21.379  -3.123  0.00  0.00     0.194 C 
BRANCH  26  27
HETATM   27  O   UNK N   1      32.660  21.296  -2.020  0.00  0.00    -0.399 OA
HETATM   28  H   UNK N   1      32.764  20.467  -1.528  0.00  0.00     0.209 HD
ENDBRANCH  26  27
ENDBRANCH  25  26
ENDBRANCH  22  25
ENDBRANCH  18  19
ENDBRANCH  17  18
ENDBRANCH  16  17
ENDBRANCH  15  16
TORSDOF 7
ENDMDL
MODEL 3
REMARK VINA RESULT:      -7.1      1.546      4.091
REMARK  7 active torsions:
REMARK  status: ('A' for Active; 'I' for Inactive)
REMARK    1  A    between atoms: C_12  and  C_5 
REMARK    2  A    between atoms: C_13  and  C_5 
REMARK    3  A    between atoms: N_24  and  C_12 
REMARK    4  A    between atoms: N_26  and  C_13 
REMARK    5  A    between atoms: C_19  and  C_18 
REMARK    6  A    between atoms: N_25  and  C_18 
REMARK    7  A    between atoms: O_27  and  C_19 
ROOT
HETATM    1  C   UNK N   1      35.110   8.055  12.403  0.00  0.00     0.001 A 
HETATM    2  C   UNK N   1      35.350  12.634  18.907  0.00  0.00     0.001 A 
HETATM    3  C   UNK N   1      34.756   9.276  11.862  0.00  0.00     0.002 A 
HETATM    4  C   UNK N   1      34.983  13.571  17.959  0.00  0.00     0.002 A 
HETATM    5  C   UNK N   1      35.516   7.989  13.728  0.00  0.00     0.014 A 
HETATM    6  C   UNK N   1      35.689  11.351  18.501  0.00  0.00     0.014 A 
HETATM    7  C   UNK N   1      34.808  10.418  12.656  0.00  0.00     0.030 A 
HETATM    8  C   UNK N   1      34.954  13.213  16.615  0.00  0.00     0.030 A 
HETATM    9  C   UNK N   1      36.030   8.835  15.886  0.00  0.00     0.014 C 
HETATM   10  C   UNK N   1      36.068   9.591  16.956  0.00  0.00     0.014 C 
HETATM   11  C   UNK N   1      35.560   9.127  14.550  0.00  0.00    -0.009 A 
HETATM   12  C   UNK N   1      35.654  10.964  17.153  0.00  0.00    -0.009 A 
HETATM   13  C   UNK N   1      35.192  10.397  14.019  0.00  0.00     0.045 A 
HETATM   14  C   UNK N   1      35.269  11.910  16.156  0.00  0.00     0.045 A 
HETATM   15  N   UNK N   1      35.172  11.673  14.722  0.00  0.00    -0.345 N 
ENDROOT
BRANCH  15  16
HETATM   16  C   UNK N   1      35.020  12.857  13.862  0.00  0.00     0.131 C 
BRANCH  16  17
HETATM   17  C   UNK N   1      36.333  13.576  13.515  0.00  0.00     0.050 C 
BRANCH  17  18
HETATM   18  C   UNK N   1      36.718  13.398  12.047  0.00  0.00     0.274 C 
BRANCH  18  19
HETATM   19  N   UNK N   1      36.206  14.431  11.140  0.00  0.00     0.091 N 
HETATM   20  C   UNK N   1      35.086  13.941  10.346  0.00  0.00     0.302 C 
HETATM   21  C   UNK N   1      34.787  14.977   9.257  0.00  0.00     0.302 C 
HETATM   22  N   UNK N   1      34.468  16.283   9.849  0.00  0.00     0.093 N 
HETATM   23  C   UNK N   1      35.536  16.720  10.750  0.00  0.00     0.302 C 
HETATM   24  C   UNK N   1      35.800  15.662  11.811  0.00  0.00     0.302 C 
BRANCH  22  25
HETATM   25  C   UNK N   1      34.452  17.247   8.762  0.00  0.00     0.298 C 
BRANCH  25  26
HETATM   26  C   UNK N   1      34.497  16.535   7.424  0.00  0.00     0.194 C 
BRANCH  26  27
HETATM   27  O   UNK N   1      34.561  17.474   6.396  0.00  0.00    -0.399 OA
HETATM   28  H   UNK N   1      35.409  17.728   5.999  0.00  0.00     0.209 HD
ENDBRANCH  26  27
ENDBRANCH  25  26
ENDBRANCH  22  25
ENDBRANCH  18  19
ENDBRANCH  17  18
ENDBRANCH  16  17
ENDBRANCH  15  16
TORSDOF 7
ENDMDL
MODEL 4
REMARK VINA RESULT:      -6.9      4.202     10.685
REMARK  7 active torsions:
REMARK  status: ('A' for Active; 'I' for Inactive)
REMARK    1  A    between atoms: C_12  and  C_5 
REMARK    2  A    between atoms: C_13  and  C_5 
REMARK    3  A    between atoms: N_24  and  C_12 
REMARK    4  A    between atoms: N_26  and  C_13 
REMARK    5  A    between atoms: C_19  and  C_18 
REMARK    6  A    between atoms: N_25  and  C_18 
REMARK    7  A    between atoms: O_27  and  C_19 
ROOT
HETATM    1  C   UNK N   1      32.301  16.263   2.774  0.00  0.00     0.001 A 
HETATM    2  C   UNK N   1      28.158  18.175   9.293  0.00  0.00     0.001 A 
HETATM    3  C   UNK N   1      33.315  16.731   3.587  0.00  0.00     0.002 A 
HETATM    4  C   UNK N   1      29.432  18.521   9.701  0.00  0.00     0.002 A 
HETATM    5  C   UNK N   1      31.023  16.118   3.295  0.00  0.00     0.014 A 
HETATM    6  C   UNK N   1      27.983  17.524   8.080  0.00  0.00     0.014 A 
HETATM    7  C   UNK N   1      33.039  17.054   4.912  0.00  0.00     0.030 A 
HETATM    8  C   UNK N   1      30.519  18.218   8.888  0.00  0.00     0.030 A 
HETATM    9  C   UNK N   1      29.335  16.206   4.962  0.00  0.00     0.014 C 
HETATM   10  C   UNK N   1      28.655  16.523   6.036  0.00  0.00     0.014 C 
HETATM   11  C   UNK N   1      30.720  16.453   4.624  0.00  0.00    -0.009 A 
HETATM   12  C   UNK N   1      29.064  17.222   7.237  0.00  0.00    -0.009 A 
HETATM   13  C   UNK N   1      31.746  16.946   5.482  0.00  0.00     0.045 A 
HETATM   14  C   UNK N   1      30.388  17.578   7.630  0.00  0.00     0.045 A 
HETATM   15  N   UNK N   1      31.613  17.345   6.876  0.00  0.00    -0.345 N 
ENDROOT
BRANCH  15  16
HETATM   16  C   UNK N   1      32.882  17.549   7.591  0.00  0.00     0.131 C 
BRANCH  16  17
HETATM   17  C   UNK N   1      33.307  16.384   8.497  0.00  0.00     0.050 C 
BRANCH  17  18
HETATM   18  C   UNK N   1      34.583  16.695   9.278  0.00  0.00     0.274 C 
BRANCH  18  19
HETATM   19  N   UNK N   1      35.014  15.646  10.208  0.00  0.00     0.091 N 
HETATM   20  C   UNK N   1      35.815  14.629   9.538  0.00  0.00     0.302 C 
HETATM   21  C   UNK N   1      35.998  13.455  10.505  0.00  0.00     0.302 C 
HETATM   22  N   UNK N   1      36.653  13.893  11.745  0.00  0.00     0.093 N 
HETATM   23  C   UNK N   1      35.920  15.004  12.355  0.00  0.00     0.302 C 
HETATM   24  C   UNK N   1      35.760  16.143  11.361  0.00  0.00     0.302 C 
BRANCH  22  25
HETATM   25  C   UNK N   1      36.555  12.792  12.688  0.00  0.00     0.298 C 
BRANCH  25  26
HETATM   26  C   UNK N   1      35.476  13.072  13.715  0.00  0.00     0.194 C 
BRANCH  26  27
HETATM   27  O   UNK N   1      34.324  12.356  13.391  0.00  0.00    -0.399 OA
HETATM   28  H   UNK N   1      34.329  11.691  12.685  0.00  0.00     0.209 HD
ENDBRANCH  26  27
ENDBRANCH  25  26
ENDBRANCH  22  25
ENDBRANCH  18  19
ENDBRANCH  17  18
ENDBRANCH  16  17
ENDBRANCH  15  16
TORSDOF 7
ENDMDL
MODEL 5
REMARK VINA RESULT:      -6.9      2.535      3.598
REMARK  7 active torsions:
REMARK  status: ('A' for Active; 'I' for Inactive)
REMARK    1  A    between atoms: C_12  and  C_5 
REMARK    2  A    between atoms: C_13  and  C_5 
REMARK    3  A    between atoms: N_24  and  C_12 
REMARK    4  A    between atoms: N_26  and  C_13 
REMARK    5  A    between atoms: C_19  and  C_18 
REMARK    6  A    between atoms: N_25  and  C_18 
REMARK    7  A    between atoms: O_27  and  C_19 
ROOT
HETATM    1  C   UNK N   1      36.388  14.020  16.683  0.00  0.00     0.001 A 
HETATM    2  C   UNK N   1      33.769   9.581  10.621  0.00  0.00     0.001 A 
HETATM    3  C   UNK N   1      36.895  14.732  15.614  0.00  0.00     0.002 A 
HETATM    4  C   UNK N   1      34.438  10.573   9.929  0.00  0.00     0.002 A 
HETATM    5  C   UNK N   1      35.534  12.952  16.447  0.00  0.00     0.014 A 
HETATM    6  C   UNK N   1      33.614   9.694  11.995  0.00  0.00     0.014 A 
HETATM    7  C   UNK N   1      36.547  14.365  14.318  0.00  0.00     0.030 A 
HETATM    8  C   UNK N   1      34.952  11.665  10.620  0.00  0.00     0.030 A 
HETATM    9  C   UNK N   1      34.268  11.435  15.130  0.00  0.00     0.014 C 
HETATM   10  C   UNK N   1      33.839  10.705  14.130  0.00  0.00     0.014 C 
HETATM   11  C   UNK N   1      35.182  12.556  15.146  0.00  0.00    -0.009 A 
HETATM   12  C   UNK N   1      34.137  10.779  12.714  0.00  0.00    -0.009 A 
HETATM   13  C   UNK N   1      35.699  13.268  14.025  0.00  0.00     0.045 A 
HETATM   14  C   UNK N   1      34.841  11.811  12.025  0.00  0.00     0.045 A 
HETATM   15  N   UNK N   1      35.449  12.996  12.617  0.00  0.00    -0.345 N 
ENDROOT
BRANCH  15  16
HETATM   16  C   UNK N   1      35.883  14.052  11.690  0.00  0.00     0.131 C 
BRANCH  16  17
HETATM   17  C   UNK N   1      34.814  15.107  11.365  0.00  0.00     0.050 C 
BRANCH  17  18
HETATM   18  C   UNK N   1      35.327  16.172  10.398  0.00  0.00     0.274 C 
BRANCH  18  19
HETATM   19  N   UNK N   1      34.477  16.409   9.226  0.00  0.00     0.091 N 
HETATM   20  C   UNK N   1      34.686  17.741   8.671  0.00  0.00     0.302 C 
HETATM   21  C   UNK N   1      33.590  18.000   7.632  0.00  0.00     0.302 C 
HETATM   22  N   UNK N   1      33.625  16.987   6.569  0.00  0.00     0.093 N 
HETATM   23  C   UNK N   1      33.545  15.638   7.134  0.00  0.00     0.302 C 
HETATM   24  C   UNK N   1      34.648  15.427   8.159  0.00  0.00     0.302 C 
BRANCH  22  25
HETATM   25  C   UNK N   1      32.414  17.156   5.783  0.00  0.00     0.298 C 
BRANCH  25  26
HETATM   26  C   UNK N   1      32.758  17.604   4.376  0.00  0.00     0.194 C 
BRANCH  26  27
HETATM   27  O   UNK N   1      31.593  17.978   3.707  0.00  0.00    -0.399 OA
HETATM   28  H   UNK N   1      30.753  17.522   3.868  0.00  0.00     0.209 HD
ENDBRANCH  26  27
ENDBRANCH  25  26
ENDBRANCH  22  25
ENDBRANCH  18  19
ENDBRANCH  17  18
ENDBRANCH  16  17
ENDBRANCH  15  16
TORSDOF 7
ENDMDL
MODEL 6
REMARK VINA RESULT:      -6.9     12.967     17.447
REMARK  7 active torsions:
REMARK  status: ('A' for Active; 'I' for Inactive)
REMARK    1  A    between atoms: C_12  and  C_5 
REMARK    2  A    between atoms: C_13  and  C_5 
REMARK    3  A    between atoms: N_24  and  C_12 
REMARK    4  A    between atoms: N_26  and  C_13 
REMARK    5  A    between atoms: C_19  and  C_18 
REMARK    6  A    between atoms: N_25  and  C_18 
REMARK    7  A    between atoms: O_27  and  C_19 
ROOT
HETATM    1  C   UNK N   1      19.708  19.436   2.491  0.00  0.00     0.001 A 
HETATM    2  C   UNK N   1      27.438  18.342   4.029  0.00  0.00     0.001 A 
HETATM    3  C   UNK N   1      19.685  18.146   2.983  0.00  0.00     0.002 A 
HETATM    4  C   UNK N   1      26.931  17.119   4.429  0.00  0.00     0.002 A 
HETATM    5  C   UNK N   1      20.889  20.162   2.538  0.00  0.00     0.014 A 
HETATM    6  C   UNK N   1      26.564  19.356   3.666  0.00  0.00     0.014 A 
HETATM    7  C   UNK N   1      20.846  17.593   3.514  0.00  0.00     0.030 A 
HETATM    8  C   UNK N   1      25.555  16.922   4.455  0.00  0.00     0.030 A 
HETATM    9  C   UNK N   1      23.180  20.552   3.025  0.00  0.00     0.014 C 
HETATM   10  C   UNK N   1      24.453  20.368   3.278  0.00  0.00     0.014 C 
HETATM   11  C   UNK N   1      22.076  19.618   3.055  0.00  0.00    -0.009 A 
HETATM   12  C   UNK N   1      25.172  19.174   3.671  0.00  0.00    -0.009 A 
HETATM   13  C   UNK N   1      22.082  18.286   3.561  0.00  0.00     0.045 A 
HETATM   14  C   UNK N   1      24.625  17.919   4.069  0.00  0.00     0.045 A 
HETATM   15  N   UNK N   1      23.213  17.562   4.125  0.00  0.00    -0.345 N 
ENDROOT
BRANCH  15  16
HETATM   16  C   UNK N   1      22.870  16.311   4.819  0.00  0.00     0.131 C 
BRANCH  16  17
HETATM   17  C   UNK N   1      22.645  16.454   6.332  0.00  0.00     0.050 C 
BRANCH  17  18
HETATM   18  C   UNK N   1      21.571  15.498   6.849  0.00  0.00     0.274 C 
BRANCH  18  19
HETATM   19  N   UNK N   1      22.054  14.451   7.756  0.00  0.00     0.091 N 
HETATM   20  C   UNK N   1      21.297  14.427   9.001  0.00  0.00     0.302 C 
HETATM   21  C   UNK N   1      22.022  13.499   9.981  0.00  0.00     0.302 C 
HETATM   22  N   UNK N   1      22.147  12.144   9.426  0.00  0.00     0.093 N 
HETATM   23  C   UNK N   1      22.794  12.178   8.113  0.00  0.00     0.302 C 
HETATM   24  C   UNK N   1      22.043  13.111   7.176  0.00  0.00     0.302 C 
BRANCH  22  25
HETATM   25  C   UNK N   1      23.056  11.414  10.293  0.00  0.00     0.298 C 
BRANCH  25  26
HETATM   26  C   UNK N   1      23.468  12.276  11.471  0.00  0.00     0.194 C 
BRANCH  26  27
HETATM   27  O   UNK N   1      24.852  12.221  11.629  0.00  0.00    -0.399 OA
HETATM   28  H   UNK N   1      25.403  13.011  11.511  0.00  0.00     0.209 HD
ENDBRANCH  26  27
ENDBRANCH  25  26
ENDBRANCH  22  25
ENDBRANCH  18  19
ENDBRANCH  17  18
ENDBRANCH  16  17
ENDBRANCH  15  16
TORSDOF 7
ENDMDL
MODEL 7
REMARK VINA RESULT:      -6.8     12.033     14.240
REMARK  7 active torsions:
REMARK  status: ('A' for Active; 'I' for Inactive)
REMARK    1  A    between atoms: C_12  and  C_5 
REMARK    2  A    between atoms: C_13  and  C_5 
REMARK    3  A    between atoms: N_24  and  C_12 
REMARK    4  A    between atoms: N_26  and  C_13 
REMARK    5  A    between atoms: C_19  and  C_18 
REMARK    6  A    between atoms: N_25  and  C_18 
REMARK    7  A    between atoms: O_27  and  C_19 
ROOT
HETATM    1  C   UNK N   1      21.392  17.987   6.056  0.00  0.00     0.001 A 
HETATM    2  C   UNK N   1      22.092  11.826  11.044  0.00  0.00     0.001 A 
HETATM    3  C   UNK N   1      22.568  17.426   5.597  0.00  0.00     0.002 A 
HETATM    4  C   UNK N   1      23.224  11.648  10.271  0.00  0.00     0.002 A 
HETATM    5  C   UNK N   1      20.657  17.327   7.030  0.00  0.00     0.014 A 
HETATM    6  C   UNK N   1      21.174  12.805  10.692  0.00  0.00     0.014 A 
HETATM    7  C   UNK N   1      22.998  16.211   6.121  0.00  0.00     0.030 A 
HETATM    8  C   UNK N   1      23.429  12.454   9.156  0.00  0.00     0.030 A 
HETATM    9  C   UNK N   1      20.157  15.586   8.566  0.00  0.00     0.014 C 
HETATM   10  C   UNK N   1      20.276  14.571   9.387  0.00  0.00     0.014 C 
HETATM   11  C   UNK N   1      21.082  16.108   7.583  0.00  0.00    -0.009 A 
HETATM   12  C   UNK N   1      21.367  13.640   9.580  0.00  0.00    -0.009 A 
HETATM   13  C   UNK N   1      22.295  15.512   7.134  0.00  0.00     0.045 A 
HETATM   14  C   UNK N   1      22.532  13.482   8.772  0.00  0.00     0.045 A 
HETATM   15  N   UNK N   1      22.888  14.264   7.595  0.00  0.00    -0.345 N 
ENDROOT
BRANCH  15  16
HETATM   16  C   UNK N   1      23.991  13.752   6.766  0.00  0.00     0.131 C 
BRANCH  16  17
HETATM   17  C   UNK N   1      25.395  14.169   7.231  0.00  0.00     0.050 C 
BRANCH  17  18
HETATM   18  C   UNK N   1      26.302  14.547   6.061  0.00  0.00     0.274 C 
BRANCH  18  19
HETATM   19  N   UNK N   1      26.583  15.981   5.929  0.00  0.00     0.091 N 
HETATM   20  C   UNK N   1      27.946  16.300   6.336  0.00  0.00     0.302 C 
HETATM   21  C   UNK N   1      28.072  17.825   6.419  0.00  0.00     0.302 C 
HETATM   22  N   UNK N   1      27.759  18.448   5.126  0.00  0.00     0.093 N 
HETATM   23  C   UNK N   1      26.440  18.026   4.651  0.00  0.00     0.302 C 
HETATM   24  C   UNK N   1      26.360  16.509   4.587  0.00  0.00     0.302 C 
BRANCH  22  25
HETATM   25  C   UNK N   1      27.654  19.879   5.360  0.00  0.00     0.298 C 
BRANCH  25  26
HETATM   26  C   UNK N   1      27.469  20.159   6.838  0.00  0.00     0.194 C 
BRANCH  26  27
HETATM   27  O   UNK N   1      26.207  20.710   7.056  0.00  0.00    -0.399 OA
HETATM   28  H   UNK N   1      25.914  21.500   6.575  0.00  0.00     0.209 HD
ENDBRANCH  26  27
ENDBRANCH  25  26
ENDBRANCH  22  25
ENDBRANCH  18  19
ENDBRANCH  17  18
ENDBRANCH  16  17
ENDBRANCH  15  16
TORSDOF 7
ENDMDL
MODEL 8
REMARK VINA RESULT:      -6.7      1.263      2.099
REMARK  7 active torsions:
REMARK  status: ('A' for Active; 'I' for Inactive)
REMARK    1  A    between atoms: C_12  and  C_5 
REMARK    2  A    between atoms: C_13  and  C_5 
REMARK    3  A    between atoms: N_24  and  C_12 
REMARK    4  A    between atoms: N_26  and  C_13 
REMARK    5  A    between atoms: C_19  and  C_18 
REMARK    6  A    between atoms: N_25  and  C_18 
REMARK    7  A    between atoms: O_27  and  C_19 
ROOT
HETATM    1  C   UNK N   1      35.309  13.255  19.215  0.00  0.00     0.001 A 
HETATM    2  C   UNK N   1      35.997   7.676  13.583  0.00  0.00     0.001 A 
HETATM    3  C   UNK N   1      35.278  14.041  18.079  0.00  0.00     0.002 A 
HETATM    4  C   UNK N   1      35.919   8.811  12.798  0.00  0.00     0.002 A 
HETATM    5  C   UNK N   1      35.292  11.874  19.088  0.00  0.00     0.014 A 
HETATM    6  C   UNK N   1      35.799   7.780  14.952  0.00  0.00     0.014 A 
HETATM    7  C   UNK N   1      35.235  13.435  16.827  0.00  0.00     0.030 A 
HETATM    8  C   UNK N   1      35.651  10.040  13.391  0.00  0.00     0.030 A 
HETATM    9  C   UNK N   1      35.231   9.800  17.933  0.00  0.00     0.014 C 
HETATM   10  C   UNK N   1      35.346   8.883  17.003  0.00  0.00     0.014 C 
HETATM   11  C   UNK N   1      35.264  11.243  17.834  0.00  0.00    -0.009 A 
HETATM   12  C   UNK N   1      35.541   9.011  15.574  0.00  0.00    -0.009 A 
HETATM   13  C   UNK N   1      35.240  12.030  16.646  0.00  0.00     0.045 A 
HETATM   14  C   UNK N   1      35.467  10.199  14.787  0.00  0.00     0.045 A 
HETATM   15  N   UNK N   1      35.216  11.550  15.271  0.00  0.00    -0.345 N 
ENDROOT
BRANCH  15  16
HETATM   16  C   UNK N   1      34.915  12.573  14.258  0.00  0.00     0.131 C 
BRANCH  16  17
HETATM   17  C   UNK N   1      36.088  13.503  13.911  0.00  0.00     0.050 C 
BRANCH  17  18
HETATM   18  C   UNK N   1      36.700  13.177  12.550  0.00  0.00     0.274 C 
BRANCH  18  19
HETATM   19  N   UNK N   1      36.330  14.095  11.466  0.00  0.00     0.091 N 
HETATM   20  C   UNK N   1      35.434  13.461  10.508  0.00  0.00     0.302 C 
HETATM   21  C   UNK N   1      35.310  14.383   9.291  0.00  0.00     0.302 C 
HETATM   22  N   UNK N   1      34.797  15.703   9.683  0.00  0.00     0.093 N 
HETATM   23  C   UNK N   1      35.623  16.289  10.740  0.00  0.00     0.302 C 
HETATM   24  C   UNK N   1      35.720  15.340  11.924  0.00  0.00     0.302 C 
BRANCH  22  25
HETATM   25  C   UNK N   1      34.953  16.577   8.532  0.00  0.00     0.298 C 
BRANCH  25  26
HETATM   26  C   UNK N   1      34.194  17.871   8.746  0.00  0.00     0.194 C 
BRANCH  26  27
HETATM   27  O   UNK N   1      34.935  18.937   8.239  0.00  0.00    -0.399 OA
HETATM   28  H   UNK N   1      35.748  19.236   8.675  0.00  0.00     0.209 HD
ENDBRANCH  26  27
ENDBRANCH  25  26
ENDBRANCH  22  25
ENDBRANCH  18  19
ENDBRANCH  17  18
ENDBRANCH  16  17
ENDBRANCH  15  16
TORSDOF 7
ENDMDL
MODEL 9
REMARK VINA RESULT:      -6.6     12.137     14.487
REMARK  7 active torsions:
REMARK  status: ('A' for Active; 'I' for Inactive)
REMARK    1  A    between atoms: C_12  and  C_5 
REMARK    2  A    between atoms: C_13  and  C_5 
REMARK    3  A    between atoms: N_24  and  C_12 
REMARK    4  A    between atoms: N_26  and  C_13 
REMARK    5  A    between atoms: C_19  and  C_18 
REMARK    6  A    between atoms: N_25  and  C_18 
REMARK    7  A    between atoms: O_27  and  C_19 
ROOT
HETATM    1  C   UNK N   1      22.698  11.603  10.634  0.00  0.00     0.001 A 
HETATM    2  C   UNK N   1      21.062  17.385   5.417  0.00  0.00     0.001 A 
HETATM    3  C   UNK N   1      23.732  11.430   9.735  0.00  0.00     0.002 A 
HETATM    4  C   UNK N   1      22.202  16.852   4.845  0.00  0.00     0.002 A 
HETATM    5  C   UNK N   1      21.852  12.695  10.497  0.00  0.00     0.014 A 
HETATM    6  C   UNK N   1      20.652  16.937   6.665  0.00  0.00     0.014 A 
HETATM    7  C   UNK N   1      23.907  12.348   8.705  0.00  0.00     0.030 A 
HETATM    8  C   UNK N   1      22.917  15.871   5.524  0.00  0.00     0.030 A 
HETATM    9  C   UNK N   1      21.027  14.692   9.512  0.00  0.00     0.014 C 
HETATM   10  C   UNK N   1      20.759  15.642   8.650  0.00  0.00     0.014 C 
HETATM   11  C   UNK N   1      22.002  13.624   9.455  0.00  0.00    -0.009 A 
HETATM   12  C   UNK N   1      21.350  15.938   7.361  0.00  0.00    -0.009 A 
HETATM   13  C   UNK N   1      23.056  13.464   8.509  0.00  0.00     0.045 A 
HETATM   14  C   UNK N   1      22.523  15.365   6.788  0.00  0.00     0.045 A 
HETATM   15  N   UNK N   1      23.356  14.320   7.370  0.00  0.00    -0.345 N 
ENDROOT
BRANCH  15  16
HETATM   16  C   UNK N   1      24.658  14.076   6.731  0.00  0.00     0.131 C 
BRANCH  16  17
HETATM   17  C   UNK N   1      25.821  14.905   7.298  0.00  0.00     0.050 C 
BRANCH  17  18
HETATM   18  C   UNK N   1      26.787  15.366   6.207  0.00  0.00     0.274 C 
BRANCH  18  19
HETATM   19  N   UNK N   1      26.786  16.810   5.946  0.00  0.00     0.091 N 
HETATM   20  C   UNK N   1      28.106  17.394   6.152  0.00  0.00     0.302 C 
HETATM   21  C   UNK N   1      27.961  18.919   6.116  0.00  0.00     0.302 C 
HETATM   22  N   UNK N   1      27.394  19.362   4.836  0.00  0.00     0.093 N 
HETATM   23  C   UNK N   1      26.128  18.680   4.564  0.00  0.00     0.302 C 
HETATM   24  C   UNK N   1      26.318  17.172   4.611  0.00  0.00     0.302 C 
BRANCH  22  25
HETATM   25  C   UNK N   1      27.059  20.768   4.986  0.00  0.00     0.298 C 
BRANCH  25  26
HETATM   26  C   UNK N   1      27.286  21.215   6.418  0.00  0.00     0.194 C 
BRANCH  26  27
HETATM   27  O   UNK N   1      26.126  21.810   6.911  0.00  0.00    -0.399 OA
HETATM   28  H   UNK N   1      25.439  22.144   6.313  0.00  0.00     0.209 HD
ENDBRANCH  26  27
ENDBRANCH  25  26
ENDBRANCH  22  25
ENDBRANCH  18  19
ENDBRANCH  17  18
ENDBRANCH  16  17
ENDBRANCH  15  16
TORSDOF 7
ENDMDL
