MODEL 1
REMARK VINA RESULT:      -8.5      0.000      0.000
REMARK  4 active torsions:
REMARK  status: ('A' for Active; 'I' for Inactive)
REMARK    1  A    between atoms: C_6  and  N_12 
REMARK    2  A    between atoms: C_13  and  N_29 
REMARK    3  A    between atoms: C_14  and  C_18 
REMARK    4  A    between atoms: C_18  and  C_20 
ROOT
HETATM    1  N   UNK N   1      34.237  16.530   8.785  0.00  0.00    -0.240 N 
HETATM    2  C   UNK N   1      34.853  15.338   8.942  0.00  0.00     0.137 A 
HETATM    3  C   UNK N   1      35.549  15.364  10.116  0.00  0.00     0.079 A 
HETATM    4  C   UNK N   1      35.312  16.624  10.654  0.00  0.00     0.127 A 
HETATM    5  N   UNK N   1      34.515  17.305   9.814  0.00  0.00    -0.302 N 
ATOM      6  HN  UNK N   1      34.182  18.259   9.950  1.00  0.00     0.186 HD
ENDROOT
BRANCH   1   7
HETATM    7  C   UNK N   1      33.493  16.988   7.657  0.00  0.00     0.060 A 
HETATM    8  C   UNK N   1      32.092  16.986   7.707  0.00  0.00     0.063 A 
HETATM    9  C   UNK N   1      31.411  17.192   6.530  0.00  0.00     0.062 A 
HETATM   10  N   UNK N   1      30.092  17.118   6.339  0.00  0.00    -0.344 N 
HETATM   11  C   UNK N   1      32.045  17.403   5.348  0.00  0.00     0.060 A 
HETATM   12  C   UNK N   1      29.956  17.286   5.003  0.00  0.00     0.078 A 
HETATM   13  H   UNK N   1      29.385  16.976   7.010  0.00  0.00     0.167 HD
HETATM   14  C   UNK N   1      28.649  17.196   4.307  0.00  0.00     0.089 C 
HETATM   15  N   UNK N   1      31.140  17.469   4.362  0.00  0.00    -0.344 N 
ATOM     16  HN  UNK N   1      31.302  17.619   3.367  1.00  0.00     0.167 HD
HETATM   17  C   UNK N   1      33.430  17.469   5.251  0.00  0.00     0.034 A 
HETATM   18  C   UNK N   1      34.164  17.247   6.430  0.00  0.00     0.034 A 
ENDBRANCH   1   7
BRANCH   2  19
HETATM   19  N   UNK N   1      34.788  14.254   8.043  0.00  0.00    -0.383 N 
HETATM   20  H   UNK N   1      33.960  13.751   7.866  0.00  0.00     0.157 HD
HETATM   21  H   UNK N   1      35.608  13.988   7.568  0.00  0.00     0.157 HD
ENDBRANCH   2  19
BRANCH   3  22
HETATM   22  C   UNK N   1      36.411  14.335  10.728  0.00  0.00     0.213 C 
HETATM   23  O   UNK N   1      37.383  13.884  10.141  0.00  0.00    -0.285 OA
BRANCH  22  24
HETATM   24  C   UNK N   1      36.057  13.889  12.080  0.00  0.00     0.085 A 
HETATM   25  C   UNK N   1      35.074  12.978  12.464  0.00  0.00     0.047 A 
HETATM   26  C   UNK N   1      35.208  12.911  13.841  0.00  0.00    -0.007 A 
HETATM   27  C   UNK N   1      34.535  12.148  14.789  0.00  0.00     0.014 A 
HETATM   28  C   UNK N   1      36.203  13.769  14.209  0.00  0.00     0.043 A 
HETATM   29  C   UNK N   1      34.915  12.299  16.140  0.00  0.00     0.001 A 
HETATM   30  C   UNK N   1      35.939  13.202  16.506  0.00  0.00     0.002 A 
HETATM   31  C   UNK N   1      36.599  13.953  15.525  0.00  0.00     0.030 A 
HETATM   32  N   UNK N   1      36.726  14.367  13.152  0.00  0.00    -0.352 N 
HETATM   33  H   UNK N   1      37.457  15.028  13.147  0.00  0.00     0.166 HD
ENDBRANCH  22  24
ENDBRANCH   3  22
TORSDOF 4
ENDMDL
MODEL 2
REMARK VINA RESULT:      -8.3      2.248      8.461
REMARK  4 active torsions:
REMARK  status: ('A' for Active; 'I' for Inactive)
REMARK    1  A    between atoms: C_6  and  N_12 
REMARK    2  A    between atoms: C_13  and  N_29 
REMARK    3  A    between atoms: C_14  and  C_18 
REMARK    4  A    between atoms: C_18  and  C_20 
ROOT
HETATM    1  N   UNK N   1      35.408  14.407   9.182  0.00  0.00    -0.240 N 
HETATM    2  C   UNK N   1      34.846  15.630   9.294  0.00  0.00     0.137 A 
HETATM    3  C   UNK N   1      34.528  16.074   8.043  0.00  0.00     0.079 A 
HETATM    4  C   UNK N   1      34.921  15.055   7.182  0.00  0.00     0.127 A 
HETATM    5  N   UNK N   1      35.456  14.062   7.911  0.00  0.00    -0.302 N 
ATOM      6  HN  UNK N   1      35.834  13.189   7.543  1.00  0.00     0.186 HD
ENDROOT
BRANCH   1   7
HETATM    7  C   UNK N   1      35.990  13.614  10.215  0.00  0.00     0.060 A 
HETATM    8  C   UNK N   1      35.221  13.263  11.333  0.00  0.00     0.063 A 
HETATM    9  C   UNK N   1      35.874  12.720  12.414  0.00  0.00     0.062 A 
HETATM   10  N   UNK N   1      35.352  12.424  13.607  0.00  0.00    -0.344 N 
HETATM   11  C   UNK N   1      37.216  12.509  12.424  0.00  0.00     0.060 A 
HETATM   12  C   UNK N   1      36.425  12.034  14.334  0.00  0.00     0.078 A 
HETATM   13  H   UNK N   1      34.411  12.475  13.890  0.00  0.00     0.167 HD
HETATM   14  C   UNK N   1      36.341  11.683  15.773  0.00  0.00     0.089 C 
HETATM   15  N   UNK N   1      37.589  12.071  13.634  0.00  0.00    -0.344 N 
ATOM     16  HN  UNK N   1      38.525  11.824  13.954  1.00  0.00     0.167 HD
HETATM   17  C   UNK N   1      38.018  12.788  11.324  0.00  0.00     0.034 A 
HETATM   18  C   UNK N   1      37.390  13.360  10.204  0.00  0.00     0.034 A 
ENDBRANCH   1   7
BRANCH   2  19
HETATM   19  N   UNK N   1      34.627  16.327  10.500  0.00  0.00    -0.383 N 
HETATM   20  H   UNK N   1      35.287  16.945  10.892  0.00  0.00     0.157 HD
HETATM   21  H   UNK N   1      33.775  16.191  10.973  0.00  0.00     0.157 HD
ENDBRANCH   2  19
BRANCH   3  22
HETATM   22  C   UNK N   1      33.930  17.354   7.617  0.00  0.00     0.213 C 
HETATM   23  O   UNK N   1      34.617  18.265   7.179  0.00  0.00    -0.285 OA
BRANCH  22  24
HETATM   24  C   UNK N   1      32.473  17.477   7.728  0.00  0.00     0.085 A 
HETATM   25  C   UNK N   1      31.499  17.123   6.795  0.00  0.00     0.047 A 
HETATM   26  C   UNK N   1      30.307  17.418   7.437  0.00  0.00    -0.007 A 
HETATM   27  C   UNK N   1      28.986  17.252   7.034  0.00  0.00     0.014 A 
HETATM   28  C   UNK N   1      30.606  17.940   8.661  0.00  0.00     0.043 A 
HETATM   29  C   UNK N   1      27.974  17.647   7.934  0.00  0.00     0.001 A 
HETATM   30  C   UNK N   1      28.301  18.199   9.194  0.00  0.00     0.002 A 
HETATM   31  C   UNK N   1      29.642  18.348   9.569  0.00  0.00     0.030 A 
HETATM   32  N   UNK N   1      31.915  17.980   8.851  0.00  0.00    -0.352 N 
HETATM   33  H   UNK N   1      32.387  18.310   9.650  0.00  0.00     0.166 HD
ENDBRANCH  22  24
ENDBRANCH   3  22
TORSDOF 4
ENDMDL
MODEL 3
REMARK VINA RESULT:      -8.1      2.165      9.389
REMARK  4 active torsions:
REMARK  status: ('A' for Active; 'I' for Inactive)
REMARK    1  A    between atoms: C_6  and  N_12 
REMARK    2  A    between atoms: C_13  and  N_29 
REMARK    3  A    between atoms: C_14  and  C_18 
REMARK    4  A    between atoms: C_18  and  C_20 
ROOT
HETATM    1  N   UNK N   1      35.064  13.345  11.882  0.00  0.00    -0.240 N 
HETATM    2  C   UNK N   1      35.398  14.648  11.752  0.00  0.00     0.137 A 
HETATM    3  C   UNK N   1      34.828  15.127  10.609  0.00  0.00     0.079 A 
HETATM    4  C   UNK N   1      34.132  14.052  10.068  0.00  0.00     0.127 A 
HETATM    5  N   UNK N   1      34.304  12.986  10.866  0.00  0.00    -0.302 N 
ATOM      6  HN  UNK N   1      33.913  12.056  10.713  1.00  0.00     0.186 HD
ENDROOT
BRANCH   1   7
HETATM    7  C   UNK N   1      35.522  12.417  12.864  0.00  0.00     0.060 A 
HETATM    8  C   UNK N   1      34.820  12.286  14.070  0.00  0.00     0.063 A 
HETATM    9  C   UNK N   1      35.421  11.579  15.085  0.00  0.00     0.062 A 
HETATM   10  N   UNK N   1      34.979  11.431  16.336  0.00  0.00    -0.344 N 
HETATM   11  C   UNK N   1      36.646  11.007  14.950  0.00  0.00     0.060 A 
HETATM   12  C   UNK N   1      35.981  10.758  16.948  0.00  0.00     0.078 A 
HETATM   13  H   UNK N   1      34.127  11.738  16.722  0.00  0.00     0.167 HD
HETATM   14  C   UNK N   1      35.971  10.437  18.397  0.00  0.00     0.089 C 
HETATM   15  N   UNK N   1      37.022  10.477  16.121  0.00  0.00    -0.344 N 
ATOM     16  HN  UNK N   1      37.886   9.981  16.340  1.00  0.00     0.167 HD
HETATM   17  C   UNK N   1      37.361  11.061  13.759  0.00  0.00     0.034 A 
HETATM   18  C   UNK N   1      36.788  11.789  12.702  0.00  0.00     0.034 A 
ENDBRANCH   1   7
BRANCH   2  19
HETATM   19  N   UNK N   1      36.202  15.383  12.649  0.00  0.00    -0.383 N 
HETATM   20  H   UNK N   1      36.669  16.212  12.395  0.00  0.00     0.157 HD
HETATM   21  H   UNK N   1      36.299  15.053  13.570  0.00  0.00     0.157 HD
ENDBRANCH   2  19
BRANCH   3  22
HETATM   22  C   UNK N   1      34.913  16.469  10.000  0.00  0.00     0.213 C 
HETATM   23  O   UNK N   1      35.672  17.321  10.437  0.00  0.00    -0.285 OA
BRANCH  22  24
HETATM   24  C   UNK N   1      34.059  16.726   8.836  0.00  0.00     0.085 A 
HETATM   25  C   UNK N   1      34.434  16.882   7.501  0.00  0.00     0.047 A 
HETATM   26  C   UNK N   1      33.230  17.062   6.841  0.00  0.00    -0.007 A 
HETATM   27  C   UNK N   1      32.944  17.233   5.491  0.00  0.00     0.014 A 
HETATM   28  C   UNK N   1      32.232  17.035   7.771  0.00  0.00     0.043 A 
HETATM   29  C   UNK N   1      31.590  17.382   5.122  0.00  0.00     0.001 A 
HETATM   30  C   UNK N   1      30.569  17.366   6.100  0.00  0.00     0.002 A 
HETATM   31  C   UNK N   1      30.891  17.188   7.451  0.00  0.00     0.030 A 
HETATM   32  N   UNK N   1      32.720  16.832   8.983  0.00  0.00    -0.352 N 
HETATM   33  H   UNK N   1      32.210  16.769   9.824  0.00  0.00     0.166 HD
ENDBRANCH  22  24
ENDBRANCH   3  22
TORSDOF 4
ENDMDL
MODEL 4
REMARK VINA RESULT:      -8.1      1.460      2.092
REMARK  4 active torsions:
REMARK  status: ('A' for Active; 'I' for Inactive)
REMARK    1  A    between atoms: C_6  and  N_12 
REMARK    2  A    between atoms: C_13  and  N_29 
REMARK    3  A    between atoms: C_14  and  C_18 
REMARK    4  A    between atoms: C_18  and  C_20 
ROOT
HETATM    1  N   UNK N   1      32.794  16.618   8.967  0.00  0.00    -0.240 N 
HETATM    2  C   UNK N   1      33.350  15.442   9.330  0.00  0.00     0.137 A 
HETATM    3  C   UNK N   1      34.653  15.666   9.666  0.00  0.00     0.079 A 
HETATM    4  C   UNK N   1      34.846  17.032   9.493  0.00  0.00     0.127 A 
HETATM    5  N   UNK N   1      33.696  17.575   9.062  0.00  0.00    -0.302 N 
ATOM      6  HN  UNK N   1      33.545  18.561   8.847  1.00  0.00     0.186 HD
ENDROOT
BRANCH   1   7
HETATM    7  C   UNK N   1      31.489  16.843   8.438  0.00  0.00     0.060 A 
HETATM    8  C   UNK N   1      31.297  16.848   7.050  0.00  0.00     0.063 A 
HETATM    9  C   UNK N   1      30.094  17.311   6.572  0.00  0.00     0.062 A 
HETATM   10  N   UNK N   1      29.753  17.502   5.295  0.00  0.00    -0.344 N 
HETATM   11  C   UNK N   1      29.103  17.745   7.392  0.00  0.00     0.060 A 
HETATM   12  C   UNK N   1      28.528  18.071   5.377  0.00  0.00     0.078 A 
HETATM   13  H   UNK N   1      30.270  17.281   4.487  0.00  0.00     0.167 HD
HETATM   14  C   UNK N   1      27.776  18.544   4.188  0.00  0.00     0.089 C 
HETATM   15  N   UNK N   1      28.095  18.231   6.655  0.00  0.00    -0.344 N 
ATOM     16  HN  UNK N   1      27.213  18.628   6.976  1.00  0.00     0.167 HD
HETATM   17  C   UNK N   1      29.218  17.712   8.777  0.00  0.00     0.034 A 
HETATM   18  C   UNK N   1      30.441  17.261   9.305  0.00  0.00     0.034 A 
ENDBRANCH   1   7
BRANCH   2  19
HETATM   19  N   UNK N   1      32.691  14.195   9.355  0.00  0.00    -0.383 N 
HETATM   20  H   UNK N   1      33.144  13.343   9.154  0.00  0.00     0.157 HD
HETATM   21  H   UNK N   1      31.735  14.174   9.585  0.00  0.00     0.157 HD
ENDBRANCH   2  19
BRANCH   3  22
HETATM   22  C   UNK N   1      35.698  14.715  10.093  0.00  0.00     0.213 C 
HETATM   23  O   UNK N   1      36.552  14.313   9.318  0.00  0.00    -0.285 OA
BRANCH  22  24
HETATM   24  C   UNK N   1      35.672  14.287  11.496  0.00  0.00     0.085 A 
HETATM   25  C   UNK N   1      34.937  13.252  12.075  0.00  0.00     0.047 A 
HETATM   26  C   UNK N   1      35.328  13.276  13.404  0.00  0.00    -0.007 A 
HETATM   27  C   UNK N   1      34.972  12.464  14.476  0.00  0.00     0.014 A 
HETATM   28  C   UNK N   1      36.219  14.296  13.562  0.00  0.00     0.043 A 
HETATM   29  C   UNK N   1      35.561  12.740  15.728  0.00  0.00     0.001 A 
HETATM   30  C   UNK N   1      36.473  13.810  15.879  0.00  0.00     0.002 A 
HETATM   31  C   UNK N   1      36.812  14.605  14.777  0.00  0.00     0.030 A 
HETATM   32  N   UNK N   1      36.437  14.917  12.415  0.00  0.00    -0.352 N 
HETATM   33  H   UNK N   1      37.037  15.683  12.260  0.00  0.00     0.166 HD
ENDBRANCH  22  24
ENDBRANCH   3  22
TORSDOF 4
ENDMDL
MODEL 5
REMARK VINA RESULT:      -8.0      1.672      2.480
REMARK  4 active torsions:
REMARK  status: ('A' for Active; 'I' for Inactive)
REMARK    1  A    between atoms: C_6  and  N_12 
REMARK    2  A    between atoms: C_13  and  N_29 
REMARK    3  A    between atoms: C_14  and  C_18 
REMARK    4  A    between atoms: C_18  and  C_20 
ROOT
HETATM    1  N   UNK N   1      32.848  16.466   7.764  0.00  0.00    -0.240 N 
HETATM    2  C   UNK N   1      33.891  17.074   8.369  0.00  0.00     0.137 A 
HETATM    3  C   UNK N   1      34.339  16.263   9.372  0.00  0.00     0.079 A 
HETATM    4  C   UNK N   1      33.519  15.141   9.330  0.00  0.00     0.127 A 
HETATM    5  N   UNK N   1      32.622  15.304   8.344  0.00  0.00    -0.302 N 
ATOM      6  HN  UNK N   1      31.891  14.640   8.087  1.00  0.00     0.186 HD
ENDROOT
BRANCH   1   7
HETATM    7  C   UNK N   1      32.003  16.990   6.741  0.00  0.00     0.060 A 
HETATM    8  C   UNK N   1      30.627  17.114   6.977  0.00  0.00     0.063 A 
HETATM    9  C   UNK N   1      29.815  17.381   5.900  0.00  0.00     0.062 A 
HETATM   10  N   UNK N   1      28.481  17.426   5.888  0.00  0.00    -0.344 N 
HETATM   11  C   UNK N   1      30.301  17.536   4.642  0.00  0.00     0.060 A 
HETATM   12  C   UNK N   1      28.183  17.607   4.580  0.00  0.00     0.078 A 
HETATM   13  H   UNK N   1      27.861  17.348   6.649  0.00  0.00     0.167 HD
HETATM   14  C   UNK N   1      26.791  17.635   4.066  0.00  0.00     0.089 C 
HETATM   15  N   UNK N   1      29.281  17.683   3.785  0.00  0.00    -0.344 N 
ATOM     16  HN  UNK N   1      29.321  17.819   2.775  1.00  0.00     0.167 HD
HETATM   17  C   UNK N   1      31.661  17.477   4.360  0.00  0.00     0.034 A 
HETATM   18  C   UNK N   1      32.523  17.189   5.432  0.00  0.00     0.034 A 
ENDBRANCH   1   7
BRANCH   2  19
HETATM   19  N   UNK N   1      34.423  18.333   8.022  0.00  0.00    -0.383 N 
HETATM   20  H   UNK N   1      35.339  18.455   7.682  0.00  0.00     0.157 HD
HETATM   21  H   UNK N   1      33.852  19.127   8.124  0.00  0.00     0.157 HD
ENDBRANCH   2  19
BRANCH   3  22
HETATM   22  C   UNK N   1      35.426  16.477  10.347  0.00  0.00     0.213 C 
HETATM   23  O   UNK N   1      35.888  17.590  10.554  0.00  0.00    -0.285 OA
BRANCH  22  24
HETATM   24  C   UNK N   1      35.914  15.297  11.068  0.00  0.00     0.085 A 
HETATM   25  C   UNK N   1      36.631  14.210  10.568  0.00  0.00     0.047 A 
HETATM   26  C   UNK N   1      36.856  13.423  11.686  0.00  0.00    -0.007 A 
HETATM   27  C   UNK N   1      37.547  12.226  11.838  0.00  0.00     0.014 A 
HETATM   28  C   UNK N   1      36.266  14.033  12.755  0.00  0.00     0.043 A 
HETATM   29  C   UNK N   1      37.609  11.666  13.132  0.00  0.00     0.001 A 
HETATM   30  C   UNK N   1      36.981  12.304  14.227  0.00  0.00     0.002 A 
HETATM   31  C   UNK N   1      36.296  13.511  14.039  0.00  0.00     0.030 A 
HETATM   32  N   UNK N   1      35.692  15.169  12.395  0.00  0.00    -0.352 N 
HETATM   33  H   UNK N   1      35.203  15.796  12.976  0.00  0.00     0.166 HD
ENDBRANCH  22  24
ENDBRANCH   3  22
TORSDOF 4
ENDMDL
MODEL 6
REMARK VINA RESULT:      -7.9      3.486     10.599
REMARK  4 active torsions:
REMARK  status: ('A' for Active; 'I' for Inactive)
REMARK    1  A    between atoms: C_6  and  N_12 
REMARK    2  A    between atoms: C_13  and  N_29 
REMARK    3  A    between atoms: C_14  and  C_18 
REMARK    4  A    between atoms: C_18  and  C_20 
ROOT
HETATM    1  N   UNK N   1      30.758  17.124   7.644  0.00  0.00    -0.240 N 
HETATM    2  C   UNK N   1      30.133  16.428   6.669  0.00  0.00     0.137 A 
HETATM    3  C   UNK N   1      28.838  16.855   6.599  0.00  0.00     0.079 A 
HETATM    4  C   UNK N   1      28.724  17.841   7.572  0.00  0.00     0.127 A 
HETATM    5  N   UNK N   1      29.909  17.972   8.190  0.00  0.00    -0.302 N 
ATOM      6  HN  UNK N   1      30.118  18.619   8.950  1.00  0.00     0.186 HD
ENDROOT
BRANCH   1   7
HETATM    7  C   UNK N   1      32.083  16.937   8.140  0.00  0.00     0.060 A 
HETATM    8  C   UNK N   1      32.329  15.937   9.092  0.00  0.00     0.063 A 
HETATM    9  C   UNK N   1      33.548  15.947   9.728  0.00  0.00     0.062 A 
HETATM   10  N   UNK N   1      33.938  15.163  10.735  0.00  0.00    -0.344 N 
HETATM   11  C   UNK N   1      34.503  16.874   9.458  0.00  0.00     0.060 A 
HETATM   12  C   UNK N   1      35.156  15.653  11.064  0.00  0.00     0.078 A 
HETATM   13  H   UNK N   1      33.455  14.407  11.142  0.00  0.00     0.167 HD
HETATM   14  C   UNK N   1      35.952  15.138  12.206  0.00  0.00     0.089 C 
HETATM   15  N   UNK N   1      35.537  16.705  10.293  0.00  0.00    -0.344 N 
ATOM     16  HN  UNK N   1      36.404  17.240  10.340  1.00  0.00     0.167 HD
HETATM   17  C   UNK N   1      34.333  17.853   8.486  0.00  0.00     0.034 A 
HETATM   18  C   UNK N   1      33.093  17.886   7.824  0.00  0.00     0.034 A 
ENDBRANCH   1   7
BRANCH   2  19
HETATM   19  N   UNK N   1      30.721  15.431   5.864  0.00  0.00    -0.383 N 
HETATM   20  H   UNK N   1      31.294  14.717   6.226  0.00  0.00     0.157 HD
HETATM   21  H   UNK N   1      30.549  15.448   4.896  0.00  0.00     0.157 HD
ENDBRANCH   2  19
BRANCH   3  22
HETATM   22  C   UNK N   1      27.736  16.395   5.732  0.00  0.00     0.213 C 
HETATM   23  O   UNK N   1      27.486  15.207   5.593  0.00  0.00    -0.285 OA
BRANCH  22  24
HETATM   24  C   UNK N   1      26.945  17.429   5.057  0.00  0.00     0.085 A 
HETATM   25  C   UNK N   1      27.393  18.479   4.254  0.00  0.00     0.047 A 
HETATM   26  C   UNK N   1      26.225  19.110   3.858  0.00  0.00    -0.007 A 
HETATM   27  C   UNK N   1      26.014  20.200   3.021  0.00  0.00     0.014 A 
HETATM   28  C   UNK N   1      25.176  18.458   4.438  0.00  0.00     0.043 A 
HETATM   29  C   UNK N   1      24.681  20.607   2.800  0.00  0.00     0.001 A 
HETATM   30  C   UNK N   1      23.606  19.929   3.421  0.00  0.00     0.002 A 
HETATM   31  C   UNK N   1      23.854  18.832   4.255  0.00  0.00     0.030 A 
HETATM   32  N   UNK N   1      25.598  17.438   5.167  0.00  0.00    -0.352 N 
HETATM   33  H   UNK N   1      25.043  16.810   5.684  0.00  0.00     0.166 HD
ENDBRANCH  22  24
ENDBRANCH   3  22
TORSDOF 4
ENDMDL
MODEL 7
REMARK VINA RESULT:      -7.9      3.033      9.400
REMARK  4 active torsions:
REMARK  status: ('A' for Active; 'I' for Inactive)
REMARK    1  A    between atoms: C_6  and  N_12 
REMARK    2  A    between atoms: C_13  and  N_29 
REMARK    3  A    between atoms: C_14  and  C_18 
REMARK    4  A    between atoms: C_18  and  C_20 
ROOT
HETATM    1  N   UNK N   1      33.733  16.366   7.335  0.00  0.00    -0.240 N 
HETATM    2  C   UNK N   1      32.532  15.790   7.107  0.00  0.00     0.137 A 
HETATM    3  C   UNK N   1      31.921  16.460   6.087  0.00  0.00     0.079 A 
HETATM    4  C   UNK N   1      32.816  17.456   5.714  0.00  0.00     0.127 A 
HETATM    5  N   UNK N   1      33.903  17.370   6.499  0.00  0.00    -0.302 N 
ATOM      6  HN  UNK N   1      34.720  17.978   6.454  1.00  0.00     0.186 HD
ENDROOT
BRANCH   1   7
HETATM    7  C   UNK N   1      34.663  16.067   8.375  0.00  0.00     0.060 A 
HETATM    8  C   UNK N   1      35.373  14.858   8.341  0.00  0.00     0.063 A 
HETATM    9  C   UNK N   1      36.064  14.491   9.471  0.00  0.00     0.062 A 
HETATM   10  N   UNK N   1      36.705  13.339   9.685  0.00  0.00    -0.344 N 
HETATM   11  C   UNK N   1      36.086  15.255  10.593  0.00  0.00     0.060 A 
HETATM   12  C   UNK N   1      37.107  13.436  10.974  0.00  0.00     0.078 A 
HETATM   13  H   UNK N   1      36.851  12.596   9.056  0.00  0.00     0.167 HD
HETATM   14  C   UNK N   1      37.800  12.336  11.689  0.00  0.00     0.089 C 
HETATM   15  N   UNK N   1      36.746  14.607  11.562  0.00  0.00    -0.344 N 
ATOM     16  HN  UNK N   1      36.932  14.918  12.515  1.00  0.00     0.167 HD
HETATM   17  C   UNK N   1      35.446  16.487  10.663  0.00  0.00     0.034 A 
HETATM   18  C   UNK N   1      34.714  16.892   9.532  0.00  0.00     0.034 A 
ENDBRANCH   1   7
BRANCH   2  19
HETATM   19  N   UNK N   1      32.004  14.686   7.807  0.00  0.00    -0.383 N 
HETATM   20  H   UNK N   1      31.091  14.670   8.177  0.00  0.00     0.157 HD
HETATM   21  H   UNK N   1      32.573  13.893   7.932  0.00  0.00     0.157 HD
ENDBRANCH   2  19
BRANCH   3  22
HETATM   22  C   UNK N   1      30.590  16.252   5.484  0.00  0.00     0.213 C 
HETATM   23  O   UNK N   1      30.302  15.209   4.916  0.00  0.00    -0.285 OA
BRANCH  22  24
HETATM   24  C   UNK N   1      29.624  17.349   5.611  0.00  0.00     0.085 A 
HETATM   25  C   UNK N   1      29.086  17.901   6.773  0.00  0.00     0.047 A 
HETATM   26  C   UNK N   1      28.271  18.919   6.306  0.00  0.00    -0.007 A 
HETATM   27  C   UNK N   1      27.494  19.852   6.984  0.00  0.00     0.014 A 
HETATM   28  C   UNK N   1      28.330  18.914   4.943  0.00  0.00     0.043 A 
HETATM   29  C   UNK N   1      26.770  20.785   6.212  0.00  0.00     0.001 A 
HETATM   30  C   UNK N   1      26.832  20.758   4.799  0.00  0.00     0.002 A 
HETATM   31  C   UNK N   1      27.627  19.806   4.149  0.00  0.00     0.030 A 
HETATM   32  N   UNK N   1      29.147  17.968   4.509  0.00  0.00    -0.352 N 
HETATM   33  H   UNK N   1      29.365  17.759   3.571  0.00  0.00     0.166 HD
ENDBRANCH  22  24
ENDBRANCH   3  22
TORSDOF 4
ENDMDL
MODEL 8
REMARK VINA RESULT:      -7.8      2.523      5.016
REMARK  4 active torsions:
REMARK  status: ('A' for Active; 'I' for Inactive)
REMARK    1  A    between atoms: C_6  and  N_12 
REMARK    2  A    between atoms: C_13  and  N_29 
REMARK    3  A    between atoms: C_14  and  C_18 
REMARK    4  A    between atoms: C_18  and  C_20 
ROOT
HETATM    1  N   UNK N   1      30.269  17.389   6.590  0.00  0.00    -0.240 N 
HETATM    2  C   UNK N   1      31.571  17.362   6.231  0.00  0.00     0.137 A 
HETATM    3  C   UNK N   1      32.331  17.409   7.364  0.00  0.00     0.079 A 
HETATM    4  C   UNK N   1      31.421  17.457   8.414  0.00  0.00     0.127 A 
HETATM    5  N   UNK N   1      30.179  17.449   7.904  0.00  0.00    -0.302 N 
ATOM      6  HN  UNK N   1      29.313  17.482   8.442  1.00  0.00     0.186 HD
ENDROOT
BRANCH   1   7
HETATM    7  C   UNK N   1      29.128  17.467   5.738  0.00  0.00     0.060 A 
HETATM    8  C   UNK N   1      28.925  18.615   4.959  0.00  0.00     0.063 A 
HETATM    9  C   UNK N   1      27.703  18.765   4.348  0.00  0.00     0.062 A 
HETATM   10  N   UNK N   1      27.268  19.825   3.662  0.00  0.00    -0.344 N 
HETATM   11  C   UNK N   1      26.711  17.845   4.466  0.00  0.00     0.060 A 
HETATM   12  C   UNK N   1      25.982  19.513   3.379  0.00  0.00     0.078 A 
HETATM   13  H   UNK N   1      27.765  20.639   3.419  0.00  0.00     0.167 HD
HETATM   14  C   UNK N   1      25.059  20.447   2.688  0.00  0.00     0.089 C 
HETATM   15  N   UNK N   1      25.607  18.298   3.856  0.00  0.00    -0.344 N 
ATOM     16  HN  UNK N   1      24.700  17.839   3.771  1.00  0.00     0.167 HD
HETATM   17  C   UNK N   1      26.877  16.664   5.181  0.00  0.00     0.034 A 
HETATM   18  C   UNK N   1      28.108  16.481   5.835  0.00  0.00     0.034 A 
ENDBRANCH   1   7
BRANCH   2  19
HETATM   19  N   UNK N   1      32.058  17.299   4.909  0.00  0.00    -0.383 N 
HETATM   20  H   UNK N   1      32.764  17.895   4.567  0.00  0.00     0.157 HD
HETATM   21  H   UNK N   1      31.676  16.628   4.300  0.00  0.00     0.157 HD
ENDBRANCH   2  19
BRANCH   3  22
HETATM   22  C   UNK N   1      33.799  17.440   7.517  0.00  0.00     0.213 C 
HETATM   23  O   UNK N   1      34.496  18.181   6.842  0.00  0.00    -0.285 OA
BRANCH  22  24
HETATM   24  C   UNK N   1      34.380  16.552   8.530  0.00  0.00     0.085 A 
HETATM   25  C   UNK N   1      34.858  15.251   8.373  0.00  0.00     0.047 A 
HETATM   26  C   UNK N   1      35.320  14.916   9.635  0.00  0.00    -0.007 A 
HETATM   27  C   UNK N   1      35.942  13.765  10.105  0.00  0.00     0.014 A 
HETATM   28  C   UNK N   1      35.083  15.973  10.464  0.00  0.00     0.043 A 
HETATM   29  C   UNK N   1      36.311  13.730  11.467  0.00  0.00     0.001 A 
HETATM   30  C   UNK N   1      36.045  14.829  12.316  0.00  0.00     0.002 A 
HETATM   31  C   UNK N   1      35.421  15.975  11.809  0.00  0.00     0.030 A 
HETATM   32  N   UNK N   1      34.514  16.971   9.808  0.00  0.00    -0.352 N 
HETATM   33  H   UNK N   1      34.244  17.844  10.176  0.00  0.00     0.166 HD
ENDBRANCH  22  24
ENDBRANCH   3  22
TORSDOF 4
ENDMDL
MODEL 9
REMARK VINA RESULT:      -7.8     11.218     15.602
REMARK  4 active torsions:
REMARK  status: ('A' for Active; 'I' for Inactive)
REMARK    1  A    between atoms: C_6  and  N_12 
REMARK    2  A    between atoms: C_13  and  N_29 
REMARK    3  A    between atoms: C_14  and  C_18 
REMARK    4  A    between atoms: C_18  and  C_20 
ROOT
HETATM    1  N   UNK N   1      22.092  12.892   6.358  0.00  0.00    -0.240 N 
HETATM    2  C   UNK N   1      21.158  13.845   6.145  0.00  0.00     0.137 A 
HETATM    3  C   UNK N   1      20.805  13.815   4.827  0.00  0.00     0.079 A 
HETATM    4  C   UNK N   1      21.566  12.795   4.267  0.00  0.00     0.127 A 
HETATM    5  N   UNK N   1      22.339  12.262   5.227  0.00  0.00    -0.302 N 
ATOM      6  HN  UNK N   1      23.004  11.499   5.102  1.00  0.00     0.186 HD
ENDROOT
BRANCH   1   7
HETATM    7  C   UNK N   1      22.823  12.636   7.556  0.00  0.00     0.060 A 
HETATM    8  C   UNK N   1      22.163  12.085   8.663  0.00  0.00     0.063 A 
HETATM    9  C   UNK N   1      22.827  12.085   9.867  0.00  0.00     0.062 A 
HETATM   10  N   UNK N   1      22.342  11.715  11.055  0.00  0.00    -0.344 N 
HETATM   11  C   UNK N   1      24.082  12.584  10.008  0.00  0.00     0.060 A 
HETATM   12  C   UNK N   1      23.345  12.014  11.913  0.00  0.00     0.078 A 
HETATM   13  H   UNK N   1      21.465  11.318  11.259  0.00  0.00     0.167 HD
HETATM   14  C   UNK N   1      23.227  11.849  13.383  0.00  0.00     0.089 C 
HETATM   15  N   UNK N   1      24.434  12.547  11.300  0.00  0.00    -0.344 N 
ATOM     16  HN  UNK N   1      25.312  12.849  11.723  1.00  0.00     0.167 HD
HETATM   17  C   UNK N   1      24.803  13.092   8.933  0.00  0.00     0.034 A 
HETATM   18  C   UNK N   1      24.152  13.126   7.687  0.00  0.00     0.034 A 
ENDBRANCH   1   7
BRANCH   2  19
HETATM   19  N   UNK N   1      20.640  14.722   7.121  0.00  0.00    -0.383 N 
HETATM   20  H   UNK N   1      21.204  15.334   7.648  0.00  0.00     0.157 HD
HETATM   21  H   UNK N   1      19.670  14.723   7.283  0.00  0.00     0.157 HD
ENDBRANCH   2  19
BRANCH   3  22
HETATM   22  C   UNK N   1      19.858  14.667   4.082  0.00  0.00     0.213 C 
HETATM   23  O   UNK N   1      18.771  14.245   3.716  0.00  0.00    -0.285 OA
BRANCH  22  24
HETATM   24  C   UNK N   1      20.275  16.048   3.815  0.00  0.00     0.085 A 
HETATM   25  C   UNK N   1      21.532  16.625   3.992  0.00  0.00     0.047 A 
HETATM   26  C   UNK N   1      21.362  17.926   3.549  0.00  0.00    -0.007 A 
HETATM   27  C   UNK N   1      22.262  18.980   3.443  0.00  0.00     0.014 A 
HETATM   28  C   UNK N   1      20.060  18.074   3.169  0.00  0.00     0.043 A 
HETATM   29  C   UNK N   1      21.779  20.205   2.934  0.00  0.00     0.001 A 
HETATM   30  C   UNK N   1      20.423  20.346   2.557  0.00  0.00     0.002 A 
HETATM   31  C   UNK N   1      19.544  19.262   2.674  0.00  0.00     0.030 A 
HETATM   32  N   UNK N   1      19.391  16.944   3.324  0.00  0.00    -0.352 N 
HETATM   33  H   UNK N   1      18.439  16.787   3.122  0.00  0.00     0.166 HD
ENDBRANCH  22  24
ENDBRANCH   3  22
TORSDOF 4
ENDMDL
