MODEL 1
REMARK VINA RESULT:      -8.5      0.000      0.000
REMARK  4 active torsions:
REMARK  status: ('A' for Active; 'I' for Inactive)
REMARK    1  A    between atoms: C_5  and  C_9 
REMARK    2  A    between atoms: C_9  and  C_10 
REMARK    3  A    between atoms: C_26  and  N_23 
REMARK    4  A    between atoms: C_31  and  O_32 
ROOT
HETATM    1  C   UNK N   1      30.362  16.197   6.088  0.00  0.00    -0.042 A 
HETATM    2  C   UNK N   1      30.813  15.834   7.353  0.00  0.00     0.027 A 
HETATM    3  C   UNK N   1      32.161  15.592   7.610  0.00  0.00     0.060 A 
HETATM    4  C   UNK N   1      33.107  15.701   6.581  0.00  0.00     0.060 A 
HETATM    5  C   UNK N   1      32.688  16.054   5.285  0.00  0.00     0.002 A 
HETATM    6  C   UNK N   1      31.310  16.313   5.027  0.00  0.00    -0.017 A 
HETATM    7  C   UNK N   1      30.933  16.692   3.730  0.00  0.00     0.013 A 
HETATM    8  C   UNK N   1      31.875  16.802   2.706  0.00  0.00     0.001 A 
HETATM    9  C   UNK N   1      33.219  16.538   2.963  0.00  0.00     0.001 A 
HETATM   10  C   UNK N   1      33.625  16.170   4.246  0.00  0.00     0.014 A 
HETATM   11  N   UNK N   1      34.421  15.476   6.858  0.00  0.00    -0.351 N 
ATOM     12  HN  UNK N   1      35.108  15.536   6.106  1.00  0.00     0.166 HD
HETATM   13  C   UNK N   1      34.835  15.172   8.118  0.00  0.00     0.187 A 
HETATM   14  N   UNK N   1      33.938  15.072   9.143  0.00  0.00    -0.302 N 
HETATM   15  C   UNK N   1      32.593  15.261   8.896  0.00  0.00     0.261 A 
HETATM   16  O   UNK N   1      31.777  15.147   9.799  0.00  0.00    -0.267 OA
ENDROOT
BRANCH   1  17
HETATM   17  C   UNK N   1      28.872  16.466   6.005  0.00  0.00     0.079 C 
BRANCH  17  18
HETATM   18  C   UNK N   1      28.383  17.870   6.076  0.00  0.00    -0.038 A 
HETATM   19  C   UNK N   1      28.301  18.655   4.923  0.00  0.00     0.011 A 
HETATM   20  C   UNK N   1      27.845  19.969   5.017  0.00  0.00     0.025 A 
HETATM   21  C   UNK N   1      27.470  20.476   6.263  0.00  0.00     0.005 A 
HETATM   22  C   UNK N   1      26.993  21.878   6.379  0.00  0.00     0.068 C 
HETATM   23  N   UNK N   1      27.540  19.690   7.372  0.00  0.00    -0.369 N 
HETATM   24  C   UNK N   1      27.981  18.405   7.302  0.00  0.00     0.095 A 
ATOM     25  HN  UNK N   1      27.255  20.072   8.274  1.00  0.00     0.165 HD
ENDBRANCH  17  18
ENDBRANCH   1  17
BRANCH  14  26
HETATM   26  C   UNK N   1      34.385  14.784  10.520  0.00  0.00     0.122 C 
HETATM   27  C   UNK N   1      34.883  13.345  10.713  0.00  0.00     0.028 C 
HETATM   28  C   UNK N   1      35.213  13.106  12.185  0.00  0.00     0.002 C 
HETATM   29  C   UNK N   1      36.268  14.099  12.667  0.00  0.00     0.003 C 
HETATM   30  C   UNK N   1      35.791  15.531  12.454  0.00  0.00     0.034 C 
HETATM   31  C   UNK N   1      35.478  15.769  10.982  0.00  0.00     0.141 C 
BRANCH  31  32
HETATM   32  O   UNK N   1      35.085  17.097  10.815  0.00  0.00    -0.393 OA
HETATM   33  H   UNK N   1      35.688  17.827  11.023  0.00  0.00     0.210 HD
ENDBRANCH  31  32
ENDBRANCH  14  26
TORSDOF 4
ENDMDL
MODEL 2
REMARK VINA RESULT:      -8.1     13.088     16.510
REMARK  4 active torsions:
REMARK  status: ('A' for Active; 'I' for Inactive)
REMARK    1  A    between atoms: C_5  and  C_9 
REMARK    2  A    between atoms: C_9  and  C_10 
REMARK    3  A    between atoms: C_26  and  N_23 
REMARK    4  A    between atoms: C_31  and  O_32 
ROOT
HETATM    1  C   UNK N   1      30.421  21.033  -5.293  0.00  0.00    -0.042 A 
HETATM    2  C   UNK N   1      30.080  22.264  -4.744  0.00  0.00     0.027 A 
HETATM    3  C   UNK N   1      29.228  23.151  -5.401  0.00  0.00     0.060 A 
HETATM    4  C   UNK N   1      28.696  22.821  -6.655  0.00  0.00     0.060 A 
HETATM    5  C   UNK N   1      29.027  21.589  -7.249  0.00  0.00     0.002 A 
HETATM    6  C   UNK N   1      29.889  20.678  -6.569  0.00  0.00    -0.017 A 
HETATM    7  C   UNK N   1      30.173  19.447  -7.179  0.00  0.00     0.013 A 
HETATM    8  C   UNK N   1      29.642  19.117  -8.426  0.00  0.00     0.001 A 
HETATM    9  C   UNK N   1      28.808  20.016  -9.088  0.00  0.00     0.001 A 
HETATM   10  C   UNK N   1      28.499  21.243  -8.503  0.00  0.00     0.014 A 
HETATM   11  N   UNK N   1      27.854  23.694  -7.272  0.00  0.00    -0.351 N 
ATOM     12  HN  UNK N   1      27.481  23.463  -8.193  1.00  0.00     0.166 HD
HETATM   13  C   UNK N   1      27.500  24.869  -6.684  0.00  0.00     0.187 A 
HETATM   14  N   UNK N   1      27.993  25.212  -5.456  0.00  0.00    -0.302 N 
HETATM   15  C   UNK N   1      28.875  24.367  -4.813  0.00  0.00     0.261 A 
HETATM   16  O   UNK N   1      29.345  24.676  -3.728  0.00  0.00    -0.267 OA
ENDROOT
BRANCH   1  17
HETATM   17  C   UNK N   1      31.319  20.181  -4.417  0.00  0.00     0.079 C 
BRANCH  17  18
HETATM   18  C   UNK N   1      32.796  20.290  -4.567  0.00  0.00    -0.038 A 
HETATM   19  C   UNK N   1      33.568  20.913  -3.583  0.00  0.00     0.011 A 
HETATM   20  C   UNK N   1      34.949  21.008  -3.751  0.00  0.00     0.025 A 
HETATM   21  C   UNK N   1      35.538  20.470  -4.898  0.00  0.00     0.005 A 
HETATM   22  C   UNK N   1      37.007  20.574  -5.094  0.00  0.00     0.068 C 
HETATM   23  N   UNK N   1      34.770  19.851  -5.836  0.00  0.00    -0.369 N 
HETATM   24  C   UNK N   1      33.421  19.748  -5.691  0.00  0.00     0.095 A 
ATOM     25  HN  UNK N   1      35.215  19.456  -6.665  1.00  0.00     0.165 HD
ENDBRANCH  17  18
ENDBRANCH   1  17
BRANCH  14  26
HETATM   26  C   UNK N   1      27.581  26.465  -4.794  0.00  0.00     0.122 C 
HETATM   27  C   UNK N   1      27.395  27.638  -5.767  0.00  0.00     0.028 C 
HETATM   28  C   UNK N   1      27.084  28.913  -4.985  0.00  0.00     0.002 C 
HETATM   29  C   UNK N   1      25.829  28.729  -4.133  0.00  0.00     0.003 C 
HETATM   30  C   UNK N   1      25.997  27.548  -3.183  0.00  0.00     0.034 C 
HETATM   31  C   UNK N   1      26.291  26.277  -3.969  0.00  0.00     0.141 C 
BRANCH  31  32
HETATM   32  O   UNK N   1      26.398  25.210  -3.076  0.00  0.00    -0.393 OA
HETATM   33  H   UNK N   1      27.130  25.161  -2.442  0.00  0.00     0.210 HD
ENDBRANCH  31  32
ENDBRANCH  14  26
TORSDOF 4
ENDMDL
MODEL 3
REMARK VINA RESULT:      -8.1      5.361      8.415
REMARK  4 active torsions:
REMARK  status: ('A' for Active; 'I' for Inactive)
REMARK    1  A    between atoms: C_5  and  C_9 
REMARK    2  A    between atoms: C_9  and  C_10 
REMARK    3  A    between atoms: C_26  and  N_23 
REMARK    4  A    between atoms: C_31  and  O_32 
ROOT
HETATM    1  C   UNK N   1      22.967  16.846   4.734  0.00  0.00    -0.042 A 
HETATM    2  C   UNK N   1      24.133  16.474   5.394  0.00  0.00     0.027 A 
HETATM    3  C   UNK N   1      25.257  17.297   5.418  0.00  0.00     0.060 A 
HETATM    4  C   UNK N   1      25.243  18.534   4.759  0.00  0.00     0.060 A 
HETATM    5  C   UNK N   1      24.085  18.940   4.069  0.00  0.00     0.002 A 
HETATM    6  C   UNK N   1      22.931  18.102   4.057  0.00  0.00    -0.017 A 
HETATM    7  C   UNK N   1      21.785  18.554   3.384  0.00  0.00     0.013 A 
HETATM    8  C   UNK N   1      21.770  19.786   2.729  0.00  0.00     0.001 A 
HETATM    9  C   UNK N   1      22.903  20.595   2.738  0.00  0.00     0.001 A 
HETATM   10  C   UNK N   1      24.054  20.178   3.407  0.00  0.00     0.014 A 
HETATM   11  N   UNK N   1      26.345  19.329   4.808  0.00  0.00    -0.351 N 
ATOM     12  HN  UNK N   1      26.342  20.221   4.313  1.00  0.00     0.166 HD
HETATM   13  C   UNK N   1      27.453  18.957   5.506  0.00  0.00     0.187 A 
HETATM   14  N   UNK N   1      27.493  17.763   6.169  0.00  0.00    -0.302 N 
HETATM   15  C   UNK N   1      26.406  16.915   6.116  0.00  0.00     0.261 A 
HETATM   16  O   UNK N   1      26.439  15.832   6.682  0.00  0.00    -0.267 OA
ENDROOT
BRANCH   1  17
HETATM   17  C   UNK N   1      21.831  15.848   4.854  0.00  0.00     0.079 C 
BRANCH  17  18
HETATM   18  C   UNK N   1      21.462  15.327   6.198  0.00  0.00    -0.038 A 
HETATM   19  C   UNK N   1      21.120  16.202   7.232  0.00  0.00     0.011 A 
HETATM   20  C   UNK N   1      20.783  15.688   8.484  0.00  0.00     0.025 A 
HETATM   21  C   UNK N   1      20.786  14.305   8.680  0.00  0.00     0.005 A 
HETATM   22  C   UNK N   1      20.440  13.745  10.012  0.00  0.00     0.068 C 
HETATM   23  N   UNK N   1      21.105  13.469   7.654  0.00  0.00    -0.369 N 
HETATM   24  C   UNK N   1      21.435  13.950   6.426  0.00  0.00     0.095 A 
ATOM     25  HN  UNK N   1      21.095  12.461   7.811  1.00  0.00     0.165 HD
ENDBRANCH  17  18
ENDBRANCH   1  17
BRANCH  14  26
HETATM   26  C   UNK N   1      28.675  17.372   6.962  0.00  0.00     0.122 C 
HETATM   27  C   UNK N   1      29.968  17.304   6.139  0.00  0.00     0.028 C 
HETATM   28  C   UNK N   1      31.109  16.783   7.011  0.00  0.00     0.002 C 
HETATM   29  C   UNK N   1      31.306  17.680   8.231  0.00  0.00     0.003 C 
HETATM   30  C   UNK N   1      30.017  17.773   9.039  0.00  0.00     0.034 C 
HETATM   31  C   UNK N   1      28.887  18.309   8.169  0.00  0.00     0.141 C 
BRANCH  31  32
HETATM   32  O   UNK N   1      27.734  18.421   8.948  0.00  0.00    -0.393 OA
HETATM   33  H   UNK N   1      26.861  18.514   8.537  0.00  0.00     0.210 HD
ENDBRANCH  31  32
ENDBRANCH  14  26
TORSDOF 4
ENDMDL
MODEL 4
REMARK VINA RESULT:      -8.0      2.489      4.400
REMARK  4 active torsions:
REMARK  status: ('A' for Active; 'I' for Inactive)
REMARK    1  A    between atoms: C_5  and  C_9 
REMARK    2  A    between atoms: C_9  and  C_10 
REMARK    3  A    between atoms: C_26  and  N_23 
REMARK    4  A    between atoms: C_31  and  O_32 
ROOT
HETATM    1  C   UNK N   1      34.769  15.769   7.680  0.00  0.00    -0.042 A 
HETATM    2  C   UNK N   1      34.553  15.565   9.039  0.00  0.00     0.027 A 
HETATM    3  C   UNK N   1      34.951  14.392   9.678  0.00  0.00     0.060 A 
HETATM    4  C   UNK N   1      35.578  13.370   8.953  0.00  0.00     0.060 A 
HETATM    5  C   UNK N   1      35.804  13.533   7.573  0.00  0.00     0.002 A 
HETATM    6  C   UNK N   1      35.407  14.740   6.924  0.00  0.00    -0.017 A 
HETATM    7  C   UNK N   1      35.676  14.880   5.554  0.00  0.00     0.013 A 
HETATM    8  C   UNK N   1      36.302  13.863   4.832  0.00  0.00     0.001 A 
HETATM    9  C   UNK N   1      36.678  12.684   5.471  0.00  0.00     0.001 A 
HETATM   10  C   UNK N   1      36.434  12.520   6.834  0.00  0.00     0.014 A 
HETATM   11  N   UNK N   1      35.973  12.240   9.599  0.00  0.00    -0.351 N 
ATOM     12  HN  UNK N   1      36.412  11.487   9.068  1.00  0.00     0.166 HD
HETATM   13  C   UNK N   1      35.792  12.093  10.940  0.00  0.00     0.187 A 
HETATM   14  N   UNK N   1      35.194  13.077  11.676  0.00  0.00    -0.302 N 
HETATM   15  C   UNK N   1      34.751  14.225  11.050  0.00  0.00     0.261 A 
HETATM   16  O   UNK N   1      34.191  15.101  11.692  0.00  0.00    -0.267 OA
ENDROOT
BRANCH   1  17
HETATM   17  C   UNK N   1      34.314  17.121   7.167  0.00  0.00     0.079 C 
BRANCH  17  18
HETATM   18  C   UNK N   1      33.014  17.226   6.451  0.00  0.00    -0.038 A 
HETATM   19  C   UNK N   1      32.976  17.445   5.071  0.00  0.00     0.011 A 
HETATM   20  C   UNK N   1      31.745  17.546   4.425  0.00  0.00     0.025 A 
HETATM   21  C   UNK N   1      30.569  17.417   5.169  0.00  0.00     0.005 A 
HETATM   22  C   UNK N   1      29.250  17.534   4.494  0.00  0.00     0.068 C 
HETATM   23  N   UNK N   1      30.628  17.187   6.508  0.00  0.00    -0.369 N 
HETATM   24  C   UNK N   1      31.818  17.085   7.158  0.00  0.00     0.095 A 
ATOM     25  HN  UNK N   1      29.760  17.088   7.037  1.00  0.00     0.165 HD
ENDBRANCH  17  18
ENDBRANCH   1  17
BRANCH  14  26
HETATM   26  C   UNK N   1      35.033  12.943  13.136  0.00  0.00     0.122 C 
HETATM   27  C   UNK N   1      34.563  11.549  13.574  0.00  0.00     0.028 C 
HETATM   28  C   UNK N   1      34.312  11.538  15.081  0.00  0.00     0.002 C 
HETATM   29  C   UNK N   1      35.578  11.930  15.839  0.00  0.00     0.003 C 
HETATM   30  C   UNK N   1      36.066  13.303  15.390  0.00  0.00     0.034 C 
HETATM   31  C   UNK N   1      36.329  13.304  13.889  0.00  0.00     0.141 C 
BRANCH  31  32
HETATM   32  O   UNK N   1      36.813  14.559  13.518  0.00  0.00    -0.393 OA
HETATM   33  H   UNK N   1      36.530  14.979  12.691  0.00  0.00     0.210 HD
ENDBRANCH  31  32
ENDBRANCH  14  26
TORSDOF 4
ENDMDL
MODEL 5
REMARK VINA RESULT:      -7.9     12.804     15.064
REMARK  4 active torsions:
REMARK  status: ('A' for Active; 'I' for Inactive)
REMARK    1  A    between atoms: C_5  and  C_9 
REMARK    2  A    between atoms: C_9  and  C_10 
REMARK    3  A    between atoms: C_26  and  N_23 
REMARK    4  A    between atoms: C_31  and  O_32 
ROOT
HETATM    1  C   UNK N   1      27.481  24.304  -4.419  0.00  0.00    -0.042 A 
HETATM    2  C   UNK N   1      28.653  23.734  -3.932  0.00  0.00     0.027 A 
HETATM    3  C   UNK N   1      29.433  22.882  -4.712  0.00  0.00     0.060 A 
HETATM    4  C   UNK N   1      29.044  22.568  -6.021  0.00  0.00     0.060 A 
HETATM    5  C   UNK N   1      27.859  23.115  -6.545  0.00  0.00     0.002 A 
HETATM    6  C   UNK N   1      27.068  23.996  -5.750  0.00  0.00    -0.017 A 
HETATM    7  C   UNK N   1      25.908  24.547  -6.316  0.00  0.00     0.013 A 
HETATM    8  C   UNK N   1      25.522  24.236  -7.620  0.00  0.00     0.001 A 
HETATM    9  C   UNK N   1      26.294  23.367  -8.388  0.00  0.00     0.001 A 
HETATM   10  C   UNK N   1      27.458  22.812  -7.856  0.00  0.00     0.014 A 
HETATM   11  N   UNK N   1      29.829  21.747  -6.771  0.00  0.00    -0.351 N 
ATOM     12  HN  UNK N   1      29.537  21.502  -7.718  1.00  0.00     0.166 HD
HETATM   13  C   UNK N   1      30.996  21.246  -6.282  0.00  0.00     0.187 A 
HETATM   14  N   UNK N   1      31.408  21.545  -5.014  0.00  0.00    -0.302 N 
HETATM   15  C   UNK N   1      30.623  22.348  -4.212  0.00  0.00     0.261 A 
HETATM   16  O   UNK N   1      30.966  22.600  -3.066  0.00  0.00    -0.267 OA
ENDROOT
BRANCH   1  17
HETATM   17  C   UNK N   1      26.788  25.241  -3.448  0.00  0.00     0.079 C 
BRANCH  17  18
HETATM   18  C   UNK N   1      26.848  26.709  -3.687  0.00  0.00    -0.038 A 
HETATM   19  C   UNK N   1      27.953  27.283  -4.320  0.00  0.00     0.011 A 
HETATM   20  C   UNK N   1      27.988  28.661  -4.527  0.00  0.00     0.025 A 
HETATM   21  C   UNK N   1      26.910  29.444  -4.105  0.00  0.00     0.005 A 
HETATM   22  C   UNK N   1      26.939  30.915  -4.309  0.00  0.00     0.068 C 
HETATM   23  N   UNK N   1      25.835  28.862  -3.506  0.00  0.00    -0.369 N 
HETATM   24  C   UNK N   1      25.781  27.520  -3.296  0.00  0.00     0.095 A 
ATOM     25  HN  UNK N   1      25.052  29.446  -3.210  1.00  0.00     0.165 HD
ENDBRANCH  17  18
ENDBRANCH   1  17
BRANCH  14  26
HETATM   26  C   UNK N   1      32.693  21.040  -4.492  0.00  0.00     0.122 C 
HETATM   27  C   UNK N   1      32.918  19.546  -4.765  0.00  0.00     0.028 C 
HETATM   28  C   UNK N   1      34.211  19.087  -4.092  0.00  0.00     0.002 C 
HETATM   29  C   UNK N   1      35.399  19.902  -4.599  0.00  0.00     0.003 C 
HETATM   30  C   UNK N   1      35.170  21.389  -4.355  0.00  0.00     0.034 C 
HETATM   31  C   UNK N   1      33.888  21.845  -5.042  0.00  0.00     0.141 C 
BRANCH  31  32
HETATM   32  O   UNK N   1      33.730  23.215  -4.835  0.00  0.00    -0.393 OA
HETATM   33  H   UNK N   1      33.418  23.795  -5.547  0.00  0.00     0.210 HD
ENDBRANCH  31  32
ENDBRANCH  14  26
TORSDOF 4
ENDMDL
MODEL 6
REMARK VINA RESULT:      -7.7      7.264     12.916
REMARK  4 active torsions:
REMARK  status: ('A' for Active; 'I' for Inactive)
REMARK    1  A    between atoms: C_5  and  C_9 
REMARK    2  A    between atoms: C_9  and  C_10 
REMARK    3  A    between atoms: C_26  and  N_23 
REMARK    4  A    between atoms: C_31  and  O_32 
ROOT
HETATM    1  C   UNK N   1      35.706  10.108  17.236  0.00  0.00    -0.042 A 
HETATM    2  C   UNK N   1      35.804  10.018  15.851  0.00  0.00     0.027 A 
HETATM    3  C   UNK N   1      35.711  11.142  15.033  0.00  0.00     0.060 A 
HETATM    4  C   UNK N   1      35.502  12.409  15.595  0.00  0.00     0.060 A 
HETATM    5  C   UNK N   1      35.385  12.540  16.991  0.00  0.00     0.002 A 
HETATM    6  C   UNK N   1      35.494  11.390  17.827  0.00  0.00    -0.017 A 
HETATM    7  C   UNK N   1      35.402  11.563  19.217  0.00  0.00     0.013 A 
HETATM    8  C   UNK N   1      35.197  12.824  19.776  0.00  0.00     0.001 A 
HETATM    9  C   UNK N   1      35.083  13.942  18.954  0.00  0.00     0.001 A 
HETATM   10  C   UNK N   1      35.180  13.803  17.569  0.00  0.00     0.014 A 
HETATM   11  N   UNK N   1      35.430  13.496  14.780  0.00  0.00    -0.351 N 
ATOM     12  HN  UNK N   1      35.259  14.417  15.187  1.00  0.00     0.166 HD
HETATM   13  C   UNK N   1      35.581  13.380  13.433  0.00  0.00     0.187 A 
HETATM   14  N   UNK N   1      35.798  12.159  12.857  0.00  0.00    -0.302 N 
HETATM   15  C   UNK N   1      35.846  11.029  13.648  0.00  0.00     0.261 A 
HETATM   16  O   UNK N   1      36.011   9.929  13.142  0.00  0.00    -0.267 OA
ENDROOT
BRANCH   1  17
HETATM   17  C   UNK N   1      35.879   8.790  17.965  0.00  0.00     0.079 C 
BRANCH  17  18
HETATM   18  C   UNK N   1      34.681   8.112  18.532  0.00  0.00    -0.038 A 
HETATM   19  C   UNK N   1      33.642   8.855  19.096  0.00  0.00     0.011 A 
HETATM   20  C   UNK N   1      32.534   8.195  19.626  0.00  0.00     0.025 A 
HETATM   21  C   UNK N   1      32.479   6.800  19.575  0.00  0.00     0.005 A 
HETATM   22  C   UNK N   1      31.309   6.084  20.146  0.00  0.00     0.068 C 
HETATM   23  N   UNK N   1      33.494   6.095  19.005  0.00  0.00    -0.369 N 
HETATM   24  C   UNK N   1      34.583   6.720  18.483  0.00  0.00     0.095 A 
ATOM     25  HN  UNK N   1      33.436   5.077  18.969  1.00  0.00     0.165 HD
ENDBRANCH  17  18
ENDBRANCH   1  17
BRANCH  14  26
HETATM   26  C   UNK N   1      36.005  12.031  11.402  0.00  0.00     0.122 C 
HETATM   27  C   UNK N   1      34.716  12.195  10.584  0.00  0.00     0.028 C 
HETATM   28  C   UNK N   1      35.004  11.932   9.107  0.00  0.00     0.002 C 
HETATM   29  C   UNK N   1      36.081  12.885   8.592  0.00  0.00     0.003 C 
HETATM   30  C   UNK N   1      37.356  12.746   9.416  0.00  0.00     0.034 C 
HETATM   31  C   UNK N   1      37.066  13.025  10.886  0.00  0.00     0.141 C 
BRANCH  31  32
HETATM   32  O   UNK N   1      38.258  12.931  11.605  0.00  0.00    -0.393 OA
HETATM   33  H   UNK N   1      38.525  13.629  12.222  0.00  0.00     0.210 HD
ENDBRANCH  31  32
ENDBRANCH  14  26
TORSDOF 4
ENDMDL
MODEL 7
REMARK VINA RESULT:      -7.6      3.633      8.022
REMARK  4 active torsions:
REMARK  status: ('A' for Active; 'I' for Inactive)
REMARK    1  A    between atoms: C_5  and  C_9 
REMARK    2  A    between atoms: C_9  and  C_10 
REMARK    3  A    between atoms: C_26  and  N_23 
REMARK    4  A    between atoms: C_31  and  O_32 
ROOT
HETATM    1  C   UNK N   1      28.754  17.788   7.056  0.00  0.00    -0.042 A 
HETATM    2  C   UNK N   1      28.884  16.524   6.490  0.00  0.00     0.027 A 
HETATM    3  C   UNK N   1      28.351  16.222   5.238  0.00  0.00     0.060 A 
HETATM    4  C   UNK N   1      27.652  17.198   4.514  0.00  0.00     0.060 A 
HETATM    5  C   UNK N   1      27.489  18.485   5.058  0.00  0.00     0.002 A 
HETATM    6  C   UNK N   1      28.046  18.795   6.334  0.00  0.00    -0.017 A 
HETATM    7  C   UNK N   1      27.890  20.098   6.832  0.00  0.00     0.013 A 
HETATM    8  C   UNK N   1      27.196  21.070   6.110  0.00  0.00     0.001 A 
HETATM    9  C   UNK N   1      26.647  20.757   4.868  0.00  0.00     0.001 A 
HETATM   10  C   UNK N   1      26.795  19.474   4.343  0.00  0.00     0.014 A 
HETATM   11  N   UNK N   1      27.153  16.887   3.287  0.00  0.00    -0.351 N 
ATOM     12  HN  UNK N   1      26.628  17.590   2.767  1.00  0.00     0.166 HD
HETATM   13  C   UNK N   1      27.341  15.655   2.739  0.00  0.00     0.187 A 
HETATM   14  N   UNK N   1      28.029  14.687   3.416  0.00  0.00    -0.302 N 
HETATM   15  C   UNK N   1      28.522  14.955   4.678  0.00  0.00     0.261 A 
HETATM   16  O   UNK N   1      29.115  14.089   5.305  0.00  0.00    -0.267 OA
ENDROOT
BRANCH   1  17
HETATM   17  C   UNK N   1      29.437  17.948   8.401  0.00  0.00     0.079 C 
BRANCH  17  18
HETATM   18  C   UNK N   1      30.843  17.486   8.560  0.00  0.00    -0.038 A 
HETATM   19  C   UNK N   1      31.907  18.268   8.103  0.00  0.00     0.011 A 
HETATM   20  C   UNK N   1      33.214  17.810   8.258  0.00  0.00     0.025 A 
HETATM   21  C   UNK N   1      33.439  16.578   8.878  0.00  0.00     0.005 A 
HETATM   22  C   UNK N   1      34.826  16.073   9.040  0.00  0.00     0.068 C 
HETATM   23  N   UNK N   1      32.390  15.839   9.332  0.00  0.00    -0.369 N 
HETATM   24  C   UNK N   1      31.107  16.268   9.191  0.00  0.00     0.095 A 
ATOM     25  HN  UNK N   1      32.570  14.945   9.789  1.00  0.00     0.165 HD
ENDBRANCH  17  18
ENDBRANCH   1  17
BRANCH  14  26
HETATM   26  C   UNK N   1      28.273  13.364   2.812  0.00  0.00     0.122 C 
HETATM   27  C   UNK N   1      27.071  12.819   2.028  0.00  0.00     0.028 C 
HETATM   28  C   UNK N   1      27.372  11.403   1.539  0.00  0.00     0.002 C 
HETATM   29  C   UNK N   1      28.623  11.391   0.663  0.00  0.00     0.003 C 
HETATM   30  C   UNK N   1      29.816  11.956   1.427  0.00  0.00     0.034 C 
HETATM   31  C   UNK N   1      29.516  13.374   1.898  0.00  0.00     0.141 C 
BRANCH  31  32
HETATM   32  O   UNK N   1      30.639  13.876   2.556  0.00  0.00    -0.393 OA
HETATM   33  H   UNK N   1      31.523  13.516   2.383  0.00  0.00     0.210 HD
ENDBRANCH  31  32
ENDBRANCH  14  26
TORSDOF 4
ENDMDL
MODEL 8
REMARK VINA RESULT:      -7.6      2.831      8.482
REMARK  4 active torsions:
REMARK  status: ('A' for Active; 'I' for Inactive)
REMARK    1  A    between atoms: C_5  and  C_9 
REMARK    2  A    between atoms: C_9  and  C_10 
REMARK    3  A    between atoms: C_26  and  N_23 
REMARK    4  A    between atoms: C_31  and  O_32 
ROOT
HETATM    1  C   UNK N   1      31.686  17.188   6.972  0.00  0.00    -0.042 A 
HETATM    2  C   UNK N   1      30.378  17.661   6.960  0.00  0.00     0.027 A 
HETATM    3  C   UNK N   1      29.603  17.648   5.801  0.00  0.00     0.060 A 
HETATM    4  C   UNK N   1      30.136  17.160   4.600  0.00  0.00     0.060 A 
HETATM    5  C   UNK N   1      31.460  16.684   4.569  0.00  0.00     0.002 A 
HETATM    6  C   UNK N   1      32.246  16.687   5.759  0.00  0.00    -0.017 A 
HETATM    7  C   UNK N   1      33.552  16.176   5.697  0.00  0.00     0.013 A 
HETATM    8  C   UNK N   1      34.082  15.689   4.502  0.00  0.00     0.001 A 
HETATM    9  C   UNK N   1      33.311  15.697   3.342  0.00  0.00     0.001 A 
HETATM   10  C   UNK N   1      32.006  16.188   3.375  0.00  0.00     0.014 A 
HETATM   11  N   UNK N   1      29.357  17.140   3.485  0.00  0.00    -0.351 N 
ATOM     12  HN  UNK N   1      29.750  16.803   2.606  1.00  0.00     0.166 HD
HETATM   13  C   UNK N   1      28.064  17.563   3.519  0.00  0.00     0.187 A 
HETATM   14  N   UNK N   1      27.513  18.033   4.678  0.00  0.00    -0.302 N 
HETATM   15  C   UNK N   1      28.281  18.098   5.823  0.00  0.00     0.261 A 
HETATM   16  O   UNK N   1      27.808  18.542   6.859  0.00  0.00    -0.267 OA
ENDROOT
BRANCH   1  17
HETATM   17  C   UNK N   1      32.359  17.236   8.330  0.00  0.00     0.079 C 
BRANCH  17  18
HETATM   18  C   UNK N   1      33.031  16.015   8.851  0.00  0.00    -0.038 A 
HETATM   19  C   UNK N   1      34.371  16.052   9.244  0.00  0.00     0.011 A 
HETATM   20  C   UNK N   1      34.979  14.892   9.723  0.00  0.00     0.025 A 
HETATM   21  C   UNK N   1      34.234  13.714   9.809  0.00  0.00     0.005 A 
HETATM   22  C   UNK N   1      34.873  12.469  10.308  0.00  0.00     0.068 C 
HETATM   23  N   UNK N   1      32.925  13.703   9.438  0.00  0.00    -0.369 N 
HETATM   24  C   UNK N   1      32.312  14.823   8.969  0.00  0.00     0.095 A 
ATOM     25  HN  UNK N   1      32.391  12.837   9.514  1.00  0.00     0.165 HD
ENDBRANCH  17  18
ENDBRANCH   1  17
BRANCH  14  26
HETATM   26  C   UNK N   1      26.100  18.454   4.732  0.00  0.00     0.122 C 
HETATM   27  C   UNK N   1      25.651  19.249   3.498  0.00  0.00     0.028 C 
HETATM   28  C   UNK N   1      24.217  19.739   3.693  0.00  0.00     0.002 C 
HETATM   29  C   UNK N   1      23.275  18.563   3.935  0.00  0.00     0.003 C 
HETATM   30  C   UNK N   1      23.730  17.753   5.144  0.00  0.00     0.034 C 
HETATM   31  C   UNK N   1      25.154  17.253   4.937  0.00  0.00     0.141 C 
BRANCH  31  32
HETATM   32  O   UNK N   1      25.525  16.482   6.039  0.00  0.00    -0.393 OA
HETATM   33  H   UNK N   1      25.517  16.855   6.935  0.00  0.00     0.210 HD
ENDBRANCH  31  32
ENDBRANCH  14  26
TORSDOF 4
ENDMDL
MODEL 9
REMARK VINA RESULT:      -7.6      6.611     13.245
REMARK  4 active torsions:
REMARK  status: ('A' for Active; 'I' for Inactive)
REMARK    1  A    between atoms: C_5  and  C_9 
REMARK    2  A    between atoms: C_9  and  C_10 
REMARK    3  A    between atoms: C_26  and  N_23 
REMARK    4  A    between atoms: C_31  and  O_32 
ROOT
HETATM    1  C   UNK N   1      35.664   9.985  16.514  0.00  0.00    -0.042 A 
HETATM    2  C   UNK N   1      35.746  10.105  15.130  0.00  0.00     0.027 A 
HETATM    3  C   UNK N   1      35.682  11.344  14.496  0.00  0.00     0.060 A 
HETATM    4  C   UNK N   1      35.521  12.516  15.249  0.00  0.00     0.060 A 
HETATM    5  C   UNK N   1      35.422  12.434  16.650  0.00  0.00     0.002 A 
HETATM    6  C   UNK N   1      35.500  11.166  17.298  0.00  0.00    -0.017 A 
HETATM    7  C   UNK N   1      35.428  11.126  18.699  0.00  0.00     0.013 A 
HETATM    8  C   UNK N   1      35.270  12.292  19.448  0.00  0.00     0.001 A 
HETATM    9  C   UNK N   1      35.185  13.527  18.809  0.00  0.00     0.001 A 
HETATM   10  C   UNK N   1      35.264  13.599  17.418  0.00  0.00     0.014 A 
HETATM   11  N   UNK N   1      35.477  13.717  14.611  0.00  0.00    -0.351 N 
ATOM     12  HN  UNK N   1      35.341  14.569  15.157  1.00  0.00     0.166 HD
HETATM   13  C   UNK N   1      35.611  13.805  13.260  0.00  0.00     0.187 A 
HETATM   14  N   UNK N   1      35.782  12.681  12.500  0.00  0.00    -0.302 N 
HETATM   15  C   UNK N   1      35.799  11.442  13.108  0.00  0.00     0.261 A 
HETATM   16  O   UNK N   1      35.923  10.428  12.437  0.00  0.00    -0.267 OA
ENDROOT
BRANCH   1  17
HETATM   17  C   UNK N   1      35.800   8.565  17.030  0.00  0.00     0.079 C 
BRANCH  17  18
HETATM   18  C   UNK N   1      37.134   8.081  17.479  0.00  0.00    -0.038 A 
HETATM   19  C   UNK N   1      37.480   8.100  18.832  0.00  0.00     0.011 A 
HETATM   20  C   UNK N   1      38.738   7.646  19.226  0.00  0.00     0.025 A 
HETATM   21  C   UNK N   1      39.629   7.171  18.260  0.00  0.00     0.005 A 
HETATM   22  C   UNK N   1      40.976   6.695  18.665  0.00  0.00     0.068 C 
HETATM   23  N   UNK N   1      39.265   7.145  16.949  0.00  0.00    -0.369 N 
HETATM   24  C   UNK N   1      38.043   7.582  16.543  0.00  0.00     0.095 A 
ATOM     25  HN  UNK N   1      39.923   6.788  16.255  1.00  0.00     0.165 HD
ENDBRANCH  17  18
ENDBRANCH   1  17
BRANCH  14  26
HETATM   26  C   UNK N   1      35.969  12.772  11.040  0.00  0.00     0.122 C 
HETATM   27  C   UNK N   1      34.735  13.300  10.296  0.00  0.00     0.028 C 
HETATM   28  C   UNK N   1      34.979  13.250   8.789  0.00  0.00     0.002 C 
HETATM   29  C   UNK N   1      36.211  14.071   8.416  0.00  0.00     0.003 C 
HETATM   30  C   UNK N   1      37.437  13.569   9.172  0.00  0.00     0.034 C 
HETATM   31  C   UNK N   1      37.194  13.636  10.674  0.00  0.00     0.141 C 
BRANCH  31  32
HETATM   32  O   UNK N   1      38.346  13.210  11.336  0.00  0.00    -0.393 OA
HETATM   33  H   UNK N   1      38.560  12.267  11.409  0.00  0.00     0.210 HD
ENDBRANCH  31  32
ENDBRANCH  14  26
TORSDOF 4
ENDMDL
