MODEL 1
REMARK VINA RESULT:      -5.2      0.000      0.000
REMARK  8 active torsions:
REMARK  status: ('A' for Active; 'I' for Inactive)
REMARK    1  A    between atoms: C_3  and  C_2 
REMARK    2  A    between atoms: C_7  and  C_3 
REMARK    3  A    between atoms: O_16  and  C_7 
REMARK    4  A    between atoms: C_9  and  C_8 
REMARK    5  A    between atoms: O_16  and  C_8 
REMARK    6  A    between atoms: O_17  and  C_9 
REMARK    7  A    between atoms: C_12  and  C_11 
REMARK    8  A    between atoms: O_17  and  C_12 
ROOT
HETATM    1  C   UNK N   1      34.514  18.153   8.468  0.00  0.00     0.294 C 
HETATM    2  O   UNK N   1      35.309  19.006   8.112  0.00  0.00    -0.259 OA
ENDROOT
BRANCH   1   3
HETATM    3  C   UNK N   1      33.387  17.752   7.632  0.00  0.00     0.054 A 
HETATM    4  C   UNK N   1      32.088  17.660   8.134  0.00  0.00     0.020 A 
HETATM    5  C   UNK N   1      31.056  17.270   7.280  0.00  0.00     0.018 A 
HETATM    6  C   UNK N   1      31.341  16.980   5.941  0.00  0.00     0.087 A 
HETATM    7  N   UNK N   1      32.614  17.076   5.474  0.00  0.00    -0.374 N 
HETATM    8  C   UNK N   1      33.629  17.453   6.289  0.00  0.00     0.105 A 
ATOM      9  HN  UNK N   1      32.807  16.862   4.496  1.00  0.00     0.164 HD
ENDBRANCH   1   3
BRANCH   1  10
HETATM   10  O   UNK N   1      34.631  17.530   9.658  0.00  0.00    -0.315 OA
BRANCH  10  11
HETATM   11  C   UNK N   1      35.023  16.243   9.789  0.00  0.00     0.205 C 
BRANCH  11  12
HETATM   12  C   UNK N   1      35.448  16.037  11.215  0.00  0.00     0.194 C 
BRANCH  12  13
HETATM   13  O   UNK N   1      34.567  15.095  11.686  0.00  0.00    -0.389 OA
BRANCH  13  14
HETATM   14  C   UNK N   1      35.274  13.973  12.070  0.00  0.00     0.167 C 
BRANCH  14  15
HETATM   15  C   UNK N   1      36.177  14.533  13.129  0.00  0.00     0.026 C 
BRANCH  15  16
HETATM   16  C   UNK N   1      36.311  13.696  14.360  0.00  0.00    -0.002 C 
HETATM   17  C   UNK N   1      37.020  14.585  15.359  0.00  0.00     0.005 C 
ENDBRANCH  15  16
ENDBRANCH  14  15
ENDBRANCH  13  14
ENDBRANCH  12  13
ENDBRANCH  11  12
ENDBRANCH  10  11
ENDBRANCH   1  10
TORSDOF 8
ENDMDL
MODEL 2
REMARK VINA RESULT:      -5.2     12.216     15.008
REMARK  8 active torsions:
REMARK  status: ('A' for Active; 'I' for Inactive)
REMARK    1  A    between atoms: C_3  and  C_2 
REMARK    2  A    between atoms: C_7  and  C_3 
REMARK    3  A    between atoms: O_16  and  C_7 
REMARK    4  A    between atoms: C_9  and  C_8 
REMARK    5  A    between atoms: O_16  and  C_8 
REMARK    6  A    between atoms: O_17  and  C_9 
REMARK    7  A    between atoms: C_12  and  C_11 
REMARK    8  A    between atoms: O_17  and  C_12 
ROOT
HETATM    1  C   UNK N   1      21.103  12.901   8.626  0.00  0.00     0.294 C 
HETATM    2  O   UNK N   1      21.022  12.303   7.566  0.00  0.00    -0.259 OA
ENDROOT
BRANCH   1   3
HETATM    3  C   UNK N   1      22.153  12.613   9.596  0.00  0.00     0.054 A 
HETATM    4  C   UNK N   1      21.866  12.179  10.891  0.00  0.00     0.020 A 
HETATM    5  C   UNK N   1      22.919  11.921  11.770  0.00  0.00     0.018 A 
HETATM    6  C   UNK N   1      24.237  12.103  11.339  0.00  0.00     0.087 A 
HETATM    7  N   UNK N   1      24.493  12.527  10.073  0.00  0.00    -0.374 N 
HETATM    8  C   UNK N   1      23.484  12.782   9.206  0.00  0.00     0.105 A 
ATOM      9  HN  UNK N   1      25.459  12.655   9.772  1.00  0.00     0.164 HD
ENDBRANCH   1   3
BRANCH   1  10
HETATM   10  O   UNK N   1      20.222  13.866   8.961  0.00  0.00    -0.315 OA
BRANCH  10  11
HETATM   11  C   UNK N   1      20.551  15.174   9.054  0.00  0.00     0.205 C 
BRANCH  11  12
HETATM   12  C   UNK N   1      19.823  15.908   7.964  0.00  0.00     0.194 C 
BRANCH  12  13
HETATM   13  O   UNK N   1      18.633  16.266   8.548  0.00  0.00    -0.389 OA
BRANCH  13  14
HETATM   14  C   UNK N   1      18.767  17.525   9.101  0.00  0.00     0.167 C 
BRANCH  14  15
HETATM   15  C   UNK N   1      17.436  17.706   9.766  0.00  0.00     0.026 C 
BRANCH  15  16
HETATM   16  C   UNK N   1      17.430  18.628  10.941  0.00  0.00    -0.002 C 
HETATM   17  C   UNK N   1      18.739  19.382  10.852  0.00  0.00     0.005 C 
ENDBRANCH  15  16
ENDBRANCH  14  15
ENDBRANCH  13  14
ENDBRANCH  12  13
ENDBRANCH  11  12
ENDBRANCH  10  11
ENDBRANCH   1  10
TORSDOF 8
ENDMDL
MODEL 3
REMARK VINA RESULT:      -5.1     14.216     17.315
REMARK  8 active torsions:
REMARK  status: ('A' for Active; 'I' for Inactive)
REMARK    1  A    between atoms: C_3  and  C_2 
REMARK    2  A    between atoms: C_7  and  C_3 
REMARK    3  A    between atoms: O_16  and  C_7 
REMARK    4  A    between atoms: C_9  and  C_8 
REMARK    5  A    between atoms: O_16  and  C_8 
REMARK    6  A    between atoms: O_17  and  C_9 
REMARK    7  A    between atoms: C_12  and  C_11 
REMARK    8  A    between atoms: O_17  and  C_12 
ROOT
HETATM    1  C   UNK N   1      30.089  22.909  -2.551  0.00  0.00     0.294 C 
HETATM    2  O   UNK N   1      30.394  23.054  -1.379  0.00  0.00    -0.259 OA
ENDROOT
BRANCH   1   3
HETATM    3  C   UNK N   1      30.748  21.926  -3.403  0.00  0.00     0.054 A 
HETATM    4  C   UNK N   1      30.198  21.512  -4.618  0.00  0.00     0.020 A 
HETATM    5  C   UNK N   1      30.881  20.568  -5.385  0.00  0.00     0.018 A 
HETATM    6  C   UNK N   1      32.099  20.056  -4.925  0.00  0.00     0.087 A 
HETATM    7  N   UNK N   1      32.616  20.474  -3.739  0.00  0.00    -0.374 N 
HETATM    8  C   UNK N   1      31.967  21.390  -2.981  0.00  0.00     0.105 A 
ATOM      9  HN  UNK N   1      33.504  20.092  -3.417  1.00  0.00     0.164 HD
ENDBRANCH   1   3
BRANCH   1  10
HETATM   10  O   UNK N   1      29.121  23.652  -3.126  0.00  0.00    -0.315 OA
BRANCH  10  11
HETATM   11  C   UNK N   1      27.874  23.773  -2.617  0.00  0.00     0.205 C 
BRANCH  11  12
HETATM   12  C   UNK N   1      26.964  24.200  -3.733  0.00  0.00     0.194 C 
BRANCH  12  13
HETATM   13  O   UNK N   1      26.328  25.309  -3.231  0.00  0.00    -0.389 OA
BRANCH  13  14
HETATM   14  C   UNK N   1      26.643  26.399  -4.017  0.00  0.00     0.167 C 
BRANCH  14  15
HETATM   15  C   UNK N   1      25.899  27.499  -3.321  0.00  0.00     0.026 C 
BRANCH  15  16
HETATM   16  C   UNK N   1      26.117  28.868  -3.878  0.00  0.00    -0.002 C 
HETATM   17  C   UNK N   1      26.753  28.642  -5.232  0.00  0.00     0.005 C 
ENDBRANCH  15  16
ENDBRANCH  14  15
ENDBRANCH  13  14
ENDBRANCH  12  13
ENDBRANCH  11  12
ENDBRANCH  10  11
ENDBRANCH   1  10
TORSDOF 8
ENDMDL
MODEL 4
REMARK VINA RESULT:      -4.9      7.103      9.774
REMARK  8 active torsions:
REMARK  status: ('A' for Active; 'I' for Inactive)
REMARK    1  A    between atoms: C_3  and  C_2 
REMARK    2  A    between atoms: C_7  and  C_3 
REMARK    3  A    between atoms: O_16  and  C_7 
REMARK    4  A    between atoms: C_9  and  C_8 
REMARK    5  A    between atoms: O_16  and  C_8 
REMARK    6  A    between atoms: O_17  and  C_9 
REMARK    7  A    between atoms: C_12  and  C_11 
REMARK    8  A    between atoms: O_17  and  C_12 
ROOT
HETATM    1  C   UNK N   1      35.149  12.973  16.336  0.00  0.00     0.294 C 
HETATM    2  O   UNK N   1      34.064  13.363  15.939  0.00  0.00    -0.259 OA
ENDROOT
BRANCH   1   3
HETATM    3  C   UNK N   1      35.322  12.397  17.665  0.00  0.00     0.054 A 
HETATM    4  C   UNK N   1      35.616  11.045  17.854  0.00  0.00     0.020 A 
HETATM    5  C   UNK N   1      35.769  10.560  19.153  0.00  0.00     0.018 A 
HETATM    6  C   UNK N   1      35.627  11.432  20.237  0.00  0.00     0.087 A 
HETATM    7  N   UNK N   1      35.341  12.744  20.029  0.00  0.00    -0.374 N 
HETATM    8  C   UNK N   1      35.188  13.234  18.775  0.00  0.00     0.105 A 
ATOM      9  HN  UNK N   1      35.240  13.368  20.829  1.00  0.00     0.164 HD
ENDBRANCH   1   3
BRANCH   1  10
HETATM   10  O   UNK N   1      36.253  13.052  15.566  0.00  0.00    -0.315 OA
BRANCH  10  11
HETATM   11  C   UNK N   1      36.499  14.078  14.720  0.00  0.00     0.205 C 
BRANCH  11  12
HETATM   12  C   UNK N   1      36.184  13.611  13.329  0.00  0.00     0.194 C 
BRANCH  12  13
HETATM   13  O   UNK N   1      36.763  12.367  13.262  0.00  0.00    -0.389 OA
BRANCH  13  14
HETATM   14  C   UNK N   1      35.886  11.498  12.643  0.00  0.00     0.167 C 
BRANCH  14  15
HETATM   15  C   UNK N   1      36.115  10.234  13.417  0.00  0.00     0.026 C 
BRANCH  15  16
HETATM   16  C   UNK N   1      35.015   9.851  14.353  0.00  0.00    -0.002 C 
HETATM   17  C   UNK N   1      33.791  10.571  13.831  0.00  0.00     0.005 C 
ENDBRANCH  15  16
ENDBRANCH  14  15
ENDBRANCH  13  14
ENDBRANCH  12  13
ENDBRANCH  11  12
ENDBRANCH  10  11
ENDBRANCH   1  10
TORSDOF 8
ENDMDL
MODEL 5
REMARK VINA RESULT:      -4.9      1.611      2.573
REMARK  8 active torsions:
REMARK  status: ('A' for Active; 'I' for Inactive)
REMARK    1  A    between atoms: C_3  and  C_2 
REMARK    2  A    between atoms: C_7  and  C_3 
REMARK    3  A    between atoms: O_16  and  C_7 
REMARK    4  A    between atoms: C_9  and  C_8 
REMARK    5  A    between atoms: O_16  and  C_8 
REMARK    6  A    between atoms: O_17  and  C_9 
REMARK    7  A    between atoms: C_12  and  C_11 
REMARK    8  A    between atoms: O_17  and  C_12 
ROOT
HETATM    1  C   UNK N   1      35.142  16.659  10.104  0.00  0.00     0.294 C 
HETATM    2  O   UNK N   1      35.824  17.573  10.534  0.00  0.00    -0.259 OA
ENDROOT
BRANCH   1   3
HETATM    3  C   UNK N   1      34.678  16.626   8.721  0.00  0.00     0.054 A 
HETATM    4  C   UNK N   1      34.712  15.458   7.956  0.00  0.00     0.020 A 
HETATM    5  C   UNK N   1      34.253  15.497   6.640  0.00  0.00     0.018 A 
HETATM    6  C   UNK N   1      33.769  16.699   6.112  0.00  0.00     0.087 A 
HETATM    7  N   UNK N   1      33.745  17.823   6.875  0.00  0.00    -0.374 N 
HETATM    8  C   UNK N   1      34.187  17.805   8.156  0.00  0.00     0.105 A 
ATOM      9  HN  UNK N   1      33.390  18.692   6.478  1.00  0.00     0.164 HD
ENDBRANCH   1   3
BRANCH   1  10
HETATM   10  O   UNK N   1      34.776  15.622  10.886  0.00  0.00    -0.315 OA
BRANCH  10  11
HETATM   11  C   UNK N   1      35.579  15.084  11.832  0.00  0.00     0.205 C 
BRANCH  11  12
HETATM   12  C   UNK N   1      35.045  13.721  12.164  0.00  0.00     0.194 C 
BRANCH  12  13
HETATM   13  O   UNK N   1      35.067  13.685  13.536  0.00  0.00    -0.389 OA
BRANCH  13  14
HETATM   14  C   UNK N   1      36.356  13.924  13.969  0.00  0.00     0.167 C 
BRANCH  14  15
HETATM   15  C   UNK N   1      36.251  13.596  15.428  0.00  0.00     0.026 C 
BRANCH  15  16
HETATM   16  C   UNK N   1      34.943  13.018  15.860  0.00  0.00    -0.002 C 
HETATM   17  C   UNK N   1      34.951  13.122  17.370  0.00  0.00     0.005 C 
ENDBRANCH  15  16
ENDBRANCH  14  15
ENDBRANCH  13  14
ENDBRANCH  12  13
ENDBRANCH  11  12
ENDBRANCH  10  11
ENDBRANCH   1  10
TORSDOF 8
ENDMDL
MODEL 6
REMARK VINA RESULT:      -4.8     12.222     14.703
REMARK  8 active torsions:
REMARK  status: ('A' for Active; 'I' for Inactive)
REMARK    1  A    between atoms: C_3  and  C_2 
REMARK    2  A    between atoms: C_7  and  C_3 
REMARK    3  A    between atoms: O_16  and  C_7 
REMARK    4  A    between atoms: C_9  and  C_8 
REMARK    5  A    between atoms: O_16  and  C_8 
REMARK    6  A    between atoms: O_17  and  C_9 
REMARK    7  A    between atoms: C_12  and  C_11 
REMARK    8  A    between atoms: O_17  and  C_12 
ROOT
HETATM    1  C   UNK N   1      20.370  14.381   9.491  0.00  0.00     0.294 C 
HETATM    2  O   UNK N   1      19.193  14.284   9.794  0.00  0.00    -0.259 OA
ENDROOT
BRANCH   1   3
HETATM    3  C   UNK N   1      21.380  13.472  10.021  0.00  0.00     0.054 A 
HETATM    4  C   UNK N   1      22.716  13.534   9.619  0.00  0.00     0.020 A 
HETATM    5  C   UNK N   1      23.631  12.634  10.166  0.00  0.00     0.018 A 
HETATM    6  C   UNK N   1      23.196  11.690  11.102  0.00  0.00     0.087 A 
HETATM    7  N   UNK N   1      21.891  11.649  11.479  0.00  0.00    -0.374 N 
HETATM    8  C   UNK N   1      20.987  12.515  10.959  0.00  0.00     0.105 A 
ATOM      9  HN  UNK N   1      21.587  10.956  12.162  1.00  0.00     0.164 HD
ENDBRANCH   1   3
BRANCH   1  10
HETATM   10  O   UNK N   1      20.805  15.338   8.647  0.00  0.00    -0.315 OA
BRANCH  10  11
HETATM   11  C   UNK N   1      20.259  16.573   8.575  0.00  0.00     0.205 C 
BRANCH  11  12
HETATM   12  C   UNK N   1      20.629  17.161   7.244  0.00  0.00     0.194 C 
BRANCH  12  13
HETATM   13  O   UNK N   1      21.771  16.483   6.893  0.00  0.00    -0.389 OA
BRANCH  13  14
HETATM   14  C   UNK N   1      22.385  17.151   5.852  0.00  0.00     0.167 C 
BRANCH  14  15
HETATM   15  C   UNK N   1      21.533  16.745   4.687  0.00  0.00     0.026 C 
BRANCH  15  16
HETATM   16  C   UNK N   1      21.551  17.684   3.525  0.00  0.00    -0.002 C 
HETATM   17  C   UNK N   1      21.328  19.054   4.128  0.00  0.00     0.005 C 
ENDBRANCH  15  16
ENDBRANCH  14  15
ENDBRANCH  13  14
ENDBRANCH  12  13
ENDBRANCH  11  12
ENDBRANCH  10  11
ENDBRANCH   1  10
TORSDOF 8
ENDMDL
MODEL 7
REMARK VINA RESULT:      -4.8     17.383     19.895
REMARK  8 active torsions:
REMARK  status: ('A' for Active; 'I' for Inactive)
REMARK    1  A    between atoms: C_3  and  C_2 
REMARK    2  A    between atoms: C_7  and  C_3 
REMARK    3  A    between atoms: O_16  and  C_7 
REMARK    4  A    between atoms: C_9  and  C_8 
REMARK    5  A    between atoms: O_16  and  C_8 
REMARK    6  A    between atoms: O_17  and  C_9 
REMARK    7  A    between atoms: C_12  and  C_11 
REMARK    8  A    between atoms: O_17  and  C_12 
ROOT
HETATM    1  C   UNK N   1      26.728  24.447  -3.470  0.00  0.00     0.294 C 
HETATM    2  O   UNK N   1      27.127  23.844  -2.488  0.00  0.00    -0.259 OA
ENDROOT
BRANCH   1   3
HETATM    3  C   UNK N   1      26.901  23.924  -4.820  0.00  0.00     0.054 A 
HETATM    4  C   UNK N   1      25.821  23.490  -5.591  0.00  0.00     0.020 A 
HETATM    5  C   UNK N   1      26.057  23.000  -6.875  0.00  0.00     0.018 A 
HETATM    6  C   UNK N   1      27.366  22.953  -7.366  0.00  0.00     0.087 A 
HETATM    7  N   UNK N   1      28.403  23.380  -6.598  0.00  0.00    -0.374 N 
HETATM    8  C   UNK N   1      28.193  23.859  -5.348  0.00  0.00     0.105 A 
ATOM      9  HN  UNK N   1      29.352  23.340  -6.968  1.00  0.00     0.164 HD
ENDBRANCH   1   3
BRANCH   1  10
HETATM   10  O   UNK N   1      26.101  25.636  -3.361  0.00  0.00    -0.315 OA
BRANCH  10  11
HETATM   11  C   UNK N   1      26.753  26.820  -3.319  0.00  0.00     0.205 C 
BRANCH  11  12
HETATM   12  C   UNK N   1      25.755  27.903  -3.617  0.00  0.00     0.194 C 
BRANCH  12  13
HETATM   13  O   UNK N   1      25.221  27.531  -4.826  0.00  0.00    -0.389 OA
BRANCH  13  14
HETATM   14  C   UNK N   1      26.161  27.742  -5.815  0.00  0.00     0.167 C 
BRANCH  14  15
HETATM   15  C   UNK N   1      25.692  26.802  -6.885  0.00  0.00     0.026 C 
BRANCH  15  16
HETATM   16  C   UNK N   1      26.672  26.543  -7.982  0.00  0.00    -0.002 C 
HETATM   17  C   UNK N   1      25.843  26.001  -9.125  0.00  0.00     0.005 C 
ENDBRANCH  15  16
ENDBRANCH  14  15
ENDBRANCH  13  14
ENDBRANCH  12  13
ENDBRANCH  11  12
ENDBRANCH  10  11
ENDBRANCH   1  10
TORSDOF 8
ENDMDL
MODEL 8
REMARK VINA RESULT:      -4.8     10.163     13.703
REMARK  8 active torsions:
REMARK  status: ('A' for Active; 'I' for Inactive)
REMARK    1  A    between atoms: C_3  and  C_2 
REMARK    2  A    between atoms: C_7  and  C_3 
REMARK    3  A    between atoms: O_16  and  C_7 
REMARK    4  A    between atoms: C_9  and  C_8 
REMARK    5  A    between atoms: O_16  and  C_8 
REMARK    6  A    between atoms: O_17  and  C_9 
REMARK    7  A    between atoms: C_12  and  C_11 
REMARK    8  A    between atoms: O_17  and  C_12 
ROOT
HETATM    1  C   UNK N   1      24.462  20.348   2.985  0.00  0.00     0.294 C 
HETATM    2  O   UNK N   1      24.705  20.899   1.925  0.00  0.00    -0.259 OA
ENDROOT
BRANCH   1   3
HETATM    3  C   UNK N   1      25.521  19.866   3.865  0.00  0.00     0.054 A 
HETATM    4  C   UNK N   1      26.845  20.290   3.731  0.00  0.00     0.020 A 
HETATM    5  C   UNK N   1      27.809  19.789   4.607  0.00  0.00     0.018 A 
HETATM    6  C   UNK N   1      27.434  18.877   5.598  0.00  0.00     0.087 A 
HETATM    7  N   UNK N   1      26.139  18.478   5.709  0.00  0.00    -0.374 N 
HETATM    8  C   UNK N   1      25.189  18.953   4.868  0.00  0.00     0.105 A 
ATOM      9  HN  UNK N   1      25.879  17.813   6.436  1.00  0.00     0.164 HD
ENDBRANCH   1   3
BRANCH   1  10
HETATM   10  O   UNK N   1      23.196  20.152   3.405  0.00  0.00    -0.315 OA
BRANCH  10  11
HETATM   11  C   UNK N   1      22.109  20.491   2.676  0.00  0.00     0.205 C 
BRANCH  11  12
HETATM   12  C   UNK N   1      20.903  19.907   3.353  0.00  0.00     0.194 C 
BRANCH  12  13
HETATM   13  O   UNK N   1      20.303  19.161   2.369  0.00  0.00    -0.389 OA
BRANCH  13  14
HETATM   14  C   UNK N   1      19.651  18.092   2.951  0.00  0.00     0.167 C 
BRANCH  14  15
HETATM   15  C   UNK N   1      20.506  16.941   2.511  0.00  0.00     0.026 C 
BRANCH  15  16
HETATM   16  C   UNK N   1      21.141  16.159   3.615  0.00  0.00    -0.002 C 
HETATM   17  C   UNK N   1      22.586  16.607   3.628  0.00  0.00     0.005 C 
ENDBRANCH  15  16
ENDBRANCH  14  15
ENDBRANCH  13  14
ENDBRANCH  12  13
ENDBRANCH  11  12
ENDBRANCH  10  11
ENDBRANCH   1  10
TORSDOF 8
ENDMDL
MODEL 9
REMARK VINA RESULT:      -4.8      2.450      6.431
REMARK  8 active torsions:
REMARK  status: ('A' for Active; 'I' for Inactive)
REMARK    1  A    between atoms: C_3  and  C_2 
REMARK    2  A    between atoms: C_7  and  C_3 
REMARK    3  A    between atoms: O_16  and  C_7 
REMARK    4  A    between atoms: C_9  and  C_8 
REMARK    5  A    between atoms: O_16  and  C_8 
REMARK    6  A    between atoms: O_17  and  C_9 
REMARK    7  A    between atoms: C_12  and  C_11 
REMARK    8  A    between atoms: O_17  and  C_12 
ROOT
HETATM    1  C   UNK N   1      34.943  16.711  10.011  0.00  0.00     0.294 C 
HETATM    2  O   UNK N   1      35.583  17.728  10.213  0.00  0.00    -0.259 OA
ENDROOT
BRANCH   1   3
HETATM    3  C   UNK N   1      35.054  15.544  10.880  0.00  0.00     0.054 A 
HETATM    4  C   UNK N   1      35.920  15.516  11.976  0.00  0.00     0.020 A 
HETATM    5  C   UNK N   1      35.977  14.368  12.766  0.00  0.00     0.018 A 
HETATM    6  C   UNK N   1      35.170  13.270  12.448  0.00  0.00     0.087 A 
HETATM    7  N   UNK N   1      34.335  13.320  11.376  0.00  0.00    -0.374 N 
HETATM    8  C   UNK N   1      34.266  14.426  10.597  0.00  0.00     0.105 A 
ATOM      9  HN  UNK N   1      33.753  12.513  11.156  1.00  0.00     0.164 HD
ENDBRANCH   1   3
BRANCH   1  10
HETATM   10  O   UNK N   1      34.093  16.606   8.970  0.00  0.00    -0.315 OA
BRANCH  10  11
HETATM   11  C   UNK N   1      34.374  17.066   7.730  0.00  0.00     0.205 C 
BRANCH  11  12
HETATM   12  C   UNK N   1      33.119  17.671   7.170  0.00  0.00     0.194 C 
BRANCH  12  13
HETATM   13  O   UNK N   1      32.167  16.704   7.380  0.00  0.00    -0.389 OA
BRANCH  13  14
HETATM   14  C   UNK N   1      30.918  17.292   7.356  0.00  0.00     0.167 C 
BRANCH  14  15
HETATM   15  C   UNK N   1      30.573  17.331   8.814  0.00  0.00     0.026 C 
BRANCH  15  16
HETATM   16  C   UNK N   1      29.819  18.541   9.260  0.00  0.00    -0.002 C 
HETATM   17  C   UNK N   1      28.363  18.129   9.219  0.00  0.00     0.005 C 
ENDBRANCH  15  16
ENDBRANCH  14  15
ENDBRANCH  13  14
ENDBRANCH  12  13
ENDBRANCH  11  12
ENDBRANCH  10  11
ENDBRANCH   1  10
TORSDOF 8
ENDMDL
