MODEL 1
REMARK VINA RESULT:      -8.0      0.000      0.000
REMARK  3 active torsions:
REMARK  status: ('A' for Active; 'I' for Inactive)
REMARK    1  A    between atoms: C_2  and  S_3 
REMARK    2  A    between atoms: S_3  and  C_6 
REMARK    3  A    between atoms: C_14  and  C_16 
ROOT
HETATM    1  C   UNK N   1      23.683  19.708   3.309  0.00  0.00     0.061 A 
HETATM    2  C   UNK N   1      24.612  20.563   2.657  0.00  0.00     0.026 A 
HETATM    3  C   UNK N   1      25.978  20.553   3.032  0.00  0.00     0.041 A 
HETATM    4  C   UNK N   1      26.351  19.697   4.067  0.00  0.00     0.104 A 
HETATM    5  C   UNK N   1      25.453  18.881   4.680  0.00  0.00     0.069 A 
HETATM    6  C   UNK N   1      24.114  18.855   4.338  0.00  0.00     0.055 A 
HETATM    7  N   UNK N   1      26.062  18.168   5.631  0.00  0.00    -0.334 N 
ATOM      8  HN  UNK N   1      25.655  17.473   6.257  1.00  0.00     0.168 HD
HETATM    9  C   UNK N   1      27.350  18.589   5.566  0.00  0.00     0.159 A 
HETATM   10  O   UNK N   1      27.523  19.508   4.625  0.00  0.00    -0.291 OA
ENDROOT
BRANCH   9  11
HETATM   11  C   UNK N   1      28.403  18.037   6.426  0.00  0.00     0.016 A 
HETATM   12  C   UNK N   1      28.682  18.592   7.683  0.00  0.00     0.017 A 
HETATM   13  C   UNK N   1      29.724  18.073   8.464  0.00  0.00     0.013 A 
HETATM   14  C   UNK N   1      30.493  17.005   7.986  0.00  0.00    -0.026 A 
HETATM   15  C   UNK N   1      31.550  16.496   8.747  0.00  0.00     0.012 A 
HETATM   16  C   UNK N   1      30.206  16.444   6.723  0.00  0.00    -0.025 A 
HETATM   17  C   UNK N   1      32.319  15.436   8.252  0.00  0.00     0.001 A 
HETATM   18  C   UNK N   1      32.033  14.881   7.000  0.00  0.00     0.001 A 
HETATM   19  C   UNK N   1      30.975  15.384   6.236  0.00  0.00     0.012 A 
HETATM   20  C   UNK N   1      29.165  16.959   5.957  0.00  0.00     0.028 A 
ENDBRANCH   9  11
BRANCH   1  21
HETATM   21  S   UNK N   1      21.922  19.846   3.019  0.00  0.00     0.175 S 
HETATM   22  O   UNK N   1      21.191  19.813   4.372  0.00  0.00    -0.223 OA
HETATM   23  O   UNK N   1      21.909  21.375   2.932  0.00  0.00    -0.223 OA
BRANCH  21  24
HETATM   24  C   UNK N   1      20.738  19.572   1.664  0.00  0.00     0.141 C 
HETATM   25  C   UNK N   1      20.775  20.711   0.665  0.00  0.00     0.021 C 
ENDBRANCH  21  24
ENDBRANCH   1  21
TORSDOF 3
ENDMDL
MODEL 2
REMARK VINA RESULT:      -8.0      8.863     12.967
REMARK  3 active torsions:
REMARK  status: ('A' for Active; 'I' for Inactive)
REMARK    1  A    between atoms: C_2  and  S_3 
REMARK    2  A    between atoms: S_3  and  C_6 
REMARK    3  A    between atoms: C_14  and  C_16 
ROOT
HETATM    1  C   UNK N   1      34.605  15.047   9.455  0.00  0.00     0.061 A 
HETATM    2  C   UNK N   1      35.375  16.122   9.975  0.00  0.00     0.026 A 
HETATM    3  C   UNK N   1      35.896  16.057  11.290  0.00  0.00     0.041 A 
HETATM    4  C   UNK N   1      35.601  14.920  12.040  0.00  0.00     0.104 A 
HETATM    5  C   UNK N   1      34.867  13.897  11.530  0.00  0.00     0.069 A 
HETATM    6  C   UNK N   1      34.347  13.918  10.249  0.00  0.00     0.055 A 
HETATM    7  N   UNK N   1      34.728  12.935  12.445  0.00  0.00    -0.334 N 
ATOM      8  HN  UNK N   1      34.235  12.047  12.359  1.00  0.00     0.168 HD
HETATM    9  C   UNK N   1      35.402  13.422  13.518  0.00  0.00     0.159 A 
HETATM   10  O   UNK N   1      35.927  14.615  13.274  0.00  0.00    -0.291 OA
ENDROOT
BRANCH   9  11
HETATM   11  C   UNK N   1      35.543  12.665  14.768  0.00  0.00     0.016 A 
HETATM   12  C   UNK N   1      35.843  11.295  14.760  0.00  0.00     0.017 A 
HETATM   13  C   UNK N   1      35.925  10.587  15.967  0.00  0.00     0.013 A 
HETATM   14  C   UNK N   1      35.700  11.246  17.181  0.00  0.00    -0.026 A 
HETATM   15  C   UNK N   1      35.757  10.544  18.390  0.00  0.00     0.012 A 
HETATM   16  C   UNK N   1      35.404  12.626  17.188  0.00  0.00    -0.025 A 
HETATM   17  C   UNK N   1      35.517  11.211  19.597  0.00  0.00     0.001 A 
HETATM   18  C   UNK N   1      35.224  12.580  19.601  0.00  0.00     0.001 A 
HETATM   19  C   UNK N   1      35.169  13.287  18.396  0.00  0.00     0.012 A 
HETATM   20  C   UNK N   1      35.332  13.323  15.986  0.00  0.00     0.028 A 
ENDBRANCH   9  11
BRANCH   1  21
HETATM   21  S   UNK N   1      33.749  15.182   7.889  0.00  0.00     0.175 S 
HETATM   22  O   UNK N   1      32.864  13.939   7.696  0.00  0.00    -0.223 OA
HETATM   23  O   UNK N   1      32.602  16.044   8.424  0.00  0.00    -0.223 OA
BRANCH  21  24
HETATM   24  C   UNK N   1      33.928  16.070   6.309  0.00  0.00     0.141 C 
HETATM   25  C   UNK N   1      33.802  17.567   6.505  0.00  0.00     0.021 C 
ENDBRANCH  21  24
ENDBRANCH   1  21
TORSDOF 3
ENDMDL
MODEL 3
REMARK VINA RESULT:      -8.0      7.777     11.938
REMARK  3 active torsions:
REMARK  status: ('A' for Active; 'I' for Inactive)
REMARK    1  A    between atoms: C_2  and  S_3 
REMARK    2  A    between atoms: S_3  and  C_6 
REMARK    3  A    between atoms: C_14  and  C_16 
ROOT
HETATM    1  C   UNK N   1      34.539  16.080   8.516  0.00  0.00     0.061 A 
HETATM    2  C   UNK N   1      35.058  17.059   9.405  0.00  0.00     0.026 A 
HETATM    3  C   UNK N   1      35.348  16.721  10.750  0.00  0.00     0.041 A 
HETATM    4  C   UNK N   1      35.080  15.414  11.153  0.00  0.00     0.104 A 
HETATM    5  C   UNK N   1      34.586  14.486  10.292  0.00  0.00     0.069 A 
HETATM    6  C   UNK N   1      34.299  14.773   8.970  0.00  0.00     0.055 A 
HETATM    7  N   UNK N   1      34.420  13.322  10.924  0.00  0.00    -0.334 N 
ATOM      8  HN  UNK N   1      34.070  12.442  10.545  1.00  0.00     0.168 HD
HETATM    9  C   UNK N   1      34.827  13.589  12.190  0.00  0.00     0.159 A 
HETATM   10  O   UNK N   1      35.224  14.847  12.327  0.00  0.00    -0.291 OA
ENDROOT
BRANCH   9  11
HETATM   11  C   UNK N   1      34.848  12.566  13.242  0.00  0.00     0.016 A 
HETATM   12  C   UNK N   1      34.538  11.227  12.962  0.00  0.00     0.017 A 
HETATM   13  C   UNK N   1      34.521  10.280  13.994  0.00  0.00     0.013 A 
HETATM   14  C   UNK N   1      34.803  10.671  15.309  0.00  0.00    -0.026 A 
HETATM   15  C   UNK N   1      34.765   9.738  16.350  0.00  0.00     0.012 A 
HETATM   16  C   UNK N   1      35.120  12.017  15.588  0.00  0.00    -0.025 A 
HETATM   17  C   UNK N   1      35.037  10.144  17.662  0.00  0.00     0.001 A 
HETATM   18  C   UNK N   1      35.351  11.480  17.936  0.00  0.00     0.001 A 
HETATM   19  C   UNK N   1      35.394  12.416  16.899  0.00  0.00     0.012 A 
HETATM   20  C   UNK N   1      35.144  12.951  14.556  0.00  0.00     0.028 A 
ENDBRANCH   9  11
BRANCH   1  21
HETATM   21  S   UNK N   1      33.957  16.517   6.880  0.00  0.00     0.175 S 
HETATM   22  O   UNK N   1      34.408  17.953   6.559  0.00  0.00    -0.223 OA
HETATM   23  O   UNK N   1      35.127  15.872   6.132  0.00  0.00    -0.223 OA
BRANCH  21  24
HETATM   24  C   UNK N   1      32.671  15.991   5.704  0.00  0.00     0.141 C 
HETATM   25  C   UNK N   1      31.628  17.073   5.513  0.00  0.00     0.021 C 
ENDBRANCH  21  24
ENDBRANCH   1  21
TORSDOF 3
ENDMDL
MODEL 4
REMARK VINA RESULT:      -7.5      9.328     13.161
REMARK  3 active torsions:
REMARK  status: ('A' for Active; 'I' for Inactive)
REMARK    1  A    between atoms: C_2  and  S_3 
REMARK    2  A    between atoms: S_3  and  C_6 
REMARK    3  A    between atoms: C_14  and  C_16 
ROOT
HETATM    1  C   UNK N   1      36.266  13.494  12.999  0.00  0.00     0.061 A 
HETATM    2  C   UNK N   1      37.284  12.881  12.220  0.00  0.00     0.026 A 
HETATM    3  C   UNK N   1      37.368  13.131  10.828  0.00  0.00     0.041 A 
HETATM    4  C   UNK N   1      36.406  13.972  10.271  0.00  0.00     0.104 A 
HETATM    5  C   UNK N   1      35.440  14.556  11.027  0.00  0.00     0.069 A 
HETATM    6  C   UNK N   1      35.330  14.343  12.389  0.00  0.00     0.055 A 
HETATM    7  N   UNK N   1      34.651  15.308  10.257  0.00  0.00    -0.334 N 
ATOM      8  HN  UNK N   1      33.845  15.868  10.534  1.00  0.00     0.168 HD
HETATM    9  C   UNK N   1      35.178  15.151   9.016  0.00  0.00     0.159 A 
HETATM   10  O   UNK N   1      36.234  14.348   9.025  0.00  0.00    -0.291 OA
ENDROOT
BRANCH   9  11
HETATM   11  C   UNK N   1      34.637  15.839   7.838  0.00  0.00     0.016 A 
HETATM   12  C   UNK N   1      34.148  17.151   7.922  0.00  0.00     0.017 A 
HETATM   13  C   UNK N   1      33.595  17.767   6.792  0.00  0.00     0.013 A 
HETATM   14  C   UNK N   1      33.520  17.071   5.580  0.00  0.00    -0.026 A 
HETATM   15  C   UNK N   1      32.947  17.668   4.453  0.00  0.00     0.012 A 
HETATM   16  C   UNK N   1      34.017  15.753   5.496  0.00  0.00    -0.025 A 
HETATM   17  C   UNK N   1      32.868  16.956   3.250  0.00  0.00     0.001 A 
HETATM   18  C   UNK N   1      33.362  15.649   3.169  0.00  0.00     0.001 A 
HETATM   19  C   UNK N   1      33.938  15.048   4.292  0.00  0.00     0.012 A 
HETATM   20  C   UNK N   1      34.574  15.150   6.620  0.00  0.00     0.028 A 
ENDBRANCH   9  11
BRANCH   1  21
HETATM   21  S   UNK N   1      35.993  13.035  14.707  0.00  0.00     0.175 S 
HETATM   22  O   UNK N   1      37.056  12.003  15.122  0.00  0.00    -0.223 OA
HETATM   23  O   UNK N   1      36.761  14.220  15.301  0.00  0.00    -0.223 OA
BRANCH  21  24
HETATM   24  C   UNK N   1      34.641  13.060  15.926  0.00  0.00     0.141 C 
HETATM   25  C   UNK N   1      35.178  12.990  17.341  0.00  0.00     0.021 C 
ENDBRANCH  21  24
ENDBRANCH   1  21
TORSDOF 3
ENDMDL
MODEL 5
REMARK VINA RESULT:      -7.4      8.268     12.038
REMARK  3 active torsions:
REMARK  status: ('A' for Active; 'I' for Inactive)
REMARK    1  A    between atoms: C_2  and  S_3 
REMARK    2  A    between atoms: S_3  and  C_6 
REMARK    3  A    between atoms: C_14  and  C_16 
ROOT
HETATM    1  C   UNK N   1      34.623  15.293   7.997  0.00  0.00     0.061 A 
HETATM    2  C   UNK N   1      35.733  14.462   7.687  0.00  0.00     0.026 A 
HETATM    3  C   UNK N   1      36.342  13.677   8.696  0.00  0.00     0.041 A 
HETATM    4  C   UNK N   1      35.822  13.778   9.985  0.00  0.00     0.104 A 
HETATM    5  C   UNK N   1      34.758  14.573  10.269  0.00  0.00     0.069 A 
HETATM    6  C   UNK N   1      34.131  15.349   9.311  0.00  0.00     0.055 A 
HETATM    7  N   UNK N   1      34.461  14.491  11.568  0.00  0.00    -0.334 N 
ATOM      8  HN  UNK N   1      33.716  14.967  12.077  1.00  0.00     0.168 HD
HETATM    9  C   UNK N   1      35.386  13.623  12.048  0.00  0.00     0.159 A 
HETATM   10  O   UNK N   1      36.204  13.194  11.097  0.00  0.00    -0.291 OA
ENDROOT
BRANCH   9  11
HETATM   11  C   UNK N   1      35.415  13.204  13.455  0.00  0.00     0.016 A 
HETATM   12  C   UNK N   1      35.972  14.023  14.447  0.00  0.00     0.017 A 
HETATM   13  C   UNK N   1      36.029  13.579  15.775  0.00  0.00     0.013 A 
HETATM   14  C   UNK N   1      35.537  12.311  16.110  0.00  0.00    -0.026 A 
HETATM   15  C   UNK N   1      35.611  11.849  17.428  0.00  0.00     0.012 A 
HETATM   16  C   UNK N   1      34.972  11.490  15.112  0.00  0.00    -0.025 A 
HETATM   17  C   UNK N   1      35.126  10.574  17.748  0.00  0.00     0.001 A 
HETATM   18  C   UNK N   1      34.566   9.762  16.756  0.00  0.00     0.001 A 
HETATM   19  C   UNK N   1      34.487  10.221  15.438  0.00  0.00     0.012 A 
HETATM   20  C   UNK N   1      34.911  11.942  13.797  0.00  0.00     0.028 A 
ENDBRANCH   9  11
BRANCH   1  21
HETATM   21  S   UNK N   1      33.968  16.460   6.808  0.00  0.00     0.175 S 
HETATM   22  O   UNK N   1      34.616  17.834   7.049  0.00  0.00    -0.223 OA
HETATM   23  O   UNK N   1      34.938  16.083   5.684  0.00  0.00    -0.223 OA
BRANCH  21  24
HETATM   24  C   UNK N   1      32.505  16.641   5.738  0.00  0.00     0.141 C 
HETATM   25  C   UNK N   1      32.722  15.972   4.396  0.00  0.00     0.021 C 
ENDBRANCH  21  24
ENDBRANCH   1  21
TORSDOF 3
ENDMDL
MODEL 6
REMARK VINA RESULT:      -7.3      7.181     12.321
REMARK  3 active torsions:
REMARK  status: ('A' for Active; 'I' for Inactive)
REMARK    1  A    between atoms: C_2  and  S_3 
REMARK    2  A    between atoms: S_3  and  C_6 
REMARK    3  A    between atoms: C_14  and  C_16 
ROOT
HETATM    1  C   UNK N   1      35.899  14.108  12.054  0.00  0.00     0.061 A 
HETATM    2  C   UNK N   1      36.778  14.078  10.938  0.00  0.00     0.026 A 
HETATM    3  C   UNK N   1      36.327  14.492   9.661  0.00  0.00     0.041 A 
HETATM    4  C   UNK N   1      34.998  14.899   9.553  0.00  0.00     0.104 A 
HETATM    5  C   UNK N   1      34.168  14.927  10.629  0.00  0.00     0.069 A 
HETATM    6  C   UNK N   1      34.573  14.539  11.893  0.00  0.00     0.055 A 
HETATM    7  N   UNK N   1      32.958  15.352  10.259  0.00  0.00    -0.334 N 
ATOM      8  HN  UNK N   1      32.129  15.480  10.839  1.00  0.00     0.168 HD
HETATM    9  C   UNK N   1      33.094  15.572   8.927  0.00  0.00     0.159 A 
HETATM   10  O   UNK N   1      34.321  15.300   8.504  0.00  0.00    -0.291 OA
ENDROOT
BRANCH   9  11
HETATM   11  C   UNK N   1      31.998  16.090   8.099  0.00  0.00     0.016 A 
HETATM   12  C   UNK N   1      31.864  15.719   6.754  0.00  0.00     0.017 A 
HETATM   13  C   UNK N   1      30.835  16.264   5.975  0.00  0.00     0.013 A 
HETATM   14  C   UNK N   1      29.945  17.187   6.536  0.00  0.00    -0.026 A 
HETATM   15  C   UNK N   1      28.929  17.755   5.761  0.00  0.00     0.012 A 
HETATM   16  C   UNK N   1      30.078  17.556   7.892  0.00  0.00    -0.025 A 
HETATM   17  C   UNK N   1      28.054  18.687   6.331  0.00  0.00     0.001 A 
HETATM   18  C   UNK N   1      28.188  19.051   7.676  0.00  0.00     0.001 A 
HETATM   19  C   UNK N   1      29.199  18.483   8.457  0.00  0.00     0.012 A 
HETATM   20  C   UNK N   1      31.097  17.004   8.662  0.00  0.00     0.028 A 
ENDBRANCH   9  11
BRANCH   1  21
HETATM   21  S   UNK N   1      36.361  13.391  13.628  0.00  0.00     0.175 S 
HETATM   22  O   UNK N   1      36.813  14.516  14.574  0.00  0.00    -0.223 OA
HETATM   23  O   UNK N   1      34.937  13.347  14.191  0.00  0.00    -0.223 OA
BRANCH  21  24
HETATM   24  C   UNK N   1      36.874  11.775  14.292  0.00  0.00     0.141 C 
HETATM   25  C   UNK N   1      37.826  11.071  13.346  0.00  0.00     0.021 C 
ENDBRANCH  21  24
ENDBRANCH   1  21
TORSDOF 3
ENDMDL
MODEL 7
REMARK VINA RESULT:      -7.2      4.486      9.625
REMARK  3 active torsions:
REMARK  status: ('A' for Active; 'I' for Inactive)
REMARK    1  A    between atoms: C_2  and  S_3 
REMARK    2  A    between atoms: S_3  and  C_6 
REMARK    3  A    between atoms: C_14  and  C_16 
ROOT
HETATM    1  C   UNK N   1      33.433  16.742   7.527  0.00  0.00     0.061 A 
HETATM    2  C   UNK N   1      33.878  16.900   6.187  0.00  0.00     0.026 A 
HETATM    3  C   UNK N   1      32.956  17.217   5.160  0.00  0.00     0.041 A 
HETATM    4  C   UNK N   1      31.615  17.339   5.520  0.00  0.00     0.104 A 
HETATM    5  C   UNK N   1      31.202  17.189   6.806  0.00  0.00     0.069 A 
HETATM    6  C   UNK N   1      32.071  16.887   7.838  0.00  0.00     0.055 A 
HETATM    7  N   UNK N   1      29.879  17.354   6.882  0.00  0.00    -0.334 N 
ATOM      8  HN  UNK N   1      29.282  17.304   7.707  1.00  0.00     0.168 HD
HETATM    9  C   UNK N   1      29.519  17.604   5.597  0.00  0.00     0.159 A 
HETATM   10  O   UNK N   1      30.562  17.596   4.780  0.00  0.00    -0.291 OA
ENDROOT
BRANCH   9  11
HETATM   11  C   UNK N   1      28.131  17.886   5.211  0.00  0.00     0.016 A 
HETATM   12  C   UNK N   1      27.089  17.011   5.549  0.00  0.00     0.017 A 
HETATM   13  C   UNK N   1      25.780  17.281   5.128  0.00  0.00     0.013 A 
HETATM   14  C   UNK N   1      25.513  18.421   4.360  0.00  0.00    -0.026 A 
HETATM   15  C   UNK N   1      24.215  18.687   3.914  0.00  0.00     0.012 A 
HETATM   16  C   UNK N   1      26.562  19.304   4.025  0.00  0.00    -0.025 A 
HETATM   17  C   UNK N   1      23.963  19.824   3.136  0.00  0.00     0.001 A 
HETATM   18  C   UNK N   1      25.005  20.698   2.805  0.00  0.00     0.001 A 
HETATM   19  C   UNK N   1      26.305  20.438   3.251  0.00  0.00     0.012 A 
HETATM   20  C   UNK N   1      27.858  19.033   4.454  0.00  0.00     0.028 A 
ENDBRANCH   9  11
BRANCH   1  21
HETATM   21  S   UNK N   1      34.523  16.129   8.808  0.00  0.00     0.175 S 
HETATM   22  O   UNK N   1      34.751  17.244   9.843  0.00  0.00    -0.223 OA
HETATM   23  O   UNK N   1      33.419  15.453   9.627  0.00  0.00    -0.223 OA
BRANCH  21  24
HETATM   24  C   UNK N   1      35.756  14.809   9.033  0.00  0.00     0.141 C 
HETATM   25  C   UNK N   1      35.823  13.909   7.816  0.00  0.00     0.021 C 
ENDBRANCH  21  24
ENDBRANCH   1  21
TORSDOF 3
ENDMDL
MODEL 8
REMARK VINA RESULT:      -7.2     11.049     15.461
REMARK  3 active torsions:
REMARK  status: ('A' for Active; 'I' for Inactive)
REMARK    1  A    between atoms: C_2  and  S_3 
REMARK    2  A    between atoms: S_3  and  C_6 
REMARK    3  A    between atoms: C_14  and  C_16 
ROOT
HETATM    1  C   UNK N   1      36.205  13.764  11.700  0.00  0.00     0.061 A 
HETATM    2  C   UNK N   1      37.260  12.813  11.656  0.00  0.00     0.026 A 
HETATM    3  C   UNK N   1      37.509  11.971  12.767  0.00  0.00     0.041 A 
HETATM    4  C   UNK N   1      36.699  12.136  13.890  0.00  0.00     0.104 A 
HETATM    5  C   UNK N   1      35.691  13.047  13.918  0.00  0.00     0.069 A 
HETATM    6  C   UNK N   1      35.410  13.881  12.852  0.00  0.00     0.055 A 
HETATM    7  N   UNK N   1      35.072  13.005  15.100  0.00  0.00    -0.334 N 
ATOM      8  HN  UNK N   1      34.281  13.564  15.419  1.00  0.00     0.168 HD
HETATM    9  C   UNK N   1      35.748  12.042  15.776  0.00  0.00     0.159 A 
HETATM   10  O   UNK N   1      36.726  11.519  15.048  0.00  0.00    -0.291 OA
ENDROOT
BRANCH   9  11
HETATM   11  C   UNK N   1      35.381  11.630  17.136  0.00  0.00     0.016 A 
HETATM   12  C   UNK N   1      35.467  12.522  18.215  0.00  0.00     0.017 A 
HETATM   13  C   UNK N   1      35.154  12.089  19.510  0.00  0.00     0.013 A 
HETATM   14  C   UNK N   1      34.763  10.762  19.730  0.00  0.00    -0.026 A 
HETATM   15  C   UNK N   1      34.472  10.314  21.022  0.00  0.00     0.012 A 
HETATM   16  C   UNK N   1      34.672   9.868  18.642  0.00  0.00    -0.025 A 
HETATM   17  C   UNK N   1      34.095   8.982  21.230  0.00  0.00     0.001 A 
HETATM   18  C   UNK N   1      34.004   8.097  20.150  0.00  0.00     0.001 A 
HETATM   19  C   UNK N   1      34.292   8.540  18.856  0.00  0.00     0.012 A 
HETATM   20  C   UNK N   1      34.976  10.307  17.358  0.00  0.00     0.028 A 
ENDBRANCH   9  11
BRANCH   1  21
HETATM   21  S   UNK N   1      35.997  14.990  10.412  0.00  0.00     0.175 S 
HETATM   22  O   UNK N   1      36.643  16.309  10.871  0.00  0.00    -0.223 OA
HETATM   23  O   UNK N   1      37.220  14.554   9.598  0.00  0.00    -0.223 OA
BRANCH  21  24
HETATM   24  C   UNK N   1      34.917  15.292   8.978  0.00  0.00     0.141 C 
HETATM   25  C   UNK N   1      33.728  14.352   8.980  0.00  0.00     0.021 C 
ENDBRANCH  21  24
ENDBRANCH   1  21
TORSDOF 3
ENDMDL
MODEL 9
REMARK VINA RESULT:      -6.9      3.335      8.906
REMARK  3 active torsions:
REMARK  status: ('A' for Active; 'I' for Inactive)
REMARK    1  A    between atoms: C_2  and  S_3 
REMARK    2  A    between atoms: S_3  and  C_6 
REMARK    3  A    between atoms: C_14  and  C_16 
ROOT
HETATM    1  C   UNK N   1      30.373  16.481   6.452  0.00  0.00     0.061 A 
HETATM    2  C   UNK N   1      30.117  17.304   7.581  0.00  0.00     0.026 A 
HETATM    3  C   UNK N   1      29.001  18.176   7.591  0.00  0.00     0.041 A 
HETATM    4  C   UNK N   1      28.198  18.201   6.452  0.00  0.00     0.104 A 
HETATM    5  C   UNK N   1      28.451  17.406   5.379  0.00  0.00     0.069 A 
HETATM    6  C   UNK N   1      29.526  16.536   5.334  0.00  0.00     0.055 A 
HETATM    7  N   UNK N   1      27.541  17.621   4.427  0.00  0.00    -0.334 N 
ATOM      8  HN  UNK N   1      27.466  17.176   3.513  1.00  0.00     0.168 HD
HETATM    9  C   UNK N   1      26.740  18.574   4.967  0.00  0.00     0.159 A 
HETATM   10  O   UNK N   1      27.135  18.922   6.184  0.00  0.00    -0.291 OA
ENDROOT
BRANCH   9  11
HETATM   11  C   UNK N   1      25.561  19.100   4.268  0.00  0.00     0.016 A 
HETATM   12  C   UNK N   1      25.668  20.157   3.354  0.00  0.00     0.017 A 
HETATM   13  C   UNK N   1      24.521  20.670   2.734  0.00  0.00     0.013 A 
HETATM   14  C   UNK N   1      23.264  20.132   3.035  0.00  0.00    -0.026 A 
HETATM   15  C   UNK N   1      22.109  20.652   2.441  0.00  0.00     0.012 A 
HETATM   16  C   UNK N   1      23.158  19.063   3.951  0.00  0.00    -0.025 A 
HETATM   17  C   UNK N   1      20.857  20.113   2.760  0.00  0.00     0.001 A 
HETATM   18  C   UNK N   1      20.755  19.053   3.668  0.00  0.00     0.001 A 
HETATM   19  C   UNK N   1      21.906  18.527   4.263  0.00  0.00     0.012 A 
HETATM   20  C   UNK N   1      24.303  18.554   4.555  0.00  0.00     0.028 A 
ENDBRANCH   9  11
BRANCH   1  21
HETATM   21  S   UNK N   1      31.885  15.533   6.309  0.00  0.00     0.175 S 
HETATM   22  O   UNK N   1      32.401  15.205   7.721  0.00  0.00    -0.223 OA
HETATM   23  O   UNK N   1      31.193  14.179   6.134  0.00  0.00    -0.223 OA
BRANCH  21  24
HETATM   24  C   UNK N   1      33.196  15.233   5.082  0.00  0.00     0.141 C 
HETATM   25  C   UNK N   1      32.920  15.980   3.792  0.00  0.00     0.021 C 
ENDBRANCH  21  24
ENDBRANCH   1  21
TORSDOF 3
ENDMDL
