REMARK  7 active torsions:
REMARK  status: ('A' for Active; 'I' for Inactive)
REMARK    1  A    between atoms: O_2  and  C_3 
REMARK    2  A    between atoms: C_3  and  C_4 
REMARK    3  A    between atoms: C_4  and  C_5 
REMARK    4  A    between atoms: C_5  and  C_6 
REMARK       I    between atoms: C_6  and  N_8 
REMARK    5  A    between atoms: N_8  and  C_9 
REMARK    6  A    between atoms: C_9  and  C_10 
REMARK    7  A    between atoms: C_13  and  C_16 
ROOT
HETATM    1  C   UNK N   1       7.783  -4.962   0.669  0.00  0.00    -0.041 A 
HETATM    2  C   UNK N   1       8.970  -4.411   0.173  0.00  0.00     0.009 A 
HETATM    3  C   UNK N   1      10.071  -5.239  -0.082  0.00  0.00     0.017 A 
HETATM    4  C   UNK N   1       9.988  -6.620   0.159  0.00  0.00     0.047 A 
HETATM    5  C   UNK N   1       8.789  -7.164   0.638  0.00  0.00     0.017 A 
HETATM    6  C   UNK N   1       7.696  -6.337   0.901  0.00  0.00     0.009 A 
ENDROOT
BRANCH   1   7
HETATM    7  C   UNK N   1       6.646  -4.088   1.073  0.00  0.00     0.161 C 
BRANCH   7   8
HETATM    8  N   UNK N   1       5.864  -3.649  -0.056  0.00  0.00    -0.357 N 
HETATM    9  C   UNK N   1       4.682  -4.239  -0.367  0.00  0.00     0.217 C 
HETATM   10  O   UNK N   1       3.995  -3.780  -1.262  0.00  0.00    -0.274 OA
HETATM   11  H   UNK N   1       6.193  -2.906  -0.612  0.00  0.00     0.162 HD
BRANCH   9  12
HETATM   12  C   UNK N   1       4.225  -5.473   0.362  0.00  0.00     0.105 C 
BRANCH  12  13
HETATM   13  C   UNK N   1       3.142  -5.154   1.376  0.00  0.00     0.035 C 
BRANCH  13  14
HETATM   14  C   UNK N   1       1.794  -5.675   0.915  0.00  0.00     0.167 C 
BRANCH  14  15
HETATM   15  O   UNK N   1       1.201  -4.757   0.049  0.00  0.00    -0.396 OA
HETATM   16  C   UNK N   1       0.682  -5.533  -0.987  0.00  0.00     0.201 C 
ENDBRANCH  14  15
ENDBRANCH  13  14
ENDBRANCH  12  13
ENDBRANCH   9  12
ENDBRANCH   7   8
ENDBRANCH   1   7
BRANCH   4  17
HETATM   17  C   UNK N   1      11.190  -7.494  -0.057  0.00  0.00     0.417 C 
HETATM   18  F   UNK N   1      11.605  -7.409  -1.373  0.00  0.00    -0.166 F 
HETATM   19  F   UNK N   1      10.903  -8.818   0.236  0.00  0.00    -0.166 F 
HETATM   20  F   UNK N   1      12.215  -7.072   0.770  0.00  0.00    -0.166 F 
ENDBRANCH   4  17
TORSDOF 7
