REMARK  7 active torsions:
REMARK  status: ('A' for Active; 'I' for Inactive)
REMARK    1  A    between atoms: C_3  and  O_19 
REMARK    2  A    between atoms: C_4  and  N_8 
REMARK    3  A    between atoms: C_5  and  O_7 
REMARK       I    between atoms: N_8  and  C_9 
REMARK       I    between atoms: C_9  and  N_11 
REMARK    4  A    between atoms: N_11  and  C_12 
REMARK    5  A    between atoms: N_11  and  N_15 
REMARK    6  A    between atoms: C_12  and  C_13 
REMARK    7  A    between atoms: N_15  and  O_17 
ROOT
HETATM    1  N   UNK N   1       0.419   1.888  -0.240  0.00  0.00    -0.332 N 
HETATM    2  C   UNK N   1       1.638   2.281   0.228  0.00  0.00     0.339 C 
HETATM    3  O   UNK N   1       1.861   3.450   0.498  0.00  0.00    -0.245 OA
HETATM    4  N   UNK N   1       2.625   1.354   0.375  0.00  0.00    -0.222 N 
HETATM    5  H   UNK N   1       0.352   0.933  -0.470  0.00  0.00     0.164 HD
ENDROOT
BRANCH   1   6
HETATM    6  C   UNK N   1      -0.806   2.658  -0.453  0.00  0.00     0.143 C 
HETATM    7  C   UNK N   1      -0.818   4.111   0.084  0.00  0.00     0.143 C 
HETATM    8  C   UNK N   1      -2.191   4.756  -0.121  0.00  0.00     0.034 C 
HETATM    9  C   UNK N   1      -3.302   3.919   0.494  0.00  0.00     0.005 C 
HETATM   10  C   UNK N   1      -3.303   2.540  -0.143  0.00  0.00     0.034 C 
HETATM   11  C   UNK N   1      -1.974   1.852   0.132  0.00  0.00     0.143 C 
BRANCH   7  12
HETATM   12  O   UNK N   1       0.103   4.896  -0.609  0.00  0.00    -0.393 OA
HETATM   13  H   UNK N   1       0.896   4.614  -1.092  0.00  0.00     0.210 HD
ENDBRANCH   7  12
BRANCH  11  14
HETATM   14  O   UNK N   1      -2.001   0.575  -0.431  0.00  0.00    -0.393 OA
HETATM   15  H   UNK N   1      -2.779   0.148  -0.823  0.00  0.00     0.210 HD
ENDBRANCH  11  14
ENDBRANCH   1   6
BRANCH   4  16
HETATM   16  C   UNK N   1       3.944   1.770   0.810  0.00  0.00     0.171 C 
BRANCH  16  17
HETATM   17  C   UNK N   1       4.889   1.794  -0.378  0.00  0.00     0.136 C 
HETATM   18 Cl   UNK N   1       5.869   3.276  -0.312  0.00  0.00    -0.129 Cl
ENDBRANCH  16  17
ENDBRANCH   4  16
BRANCH   4  19
HETATM   19  N   UNK N   1       2.363   0.025   0.113  0.00  0.00    -0.204 N 
ATOM     20  HN  UNK N   1       1.449  -0.244  -0.252  1.00  0.00     0.216 HD
BRANCH  19  21
HETATM   21  O   UNK N   1       3.188  -0.816   0.307  0.00  0.00    -0.274 OA
ATOM     22  HO  UNK N   1       3.008  -1.731   0.127  1.00  0.00     0.246 HD
ENDBRANCH  19  21
ENDBRANCH   4  19
TORSDOF 7
