REMARK  5 active torsions:
REMARK  status: ('A' for Active; 'I' for Inactive)
REMARK    1  A    between atoms: C_4  and  C_11 
REMARK    2  A    between atoms: C_8  and  N_9 
REMARK    3  A    between atoms: N_18  and  C_26 
REMARK    4  A    between atoms: C_20  and  C_23 
REMARK    5  A    between atoms: C_23  and  O_25 
ROOT
HETATM    1  C   UNK N   1      -1.384  -0.526  -0.018  0.00  0.00    -0.016 A 
HETATM    2  C   UNK N   1      -1.333  -1.916   0.122  0.00  0.00     0.014 A 
HETATM    3  C   UNK N   1      -0.127  -2.596   0.147  0.00  0.00     0.019 A 
HETATM    4  C   UNK N   1       1.087  -1.915   0.033  0.00  0.00     0.043 A 
HETATM    5  C   UNK N   1       1.109  -0.499  -0.120  0.00  0.00     0.055 A 
HETATM    6  C   UNK N   1      -0.153   0.199  -0.149  0.00  0.00    -0.023 A 
HETATM    7  C   UNK N   1      -0.204   1.682  -0.326  0.00  0.00     0.051 C 
HETATM    8  N   UNK N   1       2.345   0.138  -0.244  0.00  0.00    -0.350 N 
HETATM    9  C   UNK N   1       3.498  -0.592  -0.225  0.00  0.00     0.114 A 
HETATM   10  C   UNK N   1       3.512  -1.970  -0.061  0.00  0.00     0.104 A 
HETATM   11  C   UNK N   1       2.289  -2.645   0.064  0.00  0.00     0.202 A 
HETATM   12  O   UNK N   1       2.266  -3.857   0.199  0.00  0.00    -0.286 OA
ENDROOT
BRANCH   1  13
HETATM   13  C   UNK N   1      -2.747   0.124  -0.014  0.00  0.00    -0.009 A 
HETATM   14  C   UNK N   1      -2.903   1.511  -0.044  0.00  0.00     0.024 A 
HETATM   15  C   UNK N   1      -4.154   2.112  -0.027  0.00  0.00    -0.017 A 
HETATM   16  C   UNK N   1      -4.194   3.602  -0.059  0.00  0.00     0.052 C 
HETATM   17  C   UNK N   1      -5.305   1.290   0.021  0.00  0.00     0.106 A 
HETATM   18  N   UNK N   1      -5.142  -0.063   0.053  0.00  0.00    -0.351 N 
HETATM   19  C   UNK N   1      -3.914  -0.654   0.041  0.00  0.00     0.102 A 
ATOM     20  HN  UNK N   1      -5.971  -0.657   0.087  1.00  0.00     0.166 HD
BRANCH  17  21
HETATM   21  N   UNK N   1      -6.634   1.805   0.040  0.00  0.00    -0.380 N 
HETATM   22  C   UNK N   1      -6.984   3.203   0.018  0.00  0.00     0.147 C 
HETATM   23  H   UNK N   1      -7.372   1.154   0.071  0.00  0.00     0.160 HD
ENDBRANCH  17  21
ENDBRANCH   1  13
BRANCH   8  24
HETATM   24  C   UNK N   1       2.500   1.590  -0.459  0.00  0.00     0.090 A 
HETATM   25  C   UNK N   1       2.466   2.315   0.881  0.00  0.00     0.028 A 
HETATM   26  C   UNK N   1       3.775   2.172   0.147  0.00  0.00     0.028 A 
ENDBRANCH   8  24
BRANCH  10  27
HETATM   27  C   UNK N   1       4.825  -2.668  -0.024  0.00  0.00     0.181 C 
HETATM   28  O   UNK N   1       5.860  -2.024  -0.110  0.00  0.00    -0.646 OA
BRANCH  27  29
HETATM   29  O   UNK N   1       4.896  -4.006   0.113  0.00  0.00    -0.772 OA
HETATM   30  H   UNK N   1       4.114  -4.514   0.208  0.00  0.00     0.167 HD
ENDBRANCH  27  29
ENDBRANCH  10  27
TORSDOF 5
