MODEL 1
REMARK VINA RESULT:      -5.5      0.000      0.000
REMARK  19 active torsions:
REMARK  status: ('A' for Active; 'I' for Inactive)
REMARK    1  A    between atoms: C_1  and  C_2 
REMARK    2  A    between atoms: C_1  and  C_10 
REMARK    3  A    between atoms: C_2  and  C_3 
REMARK    4  A    between atoms: C_3  and  C_4 
REMARK    5  A    between atoms: C_4  and  N_5 
REMARK       I    between atoms: N_5  and  C_6 
REMARK       I    between atoms: C_6  and  N_9 
REMARK    6  A    between atoms: C_10  and  C_11 
REMARK    7  A    between atoms: C_11  and  C_12 
REMARK       I    between atoms: C_12  and  N_14 
REMARK    8  A    between atoms: N_14  and  C_15 
REMARK    9  A    between atoms: C_15  and  C_16 
REMARK   10  A    between atoms: C_15  and  O_28 
REMARK       I    between atoms: C_16  and  N_18 
REMARK   11  A    between atoms: N_18  and  C_19 
REMARK   12  A    between atoms: C_19  and  C_20 
REMARK   13  A    between atoms: C_20  and  C_21 
REMARK   14  A    between atoms: C_21  and  C_22 
REMARK   15  A    between atoms: C_22  and  N_23 
REMARK   16  A    between atoms: N_23  and  C_24 
REMARK   17  A    between atoms: C_24  and  C_25 
REMARK   18  A    between atoms: C_25  and  C_26 
REMARK   19  A    between atoms: C_26  and  N_27 
ROOT
HETATM    1  C   UNK N   1      35.228  16.204  10.364  0.00  0.00     0.219 C 
HETATM    2  O   UNK N   1      35.406  16.017  11.557  0.00  0.00    -0.274 OA
HETATM    3  N   UNK N   1      34.682  17.376   9.953  0.00  0.00    -0.327 N 
HETATM    4  H   UNK N   1      34.361  18.007  10.637  0.00  0.00     0.165 HD
ENDROOT
BRANCH   3   5
HETATM    5  C   UNK N   1      34.546  17.743   8.562  0.00  0.00     0.314 C 
BRANCH   5   6
HETATM    6  C   UNK N   1      33.144  17.613   8.052  0.00  0.00     0.266 C 
HETATM    7  O   UNK N   1      32.928  17.732   6.855  0.00  0.00    -0.269 OA
HETATM    8  N   UNK N   1      32.119  17.460   8.924  0.00  0.00    -0.357 N 
HETATM    9  H   UNK N   1      32.319  17.316   9.877  0.00  0.00     0.162 HD
BRANCH   8  10
HETATM   10  C   UNK N   1      30.743  17.500   8.495  0.00  0.00     0.123 C 
BRANCH  10  11
HETATM   11  C   UNK N   1      29.996  18.526   9.331  0.00  0.00     0.021 C 
BRANCH  11  12
HETATM   12  C   UNK N   1      28.531  18.615   8.916  0.00  0.00     0.021 C 
BRANCH  12  13
HETATM   13  C   UNK N   1      28.386  18.640   7.398  0.00  0.00     0.113 C 
BRANCH  13  14
HETATM   14  N   UNK N   1      27.442  17.625   6.962  0.00  0.00    -0.421 N 
HETATM   15  H   UNK N   1      26.627  17.301   7.483  0.00  0.00     0.153 HD
BRANCH  14  16
HETATM   16  C   UNK N   1      27.862  17.153   5.657  0.00  0.00     0.115 C 
BRANCH  16  17
HETATM   17  C   UNK N   1      29.056  17.973   5.217  0.00  0.00     0.038 C 
BRANCH  17  18
HETATM   18  C   UNK N   1      30.082  17.087   4.546  0.00  0.00     0.112 C 
BRANCH  18  19
HETATM   19  N   UNK N   1      31.259  17.876   4.234  0.00  0.00    -0.430 N 
HETATM   20  H   UNK N   1      32.108  17.423   3.898  0.00  0.00     0.149 HD
HETATM   21  H   UNK N   1      31.237  18.889   4.353  0.00  0.00     0.149 HD
ENDBRANCH  18  19
ENDBRANCH  17  18
ENDBRANCH  16  17
ENDBRANCH  14  16
ENDBRANCH  13  14
ENDBRANCH  12  13
ENDBRANCH  11  12
ENDBRANCH  10  11
ENDBRANCH   8  10
ENDBRANCH   5   6
BRANCH   5  22
HETATM   22  O   UNK N   1      34.975  19.059   8.388  0.00  0.00    -0.368 OA
HETATM   23  H   UNK N   1      35.422  19.526   9.110  0.00  0.00     0.212 HD
ENDBRANCH   5  22
ENDBRANCH   3   5
BRANCH   1  24
HETATM   24  C   UNK N   1      35.672  15.156   9.386  0.00  0.00     0.103 C 
BRANCH  24  25
HETATM   25  C   UNK N   1      35.207  13.781   9.852  0.00  0.00     0.009 C 
BRANCH  25  26
HETATM   26  C   UNK N   1      36.190  12.703   9.411  0.00  0.00     0.001 C 
BRANCH  26  27
HETATM   27  C   UNK N   1      37.473  12.742  10.233  0.00  0.00     0.002 C 
BRANCH  27  28
HETATM   28  C   UNK N   1      37.716  11.433  10.959  0.00  0.00     0.020 C 
BRANCH  28  29
HETATM   29  C   UNK N   1      37.078  11.513  12.334  0.00  0.00     0.138 C 
BRANCH  29  30
HETATM   30  N   UNK N   1      37.442  12.746  12.985  0.00  0.00    -0.227 N 
HETATM   31  C   UNK N   1      36.451  13.637  13.469  0.00  0.00     0.665 C 
HETATM   32  N   UNK N   1      36.806  14.736  14.032  0.00  0.00    -0.235 N 
HETATM   33  N   UNK N   1      35.079  13.329  13.343  0.00  0.00    -0.235 N 
HETATM   34  H   UNK N   1      37.752  15.007  14.029  0.00  0.00     0.174 HD
ATOM     35  HN  UNK N   1      36.107  15.327  14.482  1.00  0.00     0.174 HD
HETATM   36  H   UNK N   1      34.396  13.948  13.690  0.00  0.00     0.174 HD
HETATM   37  H   UNK N   1      34.803  12.492  12.906  0.00  0.00     0.174 HD
HETATM   38  H   UNK N   1      38.394  12.974  13.095  0.00  0.00     0.177 HD
ENDBRANCH  29  30
ENDBRANCH  28  29
ENDBRANCH  27  28
ENDBRANCH  26  27
ENDBRANCH  25  26
ENDBRANCH  24  25
ENDBRANCH   1  24
TORSDOF 19
ENDMDL
MODEL 2
REMARK VINA RESULT:      -5.4      2.665      9.261
REMARK  19 active torsions:
REMARK  status: ('A' for Active; 'I' for Inactive)
REMARK    1  A    between atoms: C_1  and  C_2 
REMARK    2  A    between atoms: C_1  and  C_10 
REMARK    3  A    between atoms: C_2  and  C_3 
REMARK    4  A    between atoms: C_3  and  C_4 
REMARK    5  A    between atoms: C_4  and  N_5 
REMARK       I    between atoms: N_5  and  C_6 
REMARK       I    between atoms: C_6  and  N_9 
REMARK    6  A    between atoms: C_10  and  C_11 
REMARK    7  A    between atoms: C_11  and  C_12 
REMARK       I    between atoms: C_12  and  N_14 
REMARK    8  A    between atoms: N_14  and  C_15 
REMARK    9  A    between atoms: C_15  and  C_16 
REMARK   10  A    between atoms: C_15  and  O_28 
REMARK       I    between atoms: C_16  and  N_18 
REMARK   11  A    between atoms: N_18  and  C_19 
REMARK   12  A    between atoms: C_19  and  C_20 
REMARK   13  A    between atoms: C_20  and  C_21 
REMARK   14  A    between atoms: C_21  and  C_22 
REMARK   15  A    between atoms: C_22  and  N_23 
REMARK   16  A    between atoms: N_23  and  C_24 
REMARK   17  A    between atoms: C_24  and  C_25 
REMARK   18  A    between atoms: C_25  and  C_26 
REMARK   19  A    between atoms: C_26  and  N_27 
ROOT
HETATM    1  C   UNK N   1      34.922  16.895   9.625  0.00  0.00     0.219 C 
HETATM    2  O   UNK N   1      35.422  18.004   9.727  0.00  0.00    -0.274 OA
HETATM    3  N   UNK N   1      34.865  16.093  10.718  0.00  0.00    -0.327 N 
HETATM    4  H   UNK N   1      35.310  16.394  11.543  0.00  0.00     0.165 HD
ENDROOT
BRANCH   3   5
HETATM    5  C   UNK N   1      34.184  14.819  10.733  0.00  0.00     0.314 C 
BRANCH   5   6
HETATM    6  C   UNK N   1      34.822  13.820  11.649  0.00  0.00     0.266 C 
HETATM    7  O   UNK N   1      35.706  14.184  12.410  0.00  0.00    -0.269 OA
HETATM    8  N   UNK N   1      34.484  12.511  11.563  0.00  0.00    -0.357 N 
HETATM    9  H   UNK N   1      33.735  12.248  10.980  0.00  0.00     0.162 HD
BRANCH   8  10
HETATM   10  C   UNK N   1      35.188  11.493  12.302  0.00  0.00     0.123 C 
BRANCH  10  11
HETATM   11  C   UNK N   1      34.175  10.611  13.014  0.00  0.00     0.021 C 
BRANCH  11  12
HETATM   12  C   UNK N   1      33.784  11.201  14.365  0.00  0.00     0.021 C 
BRANCH  12  13
HETATM   13  C   UNK N   1      34.339  10.367  15.515  0.00  0.00     0.113 C 
BRANCH  13  14
HETATM   14  N   UNK N   1      35.781  10.523  15.605  0.00  0.00    -0.421 N 
HETATM   15  H   UNK N   1      36.476   9.814  15.372  0.00  0.00     0.153 HD
BRANCH  14  16
HETATM   16  C   UNK N   1      36.057  11.863  16.084  0.00  0.00     0.115 C 
BRANCH  16  17
HETATM   17  C   UNK N   1      35.321  12.063  17.391  0.00  0.00     0.038 C 
BRANCH  17  18
HETATM   18  C   UNK N   1      34.821  13.486  17.500  0.00  0.00     0.112 C 
BRANCH  18  19
HETATM   19  N   UNK N   1      35.606  14.190  18.497  0.00  0.00    -0.430 N 
HETATM   20  H   UNK N   1      36.591  13.963  18.631  0.00  0.00     0.149 HD
HETATM   21  H   UNK N   1      35.170  14.915  19.066  0.00  0.00     0.149 HD
ENDBRANCH  18  19
ENDBRANCH  17  18
ENDBRANCH  16  17
ENDBRANCH  14  16
ENDBRANCH  13  14
ENDBRANCH  12  13
ENDBRANCH  11  12
ENDBRANCH  10  11
ENDBRANCH   8  10
ENDBRANCH   5   6
BRANCH   5  22
HETATM   22  O   UNK N   1      32.857  15.008  11.117  0.00  0.00    -0.368 OA
HETATM   23  H   UNK N   1      32.569  15.864  11.472  0.00  0.00     0.212 HD
ENDBRANCH   5  22
ENDBRANCH   3   5
BRANCH   1  24
HETATM   24  C   UNK N   1      34.334  16.476   8.310  0.00  0.00     0.103 C 
BRANCH  24  25
HETATM   25  C   UNK N   1      34.009  17.707   7.472  0.00  0.00     0.009 C 
BRANCH  25  26
HETATM   26  C   UNK N   1      33.784  17.322   6.014  0.00  0.00     0.001 C 
BRANCH  26  27
HETATM   27  C   UNK N   1      32.583  16.395   5.857  0.00  0.00     0.002 C 
BRANCH  27  28
HETATM   28  C   UNK N   1      31.420  17.094   5.179  0.00  0.00     0.020 C 
BRANCH  28  29
HETATM   29  C   UNK N   1      30.343  17.362   6.215  0.00  0.00     0.138 C 
BRANCH  29  30
HETATM   30  N   UNK N   1      30.595  16.597   7.410  0.00  0.00    -0.227 N 
HETATM   31  C   UNK N   1      30.490  17.192   8.693  0.00  0.00     0.665 C 
HETATM   32  N   UNK N   1      30.735  16.490   9.740  0.00  0.00    -0.235 N 
HETATM   33  N   UNK N   1      30.115  18.546   8.833  0.00  0.00    -0.235 N 
HETATM   34  H   UNK N   1      31.099  15.580   9.647  0.00  0.00     0.174 HD
ATOM     35  HN  UNK N   1      30.554  16.875  10.666  1.00  0.00     0.174 HD
HETATM   36  H   UNK N   1      30.035  18.950   9.727  0.00  0.00     0.174 HD
HETATM   37  H   UNK N   1      29.933  19.089   8.033  0.00  0.00     0.174 HD
HETATM   38  H   UNK N   1      30.845  15.648   7.335  0.00  0.00     0.177 HD
ENDBRANCH  29  30
ENDBRANCH  28  29
ENDBRANCH  27  28
ENDBRANCH  26  27
ENDBRANCH  25  26
ENDBRANCH  24  25
ENDBRANCH   1  24
TORSDOF 19
ENDMDL
MODEL 3
REMARK VINA RESULT:      -5.4      3.190      5.267
REMARK  19 active torsions:
REMARK  status: ('A' for Active; 'I' for Inactive)
REMARK    1  A    between atoms: C_1  and  C_2 
REMARK    2  A    between atoms: C_1  and  C_10 
REMARK    3  A    between atoms: C_2  and  C_3 
REMARK    4  A    between atoms: C_3  and  C_4 
REMARK    5  A    between atoms: C_4  and  N_5 
REMARK       I    between atoms: N_5  and  C_6 
REMARK       I    between atoms: C_6  and  N_9 
REMARK    6  A    between atoms: C_10  and  C_11 
REMARK    7  A    between atoms: C_11  and  C_12 
REMARK       I    between atoms: C_12  and  N_14 
REMARK    8  A    between atoms: N_14  and  C_15 
REMARK    9  A    between atoms: C_15  and  C_16 
REMARK   10  A    between atoms: C_15  and  O_28 
REMARK       I    between atoms: C_16  and  N_18 
REMARK   11  A    between atoms: N_18  and  C_19 
REMARK   12  A    between atoms: C_19  and  C_20 
REMARK   13  A    between atoms: C_20  and  C_21 
REMARK   14  A    between atoms: C_21  and  C_22 
REMARK   15  A    between atoms: C_22  and  N_23 
REMARK   16  A    between atoms: N_23  and  C_24 
REMARK   17  A    between atoms: C_24  and  C_25 
REMARK   18  A    between atoms: C_25  and  C_26 
REMARK   19  A    between atoms: C_26  and  N_27 
ROOT
HETATM    1  C   UNK N   1      35.226  13.265  13.881  0.00  0.00     0.219 C 
HETATM    2  O   UNK N   1      34.994  13.470  15.062  0.00  0.00    -0.274 OA
HETATM    3  N   UNK N   1      35.721  14.273  13.120  0.00  0.00    -0.327 N 
HETATM    4  H   UNK N   1      35.796  15.169  13.521  0.00  0.00     0.165 HD
ENDROOT
BRANCH   3   5
HETATM    5  C   UNK N   1      36.145  14.098  11.750  0.00  0.00     0.314 C 
BRANCH   5   6
HETATM    6  C   UNK N   1      35.972  15.332  10.917  0.00  0.00     0.266 C 
HETATM    7  O   UNK N   1      36.898  16.124  10.822  0.00  0.00    -0.269 OA
HETATM    8  N   UNK N   1      34.771  15.607  10.356  0.00  0.00    -0.357 N 
HETATM    9  H   UNK N   1      34.055  14.932  10.404  0.00  0.00     0.162 HD
BRANCH   8  10
HETATM   10  C   UNK N   1      34.510  16.859   9.691  0.00  0.00     0.123 C 
BRANCH  10  11
HETATM   11  C   UNK N   1      34.447  16.617   8.192  0.00  0.00     0.021 C 
BRANCH  11  12
HETATM   12  C   UNK N   1      33.648  17.710   7.490  0.00  0.00     0.021 C 
BRANCH  12  13
HETATM   13  C   UNK N   1      32.199  17.285   7.276  0.00  0.00     0.113 C 
BRANCH  13  14
HETATM   14  N   UNK N   1      31.328  17.955   8.227  0.00  0.00    -0.421 N 
HETATM   15  H   UNK N   1      31.263  18.963   8.373  0.00  0.00     0.153 HD
BRANCH  14  16
HETATM   16  C   UNK N   1      30.568  16.941   8.930  0.00  0.00     0.115 C 
BRANCH  16  17
HETATM   17  C   UNK N   1      29.477  17.628   9.723  0.00  0.00     0.038 C 
BRANCH  17  18
HETATM   18  C   UNK N   1      28.149  17.499   9.011  0.00  0.00     0.112 C 
BRANCH  18  19
HETATM   19  N   UNK N   1      27.578  18.819   8.829  0.00  0.00    -0.430 N 
HETATM   20  H   UNK N   1      26.566  18.942   8.792  0.00  0.00     0.149 HD
HETATM   21  H   UNK N   1      28.191  19.629   8.737  0.00  0.00     0.149 HD
ENDBRANCH  18  19
ENDBRANCH  17  18
ENDBRANCH  16  17
ENDBRANCH  14  16
ENDBRANCH  13  14
ENDBRANCH  12  13
ENDBRANCH  11  12
ENDBRANCH  10  11
ENDBRANCH   8  10
ENDBRANCH   5   6
BRANCH   5  22
HETATM   22  O   UNK N   1      37.486  13.716  11.726  0.00  0.00    -0.368 OA
HETATM   23  H   UNK N   1      37.729  12.800  11.519  0.00  0.00     0.212 HD
ENDBRANCH   5  22
ENDBRANCH   3   5
BRANCH   1  24
HETATM   24  C   UNK N   1      35.010  11.890  13.322  0.00  0.00     0.103 C 
BRANCH  24  25
HETATM   25  C   UNK N   1      35.917  10.893  14.034  0.00  0.00     0.009 C 
BRANCH  25  26
HETATM   26  C   UNK N   1      35.102   9.743  14.614  0.00  0.00     0.001 C 
BRANCH  26  27
HETATM   27  C   UNK N   1      34.488  10.113  15.960  0.00  0.00     0.002 C 
BRANCH  27  28
HETATM   28  C   UNK N   1      35.441   9.838  17.107  0.00  0.00     0.020 C 
BRANCH  28  29
HETATM   29  C   UNK N   1      35.123  10.792  18.244  0.00  0.00     0.138 C 
BRANCH  29  30
HETATM   30  N   UNK N   1      35.212  12.158  17.792  0.00  0.00    -0.227 N 
HETATM   31  C   UNK N   1      35.276  13.231  18.717  0.00  0.00     0.665 C 
HETATM   32  N   UNK N   1      35.340  14.438  18.285  0.00  0.00    -0.235 N 
HETATM   33  N   UNK N   1      35.272  12.986  20.107  0.00  0.00    -0.235 N 
HETATM   34  H   UNK N   1      35.236  14.623  17.323  0.00  0.00     0.174 HD
ATOM     35  HN  UNK N   1      35.499  15.205  18.937  1.00  0.00     0.174 HD
HETATM   36  H   UNK N   1      35.326  13.735  20.744  0.00  0.00     0.174 HD
HETATM   37  H   UNK N   1      35.216  12.063  20.443  0.00  0.00     0.174 HD
HETATM   38  H   UNK N   1      35.230  12.350  16.826  0.00  0.00     0.177 HD
ENDBRANCH  29  30
ENDBRANCH  28  29
ENDBRANCH  27  28
ENDBRANCH  26  27
ENDBRANCH  25  26
ENDBRANCH  24  25
ENDBRANCH   1  24
TORSDOF 19
ENDMDL
MODEL 4
REMARK VINA RESULT:      -5.4      5.188     11.568
REMARK  19 active torsions:
REMARK  status: ('A' for Active; 'I' for Inactive)
REMARK    1  A    between atoms: C_1  and  C_2 
REMARK    2  A    between atoms: C_1  and  C_10 
REMARK    3  A    between atoms: C_2  and  C_3 
REMARK    4  A    between atoms: C_3  and  C_4 
REMARK    5  A    between atoms: C_4  and  N_5 
REMARK       I    between atoms: N_5  and  C_6 
REMARK       I    between atoms: C_6  and  N_9 
REMARK    6  A    between atoms: C_10  and  C_11 
REMARK    7  A    between atoms: C_11  and  C_12 
REMARK       I    between atoms: C_12  and  N_14 
REMARK    8  A    between atoms: N_14  and  C_15 
REMARK    9  A    between atoms: C_15  and  C_16 
REMARK   10  A    between atoms: C_15  and  O_28 
REMARK       I    between atoms: C_16  and  N_18 
REMARK   11  A    between atoms: N_18  and  C_19 
REMARK   12  A    between atoms: C_19  and  C_20 
REMARK   13  A    between atoms: C_20  and  C_21 
REMARK   14  A    between atoms: C_21  and  C_22 
REMARK   15  A    between atoms: C_22  and  N_23 
REMARK   16  A    between atoms: N_23  and  C_24 
REMARK   17  A    between atoms: C_24  and  C_25 
REMARK   18  A    between atoms: C_25  and  C_26 
REMARK   19  A    between atoms: C_26  and  N_27 
ROOT
HETATM    1  C   UNK N   1      27.333  19.912   6.416  0.00  0.00     0.219 C 
HETATM    2  O   UNK N   1      27.034  21.091   6.518  0.00  0.00    -0.274 OA
HETATM    3  N   UNK N   1      27.842  19.264   7.494  0.00  0.00    -0.327 N 
HETATM    4  H   UNK N   1      28.040  19.787   8.303  0.00  0.00     0.165 HD
ENDROOT
BRANCH   3   5
HETATM    5  C   UNK N   1      28.109  17.844   7.512  0.00  0.00     0.314 C 
BRANCH   5   6
HETATM    6  C   UNK N   1      29.557  17.513   7.322  0.00  0.00     0.266 C 
HETATM    7  O   UNK N   1      30.018  17.465   6.191  0.00  0.00    -0.269 OA
HETATM    8  N   UNK N   1      30.321  17.181   8.390  0.00  0.00    -0.357 N 
HETATM    9  H   UNK N   1      29.944  17.274   9.295  0.00  0.00     0.162 HD
BRANCH   8  10
HETATM   10  C   UNK N   1      31.669  16.693   8.240  0.00  0.00     0.123 C 
BRANCH  10  11
HETATM   11  C   UNK N   1      32.638  17.827   8.535  0.00  0.00     0.021 C 
BRANCH  11  12
HETATM   12  C   UNK N   1      33.645  18.001   7.403  0.00  0.00     0.021 C 
BRANCH  12  13
HETATM   13  C   UNK N   1      33.466  16.928   6.333  0.00  0.00     0.113 C 
BRANCH  13  14
HETATM   14  N   UNK N   1      33.032  17.527   5.082  0.00  0.00    -0.421 N 
HETATM   15  H   UNK N   1      32.828  18.515   4.930  0.00  0.00     0.153 HD
BRANCH  14  16
HETATM   16  C   UNK N   1      32.938  16.474   4.090  0.00  0.00     0.115 C 
BRANCH  16  17
HETATM   17  C   UNK N   1      32.084  16.973   2.945  0.00  0.00     0.038 C 
BRANCH  17  18
HETATM   18  C   UNK N   1      30.750  16.261   2.936  0.00  0.00     0.112 C 
BRANCH  18  19
HETATM   19  N   UNK N   1      29.703  17.211   3.262  0.00  0.00    -0.430 N 
HETATM   20  H   UNK N   1      28.826  17.211   2.740  0.00  0.00     0.149 HD
HETATM   21  H   UNK N   1      29.844  17.883   4.016  0.00  0.00     0.149 HD
ENDBRANCH  18  19
ENDBRANCH  17  18
ENDBRANCH  16  17
ENDBRANCH  14  16
ENDBRANCH  13  14
ENDBRANCH  12  13
ENDBRANCH  11  12
ENDBRANCH  10  11
ENDBRANCH   8  10
ENDBRANCH   5   6
BRANCH   5  22
HETATM   22  O   UNK N   1      27.673  17.308   8.724  0.00  0.00    -0.368 OA
HETATM   23  H   UNK N   1      28.204  17.421   9.527  0.00  0.00     0.212 HD
ENDBRANCH   5  22
ENDBRANCH   3   5
BRANCH   1  24
HETATM   24  C   UNK N   1      27.073  19.201   5.120  0.00  0.00     0.103 C 
BRANCH  24  25
HETATM   25  C   UNK N   1      26.970  20.214   3.985  0.00  0.00     0.009 C 
BRANCH  25  26
HETATM   26  C   UNK N   1      25.521  20.381   3.543  0.00  0.00     0.001 C 
BRANCH  26  27
HETATM   27  C   UNK N   1      24.829  19.033   3.368  0.00  0.00     0.002 C 
BRANCH  27  28
HETATM   28  C   UNK N   1      23.496  18.989   4.091  0.00  0.00     0.020 C 
BRANCH  28  29
HETATM   29  C   UNK N   1      22.453  19.678   3.231  0.00  0.00     0.138 C 
BRANCH  29  30
HETATM   30  N   UNK N   1      21.196  18.975   3.307  0.00  0.00    -0.227 N 
HETATM   31  C   UNK N   1      20.158  19.232   2.376  0.00  0.00     0.665 C 
HETATM   32  N   UNK N   1      19.044  18.601   2.478  0.00  0.00    -0.235 N 
HETATM   33  N   UNK N   1      20.337  20.169   1.336  0.00  0.00    -0.235 N 
HETATM   34  H   UNK N   1      18.874  18.027   3.260  0.00  0.00     0.174 HD
ATOM     35  HN  UNK N   1      18.337  18.696   1.751  1.00  0.00     0.174 HD
HETATM   36  H   UNK N   1      19.615  20.336   0.687  0.00  0.00     0.174 HD
HETATM   37  H   UNK N   1      21.186  20.660   1.258  0.00  0.00     0.174 HD
HETATM   38  H   UNK N   1      21.056  18.307   4.017  0.00  0.00     0.177 HD
ENDBRANCH  29  30
ENDBRANCH  28  29
ENDBRANCH  27  28
ENDBRANCH  26  27
ENDBRANCH  25  26
ENDBRANCH  24  25
ENDBRANCH   1  24
TORSDOF 19
ENDMDL
MODEL 5
REMARK VINA RESULT:      -5.4      3.301      4.978
REMARK  19 active torsions:
REMARK  status: ('A' for Active; 'I' for Inactive)
REMARK    1  A    between atoms: C_1  and  C_2 
REMARK    2  A    between atoms: C_1  and  C_10 
REMARK    3  A    between atoms: C_2  and  C_3 
REMARK    4  A    between atoms: C_3  and  C_4 
REMARK    5  A    between atoms: C_4  and  N_5 
REMARK       I    between atoms: N_5  and  C_6 
REMARK       I    between atoms: C_6  and  N_9 
REMARK    6  A    between atoms: C_10  and  C_11 
REMARK    7  A    between atoms: C_11  and  C_12 
REMARK       I    between atoms: C_12  and  N_14 
REMARK    8  A    between atoms: N_14  and  C_15 
REMARK    9  A    between atoms: C_15  and  C_16 
REMARK   10  A    between atoms: C_15  and  O_28 
REMARK       I    between atoms: C_16  and  N_18 
REMARK   11  A    between atoms: N_18  and  C_19 
REMARK   12  A    between atoms: C_19  and  C_20 
REMARK   13  A    between atoms: C_20  and  C_21 
REMARK   14  A    between atoms: C_21  and  C_22 
REMARK   15  A    between atoms: C_22  and  N_23 
REMARK   16  A    between atoms: N_23  and  C_24 
REMARK   17  A    between atoms: C_24  and  C_25 
REMARK   18  A    between atoms: C_25  and  C_26 
REMARK   19  A    between atoms: C_26  and  N_27 
ROOT
HETATM    1  C   UNK N   1      36.403  13.864  12.285  0.00  0.00     0.219 C 
HETATM    2  O   UNK N   1      37.144  12.913  12.092  0.00  0.00    -0.274 OA
HETATM    3  N   UNK N   1      35.802  14.459  11.224  0.00  0.00    -0.327 N 
HETATM    4  H   UNK N   1      36.051  14.162  10.319  0.00  0.00     0.165 HD
ENDROOT
BRANCH   3   5
HETATM    5  C   UNK N   1      34.815  15.506  11.356  0.00  0.00     0.314 C 
BRANCH   5   6
HETATM    6  C   UNK N   1      34.957  16.583  10.325  0.00  0.00     0.266 C 
HETATM    7  O   UNK N   1      35.909  17.348  10.384  0.00  0.00    -0.269 OA
HETATM    8  N   UNK N   1      33.989  16.762   9.395  0.00  0.00    -0.357 N 
HETATM    9  H   UNK N   1      33.258  16.105   9.333  0.00  0.00     0.162 HD
BRANCH   8  10
HETATM   10  C   UNK N   1      33.999  17.886   8.492  0.00  0.00     0.123 C 
BRANCH  10  11
HETATM   11  C   UNK N   1      33.068  17.590   7.327  0.00  0.00     0.021 C 
BRANCH  11  12
HETATM   12  C   UNK N   1      33.849  17.406   6.030  0.00  0.00     0.021 C 
BRANCH  12  13
HETATM   13  C   UNK N   1      33.540  16.060   5.383  0.00  0.00     0.113 C 
BRANCH  13  14
HETATM   14  N   UNK N   1      33.323  15.046   6.402  0.00  0.00    -0.421 N 
HETATM   15  H   UNK N   1      33.197  15.217   7.399  0.00  0.00     0.153 HD
BRANCH  14  16
HETATM   16  C   UNK N   1      33.316  13.751   5.750  0.00  0.00     0.115 C 
BRANCH  16  17
HETATM   17  C   UNK N   1      33.224  12.682   6.818  0.00  0.00     0.038 C 
BRANCH  17  18
HETATM   18  C   UNK N   1      33.635  13.244   8.161  0.00  0.00     0.112 C 
BRANCH  18  19
HETATM   19  N   UNK N   1      32.563  13.028   9.113  0.00  0.00    -0.430 N 
HETATM   20  H   UNK N   1      32.635  12.287   9.811  0.00  0.00     0.149 HD
HETATM   21  H   UNK N   1      31.732  13.619   9.085  0.00  0.00     0.149 HD
ENDBRANCH  18  19
ENDBRANCH  17  18
ENDBRANCH  16  17
ENDBRANCH  14  16
ENDBRANCH  13  14
ENDBRANCH  12  13
ENDBRANCH  11  12
ENDBRANCH  10  11
ENDBRANCH   8  10
ENDBRANCH   5   6
BRANCH   5  22
HETATM   22  O   UNK N   1      33.538  14.952  11.263  0.00  0.00    -0.368 OA
HETATM   23  H   UNK N   1      33.403  14.112  10.799  0.00  0.00     0.212 HD
ENDBRANCH   5  22
ENDBRANCH   3   5
BRANCH   1  24
HETATM   24  C   UNK N   1      36.135  14.309  13.692  0.00  0.00     0.103 C 
BRANCH  24  25
HETATM   25  C   UNK N   1      36.622  13.248  14.673  0.00  0.00     0.009 C 
BRANCH  25  26
HETATM   26  C   UNK N   1      35.619  13.063  15.807  0.00  0.00     0.001 C 
BRANCH  26  27
HETATM   27  C   UNK N   1      35.042  11.652  15.822  0.00  0.00     0.002 C 
BRANCH  27  28
HETATM   28  C   UNK N   1      33.967  11.473  14.767  0.00  0.00     0.020 C 
BRANCH  28  29
HETATM   29  C   UNK N   1      34.301  10.248  13.935  0.00  0.00     0.138 C 
BRANCH  29  30
HETATM   30  N   UNK N   1      35.111  10.617  12.802  0.00  0.00    -0.227 N 
HETATM   31  C   UNK N   1      34.578  10.610  11.488  0.00  0.00     0.665 C 
HETATM   32  N   UNK N   1      35.328  10.929  10.496  0.00  0.00    -0.235 N 
HETATM   33  N   UNK N   1      33.230  10.258  11.259  0.00  0.00    -0.235 N 
HETATM   34  H   UNK N   1      36.292  11.071  10.635  0.00  0.00     0.174 HD
ATOM     35  HN  UNK N   1      34.925  11.035   9.566  1.00  0.00     0.174 HD
HETATM   36  H   UNK N   1      32.863  10.264  10.345  0.00  0.00     0.174 HD
HETATM   37  H   UNK N   1      32.653  10.006  12.015  0.00  0.00     0.174 HD
HETATM   38  H   UNK N   1      36.051  10.879  12.941  0.00  0.00     0.177 HD
ENDBRANCH  29  30
ENDBRANCH  28  29
ENDBRANCH  27  28
ENDBRANCH  26  27
ENDBRANCH  25  26
ENDBRANCH  24  25
ENDBRANCH   1  24
TORSDOF 19
ENDMDL
MODEL 6
REMARK VINA RESULT:      -5.3      3.354      5.262
REMARK  19 active torsions:
REMARK  status: ('A' for Active; 'I' for Inactive)
REMARK    1  A    between atoms: C_1  and  C_2 
REMARK    2  A    between atoms: C_1  and  C_10 
REMARK    3  A    between atoms: C_2  and  C_3 
REMARK    4  A    between atoms: C_3  and  C_4 
REMARK    5  A    between atoms: C_4  and  N_5 
REMARK       I    between atoms: N_5  and  C_6 
REMARK       I    between atoms: C_6  and  N_9 
REMARK    6  A    between atoms: C_10  and  C_11 
REMARK    7  A    between atoms: C_11  and  C_12 
REMARK       I    between atoms: C_12  and  N_14 
REMARK    8  A    between atoms: N_14  and  C_15 
REMARK    9  A    between atoms: C_15  and  C_16 
REMARK   10  A    between atoms: C_15  and  O_28 
REMARK       I    between atoms: C_16  and  N_18 
REMARK   11  A    between atoms: N_18  and  C_19 
REMARK   12  A    between atoms: C_19  and  C_20 
REMARK   13  A    between atoms: C_20  and  C_21 
REMARK   14  A    between atoms: C_21  and  C_22 
REMARK   15  A    between atoms: C_22  and  N_23 
REMARK   16  A    between atoms: N_23  and  C_24 
REMARK   17  A    between atoms: C_24  and  C_25 
REMARK   18  A    between atoms: C_25  and  C_26 
REMARK   19  A    between atoms: C_26  and  N_27 
ROOT
HETATM    1  C   UNK N   1      36.371  14.282  13.769  0.00  0.00     0.219 C 
HETATM    2  O   UNK N   1      36.581  14.538  14.944  0.00  0.00    -0.274 OA
HETATM    3  N   UNK N   1      36.271  15.300  12.878  0.00  0.00    -0.327 N 
HETATM    4  H   UNK N   1      36.280  16.223  13.220  0.00  0.00     0.165 HD
ENDROOT
BRANCH   3   5
HETATM    5  C   UNK N   1      36.150  15.098  11.452  0.00  0.00     0.314 C 
BRANCH   5   6
HETATM    6  C   UNK N   1      34.845  15.580  10.898  0.00  0.00     0.266 C 
HETATM    7  O   UNK N   1      33.821  14.962  11.150  0.00  0.00    -0.269 OA
HETATM    8  N   UNK N   1      34.819  16.636  10.050  0.00  0.00    -0.357 N 
HETATM    9  H   UNK N   1      35.645  17.150   9.901  0.00  0.00     0.162 HD
BRANCH   8  10
HETATM   10  C   UNK N   1      33.615  17.030   9.361  0.00  0.00     0.123 C 
BRANCH  10  11
HETATM   11  C   UNK N   1      33.982  17.978   8.231  0.00  0.00     0.021 C 
BRANCH  11  12
HETATM   12  C   UNK N   1      34.019  17.250   6.891  0.00  0.00     0.021 C 
BRANCH  12  13
HETATM   13  C   UNK N   1      32.765  16.408   6.684  0.00  0.00     0.113 C 
BRANCH  13  14
HETATM   14  N   UNK N   1      33.120  15.068   6.247  0.00  0.00    -0.421 N 
HETATM   15  H   UNK N   1      32.503  14.409   5.771  0.00  0.00     0.153 HD
BRANCH  14  16
HETATM   16  C   UNK N   1      34.505  14.833   6.605  0.00  0.00     0.115 C 
BRANCH  16  17
HETATM   17  C   UNK N   1      34.543  13.791   7.701  0.00  0.00     0.038 C 
BRANCH  17  18
HETATM   18  C   UNK N   1      33.254  13.001   7.720  0.00  0.00     0.112 C 
BRANCH  18  19
HETATM   19  N   UNK N   1      32.677  13.066   9.049  0.00  0.00    -0.430 N 
HETATM   20  H   UNK N   1      33.180  12.681   9.849  0.00  0.00     0.149 HD
HETATM   21  H   UNK N   1      31.763  13.498   9.185  0.00  0.00     0.149 HD
ENDBRANCH  18  19
ENDBRANCH  17  18
ENDBRANCH  16  17
ENDBRANCH  14  16
ENDBRANCH  13  14
ENDBRANCH  12  13
ENDBRANCH  11  12
ENDBRANCH  10  11
ENDBRANCH   8  10
ENDBRANCH   5   6
BRANCH   5  22
HETATM   22  O   UNK N   1      37.193  15.757  10.802  0.00  0.00    -0.368 OA
HETATM   23  H   UNK N   1      37.550  16.583  11.164  0.00  0.00     0.212 HD
ENDBRANCH   5  22
ENDBRANCH   3   5
BRANCH   1  24
HETATM   24  C   UNK N   1      36.289  12.847  13.337  0.00  0.00     0.103 C 
BRANCH  24  25
HETATM   25  C   UNK N   1      34.835  12.388  13.335  0.00  0.00     0.009 C 
BRANCH  25  26
HETATM   26  C   UNK N   1      34.360  12.101  14.754  0.00  0.00     0.001 C 
BRANCH  26  27
HETATM   27  C   UNK N   1      34.201  10.605  15.001  0.00  0.00     0.002 C 
BRANCH  27  28
HETATM   28  C   UNK N   1      34.702  10.205  16.375  0.00  0.00     0.020 C 
BRANCH  28  29
HETATM   29  C   UNK N   1      35.665  11.269  16.870  0.00  0.00     0.138 C 
BRANCH  29  30
HETATM   30  N   UNK N   1      35.446  11.533  18.270  0.00  0.00    -0.227 N 
HETATM   31  C   UNK N   1      35.260  12.856  18.744  0.00  0.00     0.665 C 
HETATM   32  N   UNK N   1      35.081  13.061  19.999  0.00  0.00    -0.235 N 
HETATM   33  N   UNK N   1      35.264  13.950  17.851  0.00  0.00    -0.235 N 
HETATM   34  H   UNK N   1      35.182  12.319  20.637  0.00  0.00     0.174 HD
ATOM     35  HN  UNK N   1      34.835  13.992  20.333  1.00  0.00     0.174 HD
HETATM   36  H   UNK N   1      35.125  14.865  18.186  0.00  0.00     0.174 HD
HETATM   37  H   UNK N   1      35.408  13.797  16.890  0.00  0.00     0.174 HD
HETATM   38  H   UNK N   1      35.425  10.782  18.907  0.00  0.00     0.177 HD
ENDBRANCH  29  30
ENDBRANCH  28  29
ENDBRANCH  27  28
ENDBRANCH  26  27
ENDBRANCH  25  26
ENDBRANCH  24  25
ENDBRANCH   1  24
TORSDOF 19
ENDMDL
MODEL 7
REMARK VINA RESULT:      -5.3      3.325     10.218
REMARK  19 active torsions:
REMARK  status: ('A' for Active; 'I' for Inactive)
REMARK    1  A    between atoms: C_1  and  C_2 
REMARK    2  A    between atoms: C_1  and  C_10 
REMARK    3  A    between atoms: C_2  and  C_3 
REMARK    4  A    between atoms: C_3  and  C_4 
REMARK    5  A    between atoms: C_4  and  N_5 
REMARK       I    between atoms: N_5  and  C_6 
REMARK       I    between atoms: C_6  and  N_9 
REMARK    6  A    between atoms: C_10  and  C_11 
REMARK    7  A    between atoms: C_11  and  C_12 
REMARK       I    between atoms: C_12  and  N_14 
REMARK    8  A    between atoms: N_14  and  C_15 
REMARK    9  A    between atoms: C_15  and  C_16 
REMARK   10  A    between atoms: C_15  and  O_28 
REMARK       I    between atoms: C_16  and  N_18 
REMARK   11  A    between atoms: N_18  and  C_19 
REMARK   12  A    between atoms: C_19  and  C_20 
REMARK   13  A    between atoms: C_20  and  C_21 
REMARK   14  A    between atoms: C_21  and  C_22 
REMARK   15  A    between atoms: C_22  and  N_23 
REMARK   16  A    between atoms: N_23  and  C_24 
REMARK   17  A    between atoms: C_24  and  C_25 
REMARK   18  A    between atoms: C_25  and  C_26 
REMARK   19  A    between atoms: C_26  and  N_27 
ROOT
HETATM    1  C   UNK N   1      35.113  16.824   9.794  0.00  0.00     0.219 C 
HETATM    2  O   UNK N   1      35.535  17.966   9.885  0.00  0.00    -0.274 OA
HETATM    3  N   UNK N   1      35.015  16.065  10.914  0.00  0.00    -0.327 N 
HETATM    4  H   UNK N   1      35.372  16.426  11.757  0.00  0.00     0.165 HD
ENDROOT
BRANCH   3   5
HETATM    5  C   UNK N   1      34.413  14.751  10.932  0.00  0.00     0.314 C 
BRANCH   5   6
HETATM    6  C   UNK N   1      35.014  13.841  11.958  0.00  0.00     0.266 C 
HETATM    7  O   UNK N   1      36.091  14.130  12.458  0.00  0.00    -0.269 OA
HETATM    8  N   UNK N   1      34.410  12.666  12.256  0.00  0.00    -0.357 N 
HETATM    9  H   UNK N   1      33.520  12.477  11.881  0.00  0.00     0.162 HD
BRANCH   8  10
HETATM   10  C   UNK N   1      35.034  11.684  13.108  0.00  0.00     0.123 C 
BRANCH  10  11
HETATM   11  C   UNK N   1      33.959  10.776  13.683  0.00  0.00     0.021 C 
BRANCH  11  12
HETATM   12  C   UNK N   1      34.165  10.555  15.178  0.00  0.00     0.021 C 
BRANCH  12  13
HETATM   13  C   UNK N   1      35.251  11.474  15.729  0.00  0.00     0.113 C 
BRANCH  13  14
HETATM   14  N   UNK N   1      35.174  11.537  17.179  0.00  0.00    -0.421 N 
HETATM   15  H   UNK N   1      35.280  12.376  17.749  0.00  0.00     0.153 HD
BRANCH  14  16
HETATM   16  C   UNK N   1      34.919  10.198  17.673  0.00  0.00     0.115 C 
BRANCH  16  17
HETATM   17  C   UNK N   1      34.926  10.239  19.186  0.00  0.00     0.038 C 
BRANCH  17  18
HETATM   18  C   UNK N   1      35.463  11.566  19.672  0.00  0.00     0.112 C 
BRANCH  18  19
HETATM   19  N   UNK N   1      36.349  11.336  20.797  0.00  0.00    -0.430 N 
HETATM   20  H   UNK N   1      35.968  11.116  21.717  0.00  0.00     0.149 HD
HETATM   21  H   UNK N   1      37.360  11.394  20.667  0.00  0.00     0.149 HD
ENDBRANCH  18  19
ENDBRANCH  17  18
ENDBRANCH  16  17
ENDBRANCH  14  16
ENDBRANCH  13  14
ENDBRANCH  12  13
ENDBRANCH  11  12
ENDBRANCH  10  11
ENDBRANCH   8  10
ENDBRANCH   5   6
BRANCH   5  22
HETATM   22  O   UNK N   1      33.045  14.873  11.175  0.00  0.00    -0.368 OA
HETATM   23  H   UNK N   1      32.480  14.085  11.197  0.00  0.00     0.212 HD
ENDBRANCH   5  22
ENDBRANCH   3   5
BRANCH   1  24
HETATM   24  C   UNK N   1      34.661  16.316   8.457  0.00  0.00     0.103 C 
BRANCH  24  25
HETATM   25  C   UNK N   1      34.386  17.490   7.523  0.00  0.00     0.009 C 
BRANCH  25  26
HETATM   26  C   UNK N   1      32.896  17.806   7.480  0.00  0.00     0.001 C 
BRANCH  26  27
HETATM   27  C   UNK N   1      32.217  17.150   6.282  0.00  0.00     0.002 C 
BRANCH  27  28
HETATM   28  C   UNK N   1      30.946  16.426   6.684  0.00  0.00     0.020 C 
BRANCH  28  29
HETATM   29  C   UNK N   1      29.757  17.305   6.343  0.00  0.00     0.138 C 
BRANCH  29  30
HETATM   30  N   UNK N   1      29.320  18.033   7.509  0.00  0.00    -0.227 N 
HETATM   31  C   UNK N   1      28.085  17.733   8.137  0.00  0.00     0.665 C 
HETATM   32  N   UNK N   1      27.716  18.407   9.166  0.00  0.00    -0.235 N 
HETATM   33  N   UNK N   1      27.259  16.698   7.647  0.00  0.00    -0.235 N 
HETATM   34  H   UNK N   1      28.233  19.196   9.448  0.00  0.00     0.174 HD
ATOM     35  HN  UNK N   1      26.888  18.126   9.689  1.00  0.00     0.174 HD
HETATM   36  H   UNK N   1      26.406  16.489   8.094  0.00  0.00     0.174 HD
HETATM   37  H   UNK N   1      27.535  16.184   6.855  0.00  0.00     0.174 HD
HETATM   38  H   UNK N   1      29.889  18.749   7.875  0.00  0.00     0.177 HD
ENDBRANCH  29  30
ENDBRANCH  28  29
ENDBRANCH  27  28
ENDBRANCH  26  27
ENDBRANCH  25  26
ENDBRANCH  24  25
ENDBRANCH   1  24
TORSDOF 19
ENDMDL
MODEL 8
REMARK VINA RESULT:      -5.3      2.665      4.213
REMARK  19 active torsions:
REMARK  status: ('A' for Active; 'I' for Inactive)
REMARK    1  A    between atoms: C_1  and  C_2 
REMARK    2  A    between atoms: C_1  and  C_10 
REMARK    3  A    between atoms: C_2  and  C_3 
REMARK    4  A    between atoms: C_3  and  C_4 
REMARK    5  A    between atoms: C_4  and  N_5 
REMARK       I    between atoms: N_5  and  C_6 
REMARK       I    between atoms: C_6  and  N_9 
REMARK    6  A    between atoms: C_10  and  C_11 
REMARK    7  A    between atoms: C_11  and  C_12 
REMARK       I    between atoms: C_12  and  N_14 
REMARK    8  A    between atoms: N_14  and  C_15 
REMARK    9  A    between atoms: C_15  and  C_16 
REMARK   10  A    between atoms: C_15  and  O_28 
REMARK       I    between atoms: C_16  and  N_18 
REMARK   11  A    between atoms: N_18  and  C_19 
REMARK   12  A    between atoms: C_19  and  C_20 
REMARK   13  A    between atoms: C_20  and  C_21 
REMARK   14  A    between atoms: C_21  and  C_22 
REMARK   15  A    between atoms: C_22  and  N_23 
REMARK   16  A    between atoms: N_23  and  C_24 
REMARK   17  A    between atoms: C_24  and  C_25 
REMARK   18  A    between atoms: C_25  and  C_26 
REMARK   19  A    between atoms: C_26  and  N_27 
ROOT
HETATM    1  C   UNK N   1      36.149  13.072  10.304  0.00  0.00     0.219 C 
HETATM    2  O   UNK N   1      36.276  12.039   9.666  0.00  0.00    -0.274 OA
HETATM    3  N   UNK N   1      35.072  13.864  10.073  0.00  0.00    -0.327 N 
HETATM    4  H   UNK N   1      34.468  13.627   9.332  0.00  0.00     0.165 HD
ENDROOT
BRANCH   3   5
HETATM    5  C   UNK N   1      34.767  15.037  10.858  0.00  0.00     0.314 C 
BRANCH   5   6
HETATM    6  C   UNK N   1      35.020  16.319  10.126  0.00  0.00     0.266 C 
HETATM    7  O   UNK N   1      35.737  17.168  10.634  0.00  0.00    -0.269 OA
HETATM    8  N   UNK N   1      34.382  16.567   8.957  0.00  0.00    -0.357 N 
HETATM    9  H   UNK N   1      33.849  15.851   8.542  0.00  0.00     0.162 HD
BRANCH   8  10
HETATM   10  C   UNK N   1      34.462  17.850   8.303  0.00  0.00     0.123 C 
BRANCH  10  11
HETATM   11  C   UNK N   1      33.228  18.038   7.436  0.00  0.00     0.021 C 
BRANCH  11  12
HETATM   12  C   UNK N   1      31.958  17.663   8.195  0.00  0.00     0.021 C 
BRANCH  12  13
HETATM   13  C   UNK N   1      31.037  16.798   7.339  0.00  0.00     0.113 C 
BRANCH  13  14
HETATM   14  N   UNK N   1      29.745  17.442   7.176  0.00  0.00    -0.421 N 
HETATM   15  H   UNK N   1      29.369  17.819   6.306  0.00  0.00     0.153 HD
BRANCH  14  16
HETATM   16  C   UNK N   1      29.084  17.452   8.466  0.00  0.00     0.115 C 
BRANCH  16  17
HETATM   17  C   UNK N   1      28.190  18.672   8.533  0.00  0.00     0.038 C 
BRANCH  17  18
HETATM   18  C   UNK N   1      28.177  19.387   7.201  0.00  0.00     0.112 C 
BRANCH  18  19
HETATM   19  N   UNK N   1      26.807  19.502   6.738  0.00  0.00    -0.430 N 
HETATM   20  H   UNK N   1      26.386  20.420   6.595  0.00  0.00     0.149 HD
HETATM   21  H   UNK N   1      26.261  18.660   6.555  0.00  0.00     0.149 HD
ENDBRANCH  18  19
ENDBRANCH  17  18
ENDBRANCH  16  17
ENDBRANCH  14  16
ENDBRANCH  13  14
ENDBRANCH  12  13
ENDBRANCH  11  12
ENDBRANCH  10  11
ENDBRANCH   8  10
ENDBRANCH   5   6
BRANCH   5  22
HETATM   22  O   UNK N   1      33.430  14.994  11.254  0.00  0.00    -0.368 OA
HETATM   23  H   UNK N   1      32.999  15.788  11.606  0.00  0.00     0.212 HD
ENDBRANCH   5  22
ENDBRANCH   3   5
BRANCH   1  24
HETATM   24  C   UNK N   1      37.158  13.405  11.364  0.00  0.00     0.103 C 
BRANCH  24  25
HETATM   25  C   UNK N   1      37.212  12.286  12.398  0.00  0.00     0.009 C 
BRANCH  25  26
HETATM   26  C   UNK N   1      36.079  12.432  13.408  0.00  0.00     0.001 C 
BRANCH  26  27
HETATM   27  C   UNK N   1      36.255  13.678  14.271  0.00  0.00     0.002 C 
BRANCH  27  28
HETATM   28  C   UNK N   1      36.384  13.328  15.741  0.00  0.00     0.020 C 
BRANCH  28  29
HETATM   29  C   UNK N   1      34.997  13.086  16.308  0.00  0.00     0.138 C 
BRANCH  29  30
HETATM   30  N   UNK N   1      35.087  12.550  17.643  0.00  0.00    -0.227 N 
HETATM   31  C   UNK N   1      35.255  13.404  18.763  0.00  0.00     0.665 C 
HETATM   32  N   UNK N   1      35.347  12.897  19.939  0.00  0.00    -0.235 N 
HETATM   33  N   UNK N   1      35.319  14.805  18.600  0.00  0.00    -0.235 N 
HETATM   34  H   UNK N   1      35.411  11.920  20.050  0.00  0.00     0.174 HD
ATOM     35  HN  UNK N   1      35.355  13.505  20.757  1.00  0.00     0.174 HD
HETATM   36  H   UNK N   1      35.427  15.392  19.383  0.00  0.00     0.174 HD
HETATM   37  H   UNK N   1      35.256  15.197  17.700  0.00  0.00     0.174 HD
HETATM   38  H   UNK N   1      35.031  11.577  17.780  0.00  0.00     0.177 HD
ENDBRANCH  29  30
ENDBRANCH  28  29
ENDBRANCH  27  28
ENDBRANCH  26  27
ENDBRANCH  25  26
ENDBRANCH  24  25
ENDBRANCH   1  24
TORSDOF 19
ENDMDL
MODEL 9
REMARK VINA RESULT:      -5.3      1.990      9.731
REMARK  19 active torsions:
REMARK  status: ('A' for Active; 'I' for Inactive)
REMARK    1  A    between atoms: C_1  and  C_2 
REMARK    2  A    between atoms: C_1  and  C_10 
REMARK    3  A    between atoms: C_2  and  C_3 
REMARK    4  A    between atoms: C_3  and  C_4 
REMARK    5  A    between atoms: C_4  and  N_5 
REMARK       I    between atoms: N_5  and  C_6 
REMARK       I    between atoms: C_6  and  N_9 
REMARK    6  A    between atoms: C_10  and  C_11 
REMARK    7  A    between atoms: C_11  and  C_12 
REMARK       I    between atoms: C_12  and  N_14 
REMARK    8  A    between atoms: N_14  and  C_15 
REMARK    9  A    between atoms: C_15  and  C_16 
REMARK   10  A    between atoms: C_15  and  O_28 
REMARK       I    between atoms: C_16  and  N_18 
REMARK   11  A    between atoms: N_18  and  C_19 
REMARK   12  A    between atoms: C_19  and  C_20 
REMARK   13  A    between atoms: C_20  and  C_21 
REMARK   14  A    between atoms: C_21  and  C_22 
REMARK   15  A    between atoms: C_22  and  N_23 
REMARK   16  A    between atoms: N_23  and  C_24 
REMARK   17  A    between atoms: C_24  and  C_25 
REMARK   18  A    between atoms: C_25  and  C_26 
REMARK   19  A    between atoms: C_26  and  N_27 
ROOT
HETATM    1  C   UNK N   1      32.455  17.046   7.298  0.00  0.00     0.219 C 
HETATM    2  O   UNK N   1      32.006  16.722   6.210  0.00  0.00    -0.274 OA
HETATM    3  N   UNK N   1      33.705  17.567   7.369  0.00  0.00    -0.327 N 
HETATM    4  H   UNK N   1      34.251  17.587   6.549  0.00  0.00     0.165 HD
ENDROOT
BRANCH   3   5
HETATM    5  C   UNK N   1      34.277  18.095   8.586  0.00  0.00     0.314 C 
BRANCH   5   6
HETATM    6  C   UNK N   1      35.032  17.070   9.375  0.00  0.00     0.266 C 
HETATM    7  O   UNK N   1      35.633  17.413  10.382  0.00  0.00    -0.269 OA
HETATM    8  N   UNK N   1      35.121  15.797   8.921  0.00  0.00    -0.357 N 
HETATM    9  H   UNK N   1      34.588  15.531   8.137  0.00  0.00     0.162 HD
BRANCH   8  10
HETATM   10  C   UNK N   1      35.972  14.820   9.554  0.00  0.00     0.123 C 
BRANCH  10  11
HETATM   11  C   UNK N   1      35.104  13.728  10.157  0.00  0.00     0.021 C 
BRANCH  11  12
HETATM   12  C   UNK N   1      34.887  13.958  11.650  0.00  0.00     0.021 C 
BRANCH  12  13
HETATM   13  C   UNK N   1      36.064  14.702  12.273  0.00  0.00     0.113 C 
BRANCH  13  14
HETATM   14  N   UNK N   1      36.842  13.806  13.112  0.00  0.00    -0.421 N 
HETATM   15  H   UNK N   1      37.621  13.223  12.805  0.00  0.00     0.153 HD
BRANCH  14  16
HETATM   16  C   UNK N   1      36.319  13.888  14.461  0.00  0.00     0.115 C 
BRANCH  16  17
HETATM   17  C   UNK N   1      36.797  12.677  15.232  0.00  0.00     0.038 C 
BRANCH  17  18
HETATM   18  C   UNK N   1      35.656  12.068  16.015  0.00  0.00     0.112 C 
BRANCH  18  19
HETATM   19  N   UNK N   1      34.806  13.130  16.519  0.00  0.00    -0.430 N 
HETATM   20  H   UNK N   1      34.628  13.217  17.519  0.00  0.00     0.149 HD
HETATM   21  H   UNK N   1      34.385  13.794  15.869  0.00  0.00     0.149 HD
ENDBRANCH  18  19
ENDBRANCH  17  18
ENDBRANCH  16  17
ENDBRANCH  14  16
ENDBRANCH  13  14
ENDBRANCH  12  13
ENDBRANCH  11  12
ENDBRANCH  10  11
ENDBRANCH   8  10
ENDBRANCH   5   6
BRANCH   5  22
HETATM   22  O   UNK N   1      35.133  19.152   8.275  0.00  0.00    -0.368 OA
HETATM   23  H   UNK N   1      34.992  19.672   7.469  0.00  0.00     0.212 HD
ENDBRANCH   5  22
ENDBRANCH   3   5
BRANCH   1  24
HETATM   24  C   UNK N   1      31.589  16.910   8.516  0.00  0.00     0.103 C 
BRANCH  24  25
HETATM   25  C   UNK N   1      30.654  18.110   8.623  0.00  0.00     0.009 C 
BRANCH  25  26
HETATM   26  C   UNK N   1      29.335  17.707   9.273  0.00  0.00     0.001 C 
BRANCH  26  27
HETATM   27  C   UNK N   1      28.193  17.690   8.262  0.00  0.00     0.002 C 
BRANCH  27  28
HETATM   28  C   UNK N   1      28.691  17.915   6.847  0.00  0.00     0.020 C 
BRANCH  28  29
HETATM   29  C   UNK N   1      27.959  19.106   6.257  0.00  0.00     0.138 C 
BRANCH  29  30
HETATM   30  N   UNK N   1      27.005  19.628   7.203  0.00  0.00    -0.227 N 
HETATM   31  C   UNK N   1      26.598  20.985   7.157  0.00  0.00     0.665 C 
HETATM   32  N   UNK N   1      25.758  21.426   8.023  0.00  0.00    -0.235 N 
HETATM   33  N   UNK N   1      27.103  21.858   6.169  0.00  0.00    -0.235 N 
HETATM   34  H   UNK N   1      25.484  20.855   8.776  0.00  0.00     0.174 HD
ATOM     35  HN  UNK N   1      25.375  22.366   7.929  1.00  0.00     0.174 HD
HETATM   36  H   UNK N   1      26.809  22.797   6.137  0.00  0.00     0.174 HD
HETATM   37  H   UNK N   1      27.753  21.526   5.508  0.00  0.00     0.174 HD
HETATM   38  H   UNK N   1      26.630  19.033   7.893  0.00  0.00     0.177 HD
ENDBRANCH  29  30
ENDBRANCH  28  29
ENDBRANCH  27  28
ENDBRANCH  26  27
ENDBRANCH  25  26
ENDBRANCH  24  25
ENDBRANCH   1  24
TORSDOF 19
ENDMDL
