MODEL 1
REMARK VINA RESULT:      -6.8      0.000      0.000
REMARK  4 active torsions:
REMARK  status: ('A' for Active; 'I' for Inactive)
REMARK    1  A    between atoms: C_2  and  C_16 
REMARK    2  A    between atoms: C_5  and  C_7 
REMARK    3  A    between atoms: N_8  and  C_10 
REMARK    4  A    between atoms: N_17  and  C_19 
ROOT
HETATM    1  C   UNK N   1      26.990  19.932   5.386  0.00  0.00     0.013 A 
HETATM    2  C   UNK N   1      27.430  18.609   5.230  0.00  0.00    -0.021 A 
HETATM    3  C   UNK N   1      26.711  17.731   4.414  0.00  0.00     0.013 A 
HETATM    4  C   UNK N   1      25.545  18.164   3.780  0.00  0.00     0.013 A 
HETATM    5  C   UNK N   1      25.088  19.478   3.962  0.00  0.00    -0.021 A 
HETATM    6  C   UNK N   1      25.821  20.363   4.756  0.00  0.00     0.013 A 
ENDROOT
BRANCH   2   7
HETATM    7  C   UNK N   1      28.559  18.099   6.015  0.00  0.00     0.095 C 
HETATM    8  N   UNK N   1      28.466  17.982   7.290  0.00  0.00    -0.383 N 
ATOM      9  HN  UNK N   1      27.660  18.380   7.771  1.00  0.00     0.159 HD
BRANCH   8  10
HETATM   10  C   UNK N   1      29.477  17.299   8.057  0.00  0.00     0.202 C 
HETATM   11  C   UNK N   1      29.994  18.185   9.080  0.00  0.00     0.266 C 
HETATM   12  O   UNK N   1      29.322  18.703   9.956  0.00  0.00    -0.269 OA
HETATM   13  N   UNK N   1      31.297  18.383   8.965  0.00  0.00    -0.233 N 
HETATM   14  O   UNK N   1      31.870  17.723   7.947  0.00  0.00    -0.275 OA
HETATM   15  H   UNK N   1      31.804  18.966   9.576  0.00  0.00     0.197 HD
HETATM   16  C   UNK N   1      30.780  17.109   7.259  0.00  0.00     0.236 C 
ENDBRANCH   8  10
ENDBRANCH   2   7
BRANCH   5  17
HETATM   17  C   UNK N   1      23.781  19.893   3.440  0.00  0.00     0.095 C 
HETATM   18  N   UNK N   1      22.735  19.184   3.663  0.00  0.00    -0.383 N 
ATOM     19  HN  UNK N   1      22.838  18.258   4.077  1.00  0.00     0.159 HD
BRANCH  18  20
HETATM   20  C   UNK N   1      21.416  19.668   3.338  0.00  0.00     0.202 C 
HETATM   21  C   UNK N   1      20.765  18.740   2.437  0.00  0.00     0.266 C 
HETATM   22  O   UNK N   1      20.549  17.565   2.683  0.00  0.00    -0.269 OA
HETATM   23  N   UNK N   1      20.422  19.308   1.291  0.00  0.00    -0.233 N 
HETATM   24  O   UNK N   1      20.732  20.610   1.203  0.00  0.00    -0.275 OA
HETATM   25  H   UNK N   1      19.977  18.815   0.564  0.00  0.00     0.197 HD
HETATM   26  C   UNK N   1      21.460  20.887   2.399  0.00  0.00     0.236 C 
ENDBRANCH  18  20
ENDBRANCH   5  17
TORSDOF 4
ENDMDL
MODEL 2
REMARK VINA RESULT:      -6.8      0.100      9.245
REMARK  4 active torsions:
REMARK  status: ('A' for Active; 'I' for Inactive)
REMARK    1  A    between atoms: C_2  and  C_16 
REMARK    2  A    between atoms: C_5  and  C_7 
REMARK    3  A    between atoms: N_8  and  C_10 
REMARK    4  A    between atoms: N_17  and  C_19 
ROOT
HETATM    1  C   UNK N   1      25.590  18.144   3.754  0.00  0.00     0.013 A 
HETATM    2  C   UNK N   1      25.139  19.457   3.964  0.00  0.00    -0.021 A 
HETATM    3  C   UNK N   1      25.886  20.326   4.762  0.00  0.00     0.013 A 
HETATM    4  C   UNK N   1      27.062  19.882   5.370  0.00  0.00     0.013 A 
HETATM    5  C   UNK N   1      27.496  18.560   5.185  0.00  0.00    -0.021 A 
HETATM    6  C   UNK N   1      26.763  17.698   4.365  0.00  0.00     0.013 A 
ENDROOT
BRANCH   2   7
HETATM    7  C   UNK N   1      23.828  19.884   3.465  0.00  0.00     0.095 C 
HETATM    8  N   UNK N   1      22.788  19.156   3.656  0.00  0.00    -0.383 N 
ATOM      9  HN  UNK N   1      22.900  18.213   4.026  1.00  0.00     0.159 HD
BRANCH   8  10
HETATM   10  C   UNK N   1      21.465  19.644   3.358  0.00  0.00     0.202 C 
HETATM   11  C   UNK N   1      20.792  18.717   2.471  0.00  0.00     0.266 C 
HETATM   12  O   UNK N   1      20.576  17.543   2.725  0.00  0.00    -0.269 OA
HETATM   13  N   UNK N   1      20.430  19.282   1.332  0.00  0.00    -0.233 N 
HETATM   14  O   UNK N   1      20.743  20.583   1.234  0.00  0.00    -0.275 OA
HETATM   15  H   UNK N   1      19.968  18.789   0.615  0.00  0.00     0.197 HD
HETATM   16  C   UNK N   1      21.494  20.861   2.416  0.00  0.00     0.236 C 
ENDBRANCH   8  10
ENDBRANCH   2   7
BRANCH   5  17
HETATM   17  C   UNK N   1      28.633  18.034   5.949  0.00  0.00     0.095 C 
HETATM   18  N   UNK N   1      28.586  17.974   7.230  0.00  0.00    -0.383 N 
ATOM     19  HN  UNK N   1      27.817  18.427   7.723  1.00  0.00     0.159 HD
BRANCH  18  20
HETATM   20  C   UNK N   1      29.598  17.280   7.986  0.00  0.00     0.202 C 
HETATM   21  C   UNK N   1      30.124  18.156   9.014  0.00  0.00     0.266 C 
HETATM   22  O   UNK N   1      29.459  18.673   9.896  0.00  0.00    -0.269 OA
HETATM   23  N   UNK N   1      31.429  18.344   8.894  0.00  0.00    -0.233 N 
HETATM   24  O   UNK N   1      31.993  17.687   7.869  0.00  0.00    -0.275 OA
HETATM   25  H   UNK N   1      31.943  18.919   9.506  0.00  0.00     0.197 HD
HETATM   26  C   UNK N   1      30.895  17.087   7.181  0.00  0.00     0.236 C 
ENDBRANCH  18  20
ENDBRANCH   5  17
TORSDOF 4
ENDMDL
MODEL 3
REMARK VINA RESULT:      -6.7     10.454     16.642
REMARK  4 active torsions:
REMARK  status: ('A' for Active; 'I' for Inactive)
REMARK    1  A    between atoms: C_2  and  C_16 
REMARK    2  A    between atoms: C_5  and  C_7 
REMARK    3  A    between atoms: N_8  and  C_10 
REMARK    4  A    between atoms: N_17  and  C_19 
ROOT
HETATM    1  C   UNK N   1      36.928  12.082  12.756  0.00  0.00     0.013 A 
HETATM    2  C   UNK N   1      36.428  13.381  12.578  0.00  0.00    -0.021 A 
HETATM    3  C   UNK N   1      35.914  14.082  13.671  0.00  0.00     0.013 A 
HETATM    4  C   UNK N   1      35.872  13.479  14.930  0.00  0.00     0.013 A 
HETATM    5  C   UNK N   1      36.343  12.168  15.102  0.00  0.00    -0.021 A 
HETATM    6  C   UNK N   1      36.882  11.478  14.014  0.00  0.00     0.013 A 
ENDROOT
BRANCH   2   7
HETATM    7  C   UNK N   1      36.318  13.961  11.235  0.00  0.00     0.095 C 
HETATM    8  N   UNK N   1      35.256  14.588  10.880  0.00  0.00    -0.383 N 
ATOM      9  HN  UNK N   1      34.433  14.556  11.481  1.00  0.00     0.159 HD
BRANCH   8  10
HETATM   10  C   UNK N   1      35.202  15.337   9.650  0.00  0.00     0.202 C 
HETATM   11  C   UNK N   1      35.065  16.749   9.945  0.00  0.00     0.266 C 
HETATM   12  O   UNK N   1      35.858  17.402  10.603  0.00  0.00    -0.269 OA
HETATM   13  N   UNK N   1      33.968  17.270   9.421  0.00  0.00    -0.233 N 
HETATM   14  O   UNK N   1      33.221  16.401   8.722  0.00  0.00    -0.275 OA
HETATM   15  H   UNK N   1      33.720  18.216   9.534  0.00  0.00     0.197 HD
HETATM   16  C   UNK N   1      33.866  15.141   8.910  0.00  0.00     0.236 C 
ENDBRANCH   8  10
ENDBRANCH   2   7
BRANCH   5  17
HETATM   17  C   UNK N   1      36.151  11.467  16.377  0.00  0.00     0.095 C 
HETATM   18  N   UNK N   1      35.594  12.060  17.369  0.00  0.00    -0.383 N 
ATOM     19  HN  UNK N   1      35.418  13.063  17.317  1.00  0.00     0.159 HD
BRANCH  18  20
HETATM   20  C   UNK N   1      35.214  11.337  18.557  0.00  0.00     0.202 C 
HETATM   21  C   UNK N   1      35.417  12.174  19.722  0.00  0.00     0.266 C 
HETATM   22  O   UNK N   1      34.885  13.257  19.904  0.00  0.00    -0.269 OA
HETATM   23  N   UNK N   1      36.259  11.633  20.589  0.00  0.00    -0.233 N 
HETATM   24  O   UNK N   1      36.737  10.434  20.224  0.00  0.00    -0.275 OA
HETATM   25  H   UNK N   1      36.514  12.075  21.431  0.00  0.00     0.197 HD
HETATM   26  C   UNK N   1      36.220  10.227  18.910  0.00  0.00     0.236 C 
ENDBRANCH  18  20
ENDBRANCH   5  17
TORSDOF 4
ENDMDL
MODEL 4
REMARK VINA RESULT:      -6.5      2.402      9.285
REMARK  4 active torsions:
REMARK  status: ('A' for Active; 'I' for Inactive)
REMARK    1  A    between atoms: C_2  and  C_16 
REMARK    2  A    between atoms: C_5  and  C_7 
REMARK    3  A    between atoms: N_8  and  C_10 
REMARK    4  A    between atoms: N_17  and  C_19 
ROOT
HETATM    1  C   UNK N   1      25.373  18.074   3.932  0.00  0.00     0.013 A 
HETATM    2  C   UNK N   1      25.142  19.405   3.553  0.00  0.00    -0.021 A 
HETATM    3  C   UNK N   1      26.204  20.312   3.525  0.00  0.00     0.013 A 
HETATM    4  C   UNK N   1      27.484  19.900   3.901  0.00  0.00     0.013 A 
HETATM    5  C   UNK N   1      27.708  18.576   4.310  0.00  0.00    -0.021 A 
HETATM    6  C   UNK N   1      26.652  17.663   4.312  0.00  0.00     0.013 A 
ENDROOT
BRANCH   2   7
HETATM    7  C   UNK N   1      23.778  19.887   3.313  0.00  0.00     0.095 C 
HETATM    8  N   UNK N   1      22.769  19.123   3.527  0.00  0.00    -0.383 N 
ATOM      9  HN  UNK N   1      22.923  18.135   3.724  1.00  0.00     0.159 HD
BRANCH   8  10
HETATM   10  C   UNK N   1      21.421  19.633   3.495  0.00  0.00     0.202 C 
HETATM   11  C   UNK N   1      20.588  18.758   2.695  0.00  0.00     0.266 C 
HETATM   12  O   UNK N   1      20.404  17.573   2.922  0.00  0.00    -0.269 OA
HETATM   13  N   UNK N   1      20.037  19.384   1.669  0.00  0.00    -0.233 N 
HETATM   14  O   UNK N   1      20.347  20.687   1.584  0.00  0.00    -0.275 OA
HETATM   15  H   UNK N   1      19.449  18.932   1.021  0.00  0.00     0.197 HD
HETATM   16  C   UNK N   1      21.300  20.898   2.627  0.00  0.00     0.236 C 
ENDBRANCH   8  10
ENDBRANCH   2   7
BRANCH   5  17
HETATM   17  C   UNK N   1      29.007  18.176   4.865  0.00  0.00     0.095 C 
HETATM   18  N   UNK N   1      29.911  17.671   4.108  0.00  0.00    -0.383 N 
ATOM     19  HN  UNK N   1      29.674  17.412   3.151  1.00  0.00     0.159 HD
BRANCH  18  20
HETATM   20  C   UNK N   1      31.256  17.459   4.583  0.00  0.00     0.202 C 
HETATM   21  C   UNK N   1      32.004  16.696   3.604  0.00  0.00     0.266 C 
HETATM   22  O   UNK N   1      32.195  17.042   2.450  0.00  0.00    -0.269 OA
HETATM   23  N   UNK N   1      32.467  15.560   4.100  0.00  0.00    -0.233 N 
HETATM   24  O   UNK N   1      32.165  15.353   5.391  0.00  0.00    -0.275 OA
HETATM   25  H   UNK N   1      32.990  14.919   3.565  0.00  0.00     0.197 HD
HETATM   26  C   UNK N   1      31.311  16.443   5.737  0.00  0.00     0.236 C 
ENDBRANCH  18  20
ENDBRANCH   5  17
TORSDOF 4
ENDMDL
MODEL 5
REMARK VINA RESULT:      -6.5     13.700     18.637
REMARK  4 active torsions:
REMARK  status: ('A' for Active; 'I' for Inactive)
REMARK    1  A    between atoms: C_2  and  C_16 
REMARK    2  A    between atoms: C_5  and  C_7 
REMARK    3  A    between atoms: N_8  and  C_10 
REMARK    4  A    between atoms: N_17  and  C_19 
ROOT
HETATM    1  C   UNK N   1      36.012  11.271  16.401  0.00  0.00     0.013 A 
HETATM    2  C   UNK N   1      35.688  12.615  16.158  0.00  0.00    -0.021 A 
HETATM    3  C   UNK N   1      35.252  13.423  17.210  0.00  0.00     0.013 A 
HETATM    4  C   UNK N   1      35.113  12.887  18.492  0.00  0.00     0.013 A 
HETATM    5  C   UNK N   1      35.407  11.535  18.728  0.00  0.00    -0.021 A 
HETATM    6  C   UNK N   1      35.869  10.734  17.681  0.00  0.00     0.013 A 
ENDROOT
BRANCH   2   7
HETATM    7  C   UNK N   1      35.675  13.144  14.790  0.00  0.00     0.095 C 
HETATM    8  N   UNK N   1      35.964  12.387  13.795  0.00  0.00    -0.383 N 
ATOM      9  HN  UNK N   1      36.343  11.457  13.968  1.00  0.00     0.159 HD
BRANCH   8  10
HETATM   10  C   UNK N   1      35.762  12.824  12.436  0.00  0.00     0.202 C 
HETATM   11  C   UNK N   1      37.045  13.062  11.806  0.00  0.00     0.266 C 
HETATM   12  O   UNK N   1      37.921  12.223  11.673  0.00  0.00    -0.269 OA
HETATM   13  N   UNK N   1      37.176  14.308  11.381  0.00  0.00    -0.233 N 
HETATM   14  O   UNK N   1      36.105  15.085  11.607  0.00  0.00    -0.275 OA
HETATM   15  H   UNK N   1      37.991  14.638  10.937  0.00  0.00     0.197 HD
HETATM   16  C   UNK N   1      35.218  14.262  12.364  0.00  0.00     0.236 C 
ENDBRANCH   8  10
ENDBRANCH   2   7
BRANCH   5  17
HETATM   17  C   UNK N   1      35.106  10.922  20.026  0.00  0.00     0.095 C 
HETATM   18  N   UNK N   1      34.320   9.910  20.103  0.00  0.00    -0.383 N 
ATOM     19  HN  UNK N   1      33.790   9.626  19.279  1.00  0.00     0.159 HD
BRANCH  18  20
HETATM   20  C   UNK N   1      34.169   9.168  21.329  0.00  0.00     0.202 C 
HETATM   21  C   UNK N   1      33.464   9.976  22.304  0.00  0.00     0.266 C 
HETATM   22  O   UNK N   1      32.345  10.438  22.148  0.00  0.00    -0.269 OA
HETATM   23  N   UNK N   1      34.173  10.170  23.404  0.00  0.00    -0.233 N 
HETATM   24  O   UNK N   1      35.377   9.578  23.400  0.00  0.00    -0.275 OA
HETATM   25  H   UNK N   1      33.845  10.705  24.163  0.00  0.00     0.197 HD
HETATM   26  C   UNK N   1      35.499   9.025  22.090  0.00  0.00     0.236 C 
ENDBRANCH  18  20
ENDBRANCH   5  17
TORSDOF 4
ENDMDL
MODEL 6
REMARK VINA RESULT:      -6.4      2.392      3.067
REMARK  4 active torsions:
REMARK  status: ('A' for Active; 'I' for Inactive)
REMARK    1  A    between atoms: C_2  and  C_16 
REMARK    2  A    between atoms: C_5  and  C_7 
REMARK    3  A    between atoms: N_8  and  C_10 
REMARK    4  A    between atoms: N_17  and  C_19 
ROOT
HETATM    1  C   UNK N   1      26.435  17.505   4.828  0.00  0.00     0.013 A 
HETATM    2  C   UNK N   1      27.612  18.246   4.643  0.00  0.00    -0.021 A 
HETATM    3  C   UNK N   1      27.541  19.543   4.128  0.00  0.00     0.013 A 
HETATM    4  C   UNK N   1      26.305  20.087   3.773  0.00  0.00     0.013 A 
HETATM    5  C   UNK N   1      25.131  19.334   3.929  0.00  0.00    -0.021 A 
HETATM    6  C   UNK N   1      25.200  18.047   4.469  0.00  0.00     0.013 A 
ENDROOT
BRANCH   2   7
HETATM    7  C   UNK N   1      28.925  17.629   4.858  0.00  0.00     0.095 C 
HETATM    8  N   UNK N   1      29.946  18.012   4.181  0.00  0.00    -0.383 N 
ATOM      9  HN  UNK N   1      29.812  18.644   3.392  1.00  0.00     0.159 HD
BRANCH   8  10
HETATM   10  C   UNK N   1      31.276  17.569   4.513  0.00  0.00     0.202 C 
HETATM   11  C   UNK N   1      31.777  16.704   3.464  0.00  0.00     0.266 C 
HETATM   12  O   UNK N   1      31.904  17.029   2.295  0.00  0.00    -0.269 OA
HETATM   13  N   UNK N   1      32.087  15.498   3.910  0.00  0.00    -0.233 N 
HETATM   14  O   UNK N   1      31.889  15.326   5.226  0.00  0.00    -0.275 OA
HETATM   15  H   UNK N   1      32.434  14.786   3.324  0.00  0.00     0.197 HD
HETATM   16  C   UNK N   1      31.277  16.541   5.658  0.00  0.00     0.236 C 
ENDBRANCH   8  10
ENDBRANCH   2   7
BRANCH   5  17
HETATM   17  C   UNK N   1      23.852  19.828   3.407  0.00  0.00     0.095 C 
HETATM   18  N   UNK N   1      22.769  19.169   3.604  0.00  0.00    -0.383 N 
ATOM     19  HN  UNK N   1      22.820  18.229   3.996  1.00  0.00     0.159 HD
BRANCH  18  20
HETATM   20  C   UNK N   1      21.480  19.729   3.280  0.00  0.00     0.202 C 
HETATM   21  C   UNK N   1      20.826  18.902   2.286  0.00  0.00     0.266 C 
HETATM   22  O   UNK N   1      20.560  17.720   2.429  0.00  0.00    -0.269 OA
HETATM   23  N   UNK N   1      20.542  19.574   1.182  0.00  0.00    -0.233 N 
HETATM   24  O   UNK N   1      20.901  20.867   1.211  0.00  0.00    -0.275 OA
HETATM   25  H   UNK N   1      20.104  19.160   0.403  0.00  0.00     0.197 HD
HETATM   26  C   UNK N   1      21.599  21.017   2.447  0.00  0.00     0.236 C 
ENDBRANCH  18  20
ENDBRANCH   5  17
TORSDOF 4
ENDMDL
MODEL 7
REMARK VINA RESULT:      -6.3     10.762     15.053
REMARK  4 active torsions:
REMARK  status: ('A' for Active; 'I' for Inactive)
REMARK    1  A    between atoms: C_2  and  C_16 
REMARK    2  A    between atoms: C_5  and  C_7 
REMARK    3  A    between atoms: N_8  and  C_10 
REMARK    4  A    between atoms: N_17  and  C_19 
ROOT
HETATM    1  C   UNK N   1      36.556  13.006  14.944  0.00  0.00     0.013 A 
HETATM    2  C   UNK N   1      35.855  11.847  15.313  0.00  0.00    -0.021 A 
HETATM    3  C   UNK N   1      34.899  11.310  14.447  0.00  0.00     0.013 A 
HETATM    4  C   UNK N   1      34.624  11.942  13.232  0.00  0.00     0.013 A 
HETATM    5  C   UNK N   1      35.303  13.118  12.878  0.00  0.00    -0.021 A 
HETATM    6  C   UNK N   1      36.277  13.640  13.732  0.00  0.00     0.013 A 
ENDROOT
BRANCH   2   7
HETATM    7  C   UNK N   1      36.019  11.269  16.651  0.00  0.00     0.095 C 
HETATM    8  N   UNK N   1      35.156  11.503  17.572  0.00  0.00    -0.383 N 
ATOM      9  HN  UNK N   1      34.437  12.207  17.416  1.00  0.00     0.159 HD
BRANCH   8  10
HETATM   10  C   UNK N   1      35.184  10.789  18.824  0.00  0.00     0.202 C 
HETATM   11  C   UNK N   1      35.409  11.721  19.911  0.00  0.00     0.266 C 
HETATM   12  O   UNK N   1      34.687  12.668  20.177  0.00  0.00    -0.269 OA
HETATM   13  N   UNK N   1      36.503  11.438  20.600  0.00  0.00    -0.233 N 
HETATM   14  O   UNK N   1      37.165  10.355  20.167  0.00  0.00    -0.275 OA
HETATM   15  H   UNK N   1      36.805  11.978  21.366  0.00  0.00     0.197 HD
HETATM   16  C   UNK N   1      36.467   9.954  18.988  0.00  0.00     0.236 C 
ENDBRANCH   8  10
ENDBRANCH   2   7
BRANCH   5  17
HETATM   17  C   UNK N   1      34.906  13.880  11.689  0.00  0.00     0.095 C 
HETATM   18  N   UNK N   1      35.718  14.713  11.147  0.00  0.00    -0.383 N 
ATOM     19  HN  UNK N   1      36.583  14.953  11.630  1.00  0.00     0.159 HD
BRANCH  18  20
HETATM   20  C   UNK N   1      35.431  15.319   9.871  0.00  0.00     0.202 C 
HETATM   21  C   UNK N   1      35.145  16.728  10.054  0.00  0.00     0.266 C 
HETATM   22  O   UNK N   1      35.912  17.536  10.551  0.00  0.00    -0.269 OA
HETATM   23  N   UNK N   1      33.938  17.057   9.620  0.00  0.00    -0.233 N 
HETATM   24  O   UNK N   1      33.240  16.038   9.096  0.00  0.00    -0.275 OA
HETATM   25  H   UNK N   1      33.582  17.973   9.677  0.00  0.00     0.197 HD
HETATM   26  C   UNK N   1      34.060  14.890   9.319  0.00  0.00     0.236 C 
ENDBRANCH  18  20
ENDBRANCH   5  17
TORSDOF 4
ENDMDL
MODEL 8
REMARK VINA RESULT:      -6.3      3.432      5.126
REMARK  4 active torsions:
REMARK  status: ('A' for Active; 'I' for Inactive)
REMARK    1  A    between atoms: C_2  and  C_16 
REMARK    2  A    between atoms: C_5  and  C_7 
REMARK    3  A    between atoms: N_8  and  C_10 
REMARK    4  A    between atoms: N_17  and  C_19 
ROOT
HETATM    1  C   UNK N   1      29.927  17.951   8.522  0.00  0.00     0.013 A 
HETATM    2  C   UNK N   1      30.970  17.279   7.868  0.00  0.00    -0.021 A 
HETATM    3  C   UNK N   1      30.710  16.576   6.689  0.00  0.00     0.013 A 
HETATM    4  C   UNK N   1      29.411  16.520   6.181  0.00  0.00     0.013 A 
HETATM    5  C   UNK N   1      28.362  17.166   6.853  0.00  0.00    -0.021 A 
HETATM    6  C   UNK N   1      28.627  17.892   8.017  0.00  0.00     0.013 A 
ENDROOT
BRANCH   2   7
HETATM    7  C   UNK N   1      32.302  17.195   8.476  0.00  0.00     0.095 C 
HETATM    8  N   UNK N   1      32.870  16.057   8.650  0.00  0.00    -0.383 N 
ATOM      9  HN  UNK N   1      32.334  15.203   8.499  1.00  0.00     0.159 HD
BRANCH   8  10
HETATM   10  C   UNK N   1      34.250  15.961   9.054  0.00  0.00     0.202 C 
HETATM   11  C   UNK N   1      34.326  15.807  10.493  0.00  0.00     0.266 C 
HETATM   12  O   UNK N   1      33.815  14.896  11.124  0.00  0.00    -0.269 OA
HETATM   13  N   UNK N   1      35.019  16.776  11.068  0.00  0.00    -0.233 N 
HETATM   14  O   UNK N   1      35.513  17.686  10.214  0.00  0.00    -0.275 OA
HETATM   15  H   UNK N   1      35.160  16.826  12.042  0.00  0.00     0.197 HD
HETATM   16  C   UNK N   1      34.983  17.310   8.943  0.00  0.00     0.236 C 
ENDBRANCH   8  10
ENDBRANCH   2   7
BRANCH   5  17
HETATM   17  C   UNK N   1      26.971  16.976   6.424  0.00  0.00     0.095 C 
HETATM   18  N   UNK N   1      26.656  17.052   5.183  0.00  0.00    -0.383 N 
ATOM     19  HN  UNK N   1      27.346  17.389   4.512  1.00  0.00     0.159 HD
BRANCH  18  20
HETATM   20  C   UNK N   1      25.346  16.673   4.716  0.00  0.00     0.202 C 
HETATM   21  C   UNK N   1      24.438  17.794   4.848  0.00  0.00     0.266 C 
HETATM   22  O   UNK N   1      24.591  18.881   4.316  0.00  0.00    -0.269 OA
HETATM   23  N   UNK N   1      23.403  17.515   5.625  0.00  0.00    -0.233 N 
HETATM   24  O   UNK N   1      23.399  16.266   6.116  0.00  0.00    -0.275 OA
HETATM   25  H   UNK N   1      22.696  18.169   5.827  0.00  0.00     0.197 HD
HETATM   26  C   UNK N   1      24.641  15.708   5.686  0.00  0.00     0.236 C 
ENDBRANCH  18  20
ENDBRANCH   5  17
TORSDOF 4
ENDMDL
MODEL 9
REMARK VINA RESULT:      -6.2      3.904     11.048
REMARK  4 active torsions:
REMARK  status: ('A' for Active; 'I' for Inactive)
REMARK    1  A    between atoms: C_2  and  C_16 
REMARK    2  A    between atoms: C_5  and  C_7 
REMARK    3  A    between atoms: N_8  and  C_10 
REMARK    4  A    between atoms: N_17  and  C_19 
ROOT
HETATM    1  C   UNK N   1      30.836  15.931   6.074  0.00  0.00     0.013 A 
HETATM    2  C   UNK N   1      30.048  16.964   6.602  0.00  0.00    -0.021 A 
HETATM    3  C   UNK N   1      30.396  17.547   7.823  0.00  0.00     0.013 A 
HETATM    4  C   UNK N   1      31.510  17.083   8.526  0.00  0.00     0.013 A 
HETATM    5  C   UNK N   1      32.280  16.028   8.013  0.00  0.00    -0.021 A 
HETATM    6  C   UNK N   1      31.947  15.463   6.779  0.00  0.00     0.013 A 
ENDROOT
BRANCH   2   7
HETATM    7  C   UNK N   1      28.789  17.349   5.955  0.00  0.00     0.095 C 
HETATM    8  N   UNK N   1      28.701  18.453   5.305  0.00  0.00    -0.383 N 
ATOM      9  HN  UNK N   1      29.461  19.129   5.364  1.00  0.00     0.159 HD
BRANCH   8  10
HETATM   10  C   UNK N   1      27.548  18.756   4.495  0.00  0.00     0.202 C 
HETATM   11  C   UNK N   1      26.743  19.767   5.152  0.00  0.00     0.266 C 
HETATM   12  O   UNK N   1      27.137  20.880   5.457  0.00  0.00    -0.269 OA
HETATM   13  N   UNK N   1      25.512  19.350   5.397  0.00  0.00    -0.233 N 
HETATM   14  O   UNK N   1      25.257  18.099   4.983  0.00  0.00    -0.275 OA
HETATM   15  H   UNK N   1      24.838  19.911   5.846  0.00  0.00     0.197 HD
HETATM   16  C   UNK N   1      26.514  17.616   4.507  0.00  0.00     0.236 C 
ENDBRANCH   8  10
ENDBRANCH   2   7
BRANCH   5  17
HETATM   17  C   UNK N   1      33.347  15.422   8.817  0.00  0.00     0.095 C 
HETATM   18  N   UNK N   1      33.647  15.901   9.969  0.00  0.00    -0.383 N 
ATOM     19  HN  UNK N   1      33.243  16.791  10.261  1.00  0.00     0.159 HD
BRANCH  18  20
HETATM   20  C   UNK N   1      34.544  15.208  10.860  0.00  0.00     0.202 C 
HETATM   21  C   UNK N   1      35.907  15.623  10.598  0.00  0.00     0.266 C 
HETATM   22  O   UNK N   1      36.313  16.771  10.674  0.00  0.00    -0.269 OA
HETATM   23  N   UNK N   1      36.685  14.608  10.259  0.00  0.00    -0.233 N 
HETATM   24  O   UNK N   1      36.067  13.417  10.238  0.00  0.00    -0.275 OA
HETATM   25  H   UNK N   1      37.639  14.717  10.039  0.00  0.00     0.197 HD
HETATM   26  C   UNK N   1      34.695  13.722  10.492  0.00  0.00     0.236 C 
ENDBRANCH  18  20
ENDBRANCH   5  17
TORSDOF 4
ENDMDL
