MODEL 1
REMARK VINA RESULT:      -9.6      0.000      0.000
REMARK  14 active torsions:
REMARK  status: ('A' for Active; 'I' for Inactive)
REMARK    1  A    between atoms: C_3  and  C_8 
REMARK    2  A    between atoms: C_15  and  N_10 
REMARK    3  A    between atoms: C_16  and  O_48 
REMARK    4  A    between atoms: C_17  and  C_46 
REMARK    5  A    between atoms: C_19  and  S_22 
REMARK    6  A    between atoms: C_20  and  O_21 
REMARK    7  A    between atoms: C_23  and  S_22 
REMARK    8  A    between atoms: C_24  and  O_45 
REMARK    9  A    between atoms: C_25  and  N_32 
REMARK   10  A    between atoms: C_26  and  O_31 
REMARK   11  A    between atoms: C_27  and  C_29 
REMARK   12  A    between atoms: C_29  and  O_30 
REMARK   13  A    between atoms: C_34  and  C_38 
REMARK   14  A    between atoms: C_46  and  O_47 
ROOT
HETATM    1  C   UNK N   1      21.284  16.319   5.326  0.00  0.00     0.172 C 
HETATM    2  C   UNK N   1      20.254  16.178   4.193  0.00  0.00     0.176 C 
HETATM    3  C   UNK N   1      20.588  17.220   3.089  0.00  0.00     0.177 C 
HETATM    4  O   UNK N   1      21.983  17.396   2.855  0.00  0.00    -0.363 OA
HETATM    5  C   UNK N   1      22.744  17.674   4.037  0.00  0.00     0.216 C 
HETATM    6  C   UNK N   1      21.872  17.714   5.314  0.00  0.00     0.184 C 
ENDROOT
BRANCH   5   7
HETATM    7  S   UNK N   1      24.029  16.339   4.097  0.00  0.00    -0.100 SA
BRANCH   7   8
HETATM    8  C   UNK N   1      25.530  17.294   3.695  0.00  0.00     0.216 C 
HETATM    9  C   UNK N   1      26.585  16.872   4.690  0.00  0.00     0.184 C 
HETATM   10  C   UNK N   1      27.824  17.791   4.744  0.00  0.00     0.169 C 
HETATM   11  C   UNK N   1      27.433  19.266   4.576  0.00  0.00     0.176 C 
HETATM   12  C   UNK N   1      26.421  19.344   3.419  0.00  0.00     0.177 C 
HETATM   13  O   UNK N   1      25.254  18.667   3.814  0.00  0.00    -0.363 OA
BRANCH   9  14
HETATM   14  O   UNK N   1      26.980  15.555   4.443  0.00  0.00    -0.390 OA
HETATM   15  H   UNK N   1      27.143  14.931   3.717  0.00  0.00     0.210 HD
ENDBRANCH   9  14
BRANCH  10  16
HETATM   16  N   UNK N   1      28.522  17.531   6.011  0.00  0.00    -0.275 N 
HETATM   17  C   UNK N   1      29.841  17.309   6.110  0.00  0.00     0.140 A 
HETATM   18  C   UNK N   1      30.123  17.207   7.436  0.00  0.00     0.073 A 
HETATM   19  N   UNK N   1      28.972  17.358   8.129  0.00  0.00    -0.282 N 
HETATM   20  N   UNK N   1      28.009  17.557   7.233  0.00  0.00    -0.020 NA
ATOM     21  HN  UNK N   1      28.863  17.326   9.143  1.00  0.00     0.184 HD
BRANCH  18  22
HETATM   22  C   UNK N   1      31.488  17.062   7.959  0.00  0.00    -0.004 A 
HETATM   23  C   UNK N   1      31.871  15.822   8.500  0.00  0.00     0.014 A 
HETATM   24  C   UNK N   1      33.170  15.614   8.958  0.00  0.00     0.004 A 
HETATM   25  C   UNK N   1      34.103  16.646   8.878  0.00  0.00     0.042 A 
HETATM   26  C   UNK N   1      33.733  17.885   8.342  0.00  0.00     0.117 A 
HETATM   27  C   UNK N   1      32.427  18.095   7.880  0.00  0.00     0.056 A 
HETATM   28  F   UNK N   1      34.648  18.879   8.265  0.00  0.00    -0.206 F 
ENDBRANCH  18  22
ENDBRANCH  10  16
BRANCH  11  29
HETATM   29  O   UNK N   1      28.578  20.012   4.285  0.00  0.00    -0.391 OA
HETATM   30  H   UNK N   1      29.469  19.821   4.617  0.00  0.00     0.210 HD
ENDBRANCH  11  29
BRANCH  12  31
HETATM   31  C   UNK N   1      26.068  20.768   3.014  0.00  0.00     0.198 C 
BRANCH  31  32
HETATM   32  O   UNK N   1      25.104  20.750   2.006  0.00  0.00    -0.398 OA
HETATM   33  H   UNK N   1      24.838  21.387   1.324  0.00  0.00     0.209 HD
ENDBRANCH  31  32
ENDBRANCH  12  31
ENDBRANCH   7   8
ENDBRANCH   5   7
BRANCH   6  34
HETATM   34  O   UNK N   1      22.592  18.055   6.460  0.00  0.00    -0.390 OA
HETATM   35  H   UNK N   1      23.517  17.833   6.653  0.00  0.00     0.210 HD
ENDBRANCH   6  34
BRANCH   3  36
HETATM   36  C   UNK N   1      19.864  16.906   1.792  0.00  0.00     0.198 C 
BRANCH  36  37
HETATM   37  O   UNK N   1      18.838  17.830   1.589  0.00  0.00    -0.398 OA
HETATM   38  H   UNK N   1      18.930  18.792   1.672  0.00  0.00     0.209 HD
ENDBRANCH  36  37
ENDBRANCH   3  36
BRANCH   1  39
HETATM   39  N   UNK N   1      21.019  15.740   6.638  0.00  0.00    -0.277 N 
HETATM   40  C   UNK N   1      21.659  14.741   7.272  0.00  0.00     0.144 A 
HETATM   41  C   UNK N   1      21.049  14.642   8.512  0.00  0.00     0.076 A 
HETATM   42  N   UNK N   1      20.083  15.573   8.589  0.00  0.00    -0.284 N 
HETATM   43  N   UNK N   1      20.089  16.228   7.444  0.00  0.00    -0.240 N 
ATOM     44  HN  UNK N   1      19.463  15.741   9.381  1.00  0.00     0.188 HD
ATOM     45  HN  UNK N   1      19.466  17.001   7.212  1.00  0.00     0.208 HD
BRANCH  41  46
HETATM   46  C   UNK N   1      21.362  13.708   9.596  0.00  0.00    -0.004 A 
HETATM   47  C   UNK N   1      22.687  13.352   9.876  0.00  0.00     0.014 A 
HETATM   48  C   UNK N   1      22.965  12.456  10.912  0.00  0.00     0.004 A 
HETATM   49  C   UNK N   1      21.921  11.913  11.669  0.00  0.00     0.042 A 
HETATM   50  C   UNK N   1      20.599  12.267  11.390  0.00  0.00     0.117 A 
HETATM   51  C   UNK N   1      20.321  13.162  10.357  0.00  0.00     0.056 A 
HETATM   52  F   UNK N   1      19.585  11.743  12.121  0.00  0.00    -0.206 F 
ENDBRANCH  41  46
ENDBRANCH   1  39
BRANCH   2  53
HETATM   53  O   UNK N   1      18.963  16.440   4.658  0.00  0.00    -0.391 OA
HETATM   54  H   UNK N   1      18.494  16.015   5.392  0.00  0.00     0.210 HD
ENDBRANCH   2  53
TORSDOF 14
ENDMDL
MODEL 2
REMARK VINA RESULT:      -9.5     10.924     13.388
REMARK  14 active torsions:
REMARK  status: ('A' for Active; 'I' for Inactive)
REMARK    1  A    between atoms: C_3  and  C_8 
REMARK    2  A    between atoms: C_15  and  N_10 
REMARK    3  A    between atoms: C_16  and  O_48 
REMARK    4  A    between atoms: C_17  and  C_46 
REMARK    5  A    between atoms: C_19  and  S_22 
REMARK    6  A    between atoms: C_20  and  O_21 
REMARK    7  A    between atoms: C_23  and  S_22 
REMARK    8  A    between atoms: C_24  and  O_45 
REMARK    9  A    between atoms: C_25  and  N_32 
REMARK   10  A    between atoms: C_26  and  O_31 
REMARK   11  A    between atoms: C_27  and  C_29 
REMARK   12  A    between atoms: C_29  and  O_30 
REMARK   13  A    between atoms: C_34  and  C_38 
REMARK   14  A    between atoms: C_46  and  O_47 
ROOT
HETATM    1  C   UNK N   1      34.982  15.237  10.138  0.00  0.00     0.172 C 
HETATM    2  C   UNK N   1      34.756  16.732   9.860  0.00  0.00     0.176 C 
HETATM    3  C   UNK N   1      34.724  16.949   8.321  0.00  0.00     0.177 C 
HETATM    4  O   UNK N   1      34.062  15.914   7.599  0.00  0.00    -0.363 OA
HETATM    5  C   UNK N   1      34.537  14.595   7.897  0.00  0.00     0.216 C 
HETATM    6  C   UNK N   1      35.668  14.592   8.952  0.00  0.00     0.184 C 
ENDROOT
BRANCH   5   7
HETATM    7  S   UNK N   1      33.035  13.669   8.465  0.00  0.00    -0.100 SA
BRANCH   7   8
HETATM    8  C   UNK N   1      33.384  12.010   7.793  0.00  0.00     0.216 C 
HETATM    9  C   UNK N   1      33.434  11.071   8.974  0.00  0.00     0.184 C 
HETATM   10  C   UNK N   1      34.042   9.686   8.671  0.00  0.00     0.169 C 
HETATM   11  C   UNK N   1      35.219   9.795   7.691  0.00  0.00     0.176 C 
HETATM   12  C   UNK N   1      34.790  10.751   6.563  0.00  0.00     0.177 C 
HETATM   13  O   UNK N   1      34.618  12.031   7.120  0.00  0.00    -0.363 OA
BRANCH   9  14
HETATM   14  O   UNK N   1      32.158  10.921   9.524  0.00  0.00    -0.390 OA
HETATM   15  H   UNK N   1      31.506  11.383  10.073  0.00  0.00     0.210 HD
ENDBRANCH   9  14
BRANCH  10  16
HETATM   16  N   UNK N   1      34.426   9.072   9.951  0.00  0.00    -0.275 N 
HETATM   17  C   UNK N   1      35.339   9.588  10.787  0.00  0.00     0.140 A 
HETATM   18  C   UNK N   1      35.348   8.798  11.892  0.00  0.00     0.073 A 
HETATM   19  N   UNK N   1      34.449   7.804  11.714  0.00  0.00    -0.282 N 
HETATM   20  N   UNK N   1      33.898   7.997  10.518  0.00  0.00    -0.020 NA
ATOM     21  HN  UNK N   1      34.235   7.052  12.369  1.00  0.00     0.184 HD
BRANCH  18  22
HETATM   22  C   UNK N   1      36.151   9.095  13.087  0.00  0.00    -0.004 A 
HETATM   23  C   UNK N   1      36.000   8.274  14.219  0.00  0.00     0.014 A 
HETATM   24  C   UNK N   1      36.777   8.478  15.356  0.00  0.00     0.004 A 
HETATM   25  C   UNK N   1      37.718   9.506  15.374  0.00  0.00     0.042 A 
HETATM   26  C   UNK N   1      37.877  10.330  14.254  0.00  0.00     0.117 A 
HETATM   27  C   UNK N   1      37.097  10.125  13.108  0.00  0.00     0.056 A 
HETATM   28  F   UNK N   1      38.796  11.322  14.280  0.00  0.00    -0.206 F 
ENDBRANCH  18  22
ENDBRANCH  10  16
BRANCH  11  29
HETATM   29  O   UNK N   1      35.508   8.526   7.181  0.00  0.00    -0.391 OA
HETATM   30  H   UNK N   1      35.198   8.182   6.329  0.00  0.00     0.210 HD
ENDBRANCH  11  29
BRANCH  12  31
HETATM   31  C   UNK N   1      35.788  10.827   5.417  0.00  0.00     0.198 C 
BRANCH  31  32
HETATM   32  O   UNK N   1      37.087  10.693   5.907  0.00  0.00    -0.398 OA
HETATM   33  H   UNK N   1      37.858  11.282   5.927  0.00  0.00     0.209 HD
ENDBRANCH  31  32
ENDBRANCH  12  31
ENDBRANCH   7   8
ENDBRANCH   5   7
BRANCH   6  34
HETATM   34  O   UNK N   1      36.187  13.320   9.197  0.00  0.00    -0.390 OA
HETATM   35  H   UNK N   1      37.106  13.034   9.076  0.00  0.00     0.210 HD
ENDBRANCH   6  34
BRANCH   3  36
HETATM   36  C   UNK N   1      34.145  18.306   7.964  0.00  0.00     0.198 C 
BRANCH  36  37
HETATM   37  O   UNK N   1      35.024  19.314   8.361  0.00  0.00    -0.398 OA
HETATM   38  H   UNK N   1      35.640  19.780   7.774  0.00  0.00     0.209 HD
ENDBRANCH  36  37
ENDBRANCH   3  36
BRANCH   1  39
HETATM   39  N   UNK N   1      35.416  14.790  11.457  0.00  0.00    -0.277 N 
HETATM   40  C   UNK N   1      34.771  14.014  12.347  0.00  0.00     0.144 A 
HETATM   41  C   UNK N   1      35.658  13.844  13.397  0.00  0.00     0.076 A 
HETATM   42  N   UNK N   1      36.793  14.503  13.109  0.00  0.00    -0.284 N 
HETATM   43  N   UNK N   1      36.622  15.063  11.926  0.00  0.00    -0.240 N 
ATOM     44  HN  UNK N   1      37.628  14.561  13.693  1.00  0.00     0.188 HD
ATOM     45  HN  UNK N   1      37.322  15.626  11.442  1.00  0.00     0.208 HD
BRANCH  41  46
HETATM   46  C   UNK N   1      35.455  13.083  14.632  0.00  0.00    -0.004 A 
HETATM   47  C   UNK N   1      36.084  13.467  15.823  0.00  0.00     0.014 A 
HETATM   48  C   UNK N   1      35.881  12.725  16.990  0.00  0.00     0.004 A 
HETATM   49  C   UNK N   1      35.051  11.599  16.970  0.00  0.00     0.042 A 
HETATM   50  C   UNK N   1      34.423  11.215  15.782  0.00  0.00     0.117 A 
HETATM   51  C   UNK N   1      34.624  11.956  14.617  0.00  0.00     0.056 A 
HETATM   52  F   UNK N   1      33.618  10.125  15.759  0.00  0.00    -0.206 F 
ENDBRANCH  41  46
ENDBRANCH   1  39
BRANCH   2  53
HETATM   53  O   UNK N   1      35.799  17.499  10.383  0.00  0.00    -0.391 OA
HETATM   54  H   UNK N   1      36.160  18.331  10.043  0.00  0.00     0.210 HD
ENDBRANCH   2  53
TORSDOF 14
ENDMDL
MODEL 3
REMARK VINA RESULT:      -9.5      2.528      3.541
REMARK  14 active torsions:
REMARK  status: ('A' for Active; 'I' for Inactive)
REMARK    1  A    between atoms: C_3  and  C_8 
REMARK    2  A    between atoms: C_15  and  N_10 
REMARK    3  A    between atoms: C_16  and  O_48 
REMARK    4  A    between atoms: C_17  and  C_46 
REMARK    5  A    between atoms: C_19  and  S_22 
REMARK    6  A    between atoms: C_20  and  O_21 
REMARK    7  A    between atoms: C_23  and  S_22 
REMARK    8  A    between atoms: C_24  and  O_45 
REMARK    9  A    between atoms: C_25  and  N_32 
REMARK   10  A    between atoms: C_26  and  O_31 
REMARK   11  A    between atoms: C_27  and  C_29 
REMARK   12  A    between atoms: C_29  and  O_30 
REMARK   13  A    between atoms: C_34  and  C_38 
REMARK   14  A    between atoms: C_46  and  O_47 
ROOT
HETATM    1  C   UNK N   1      20.963  14.746   5.197  0.00  0.00     0.172 C 
HETATM    2  C   UNK N   1      21.308  14.426   3.734  0.00  0.00     0.176 C 
HETATM    3  C   UNK N   1      20.418  15.305   2.812  0.00  0.00     0.177 C 
HETATM    4  O   UNK N   1      20.212  16.631   3.291  0.00  0.00    -0.363 OA
HETATM    5  C   UNK N   1      19.736  16.699   4.641  0.00  0.00     0.216 C 
HETATM    6  C   UNK N   1      19.558  15.303   5.283  0.00  0.00     0.184 C 
ENDROOT
BRANCH   5   7
HETATM    7  S   UNK N   1      20.989  17.735   5.533  0.00  0.00    -0.100 SA
BRANCH   7   8
HETATM    8  C   UNK N   1      21.982  18.348   4.132  0.00  0.00     0.216 C 
HETATM    9  C   UNK N   1      23.413  18.402   4.612  0.00  0.00     0.184 C 
HETATM   10  C   UNK N   1      24.368  19.202   3.703  0.00  0.00     0.169 C 
HETATM   11  C   UNK N   1      23.677  20.443   3.120  0.00  0.00     0.176 C 
HETATM   12  C   UNK N   1      22.281  20.008   2.639  0.00  0.00     0.177 C 
HETATM   13  O   UNK N   1      21.530  19.627   3.765  0.00  0.00    -0.363 OA
BRANCH   9  14
HETATM   14  O   UNK N   1      23.906  17.108   4.800  0.00  0.00    -0.390 OA
HETATM   15  H   UNK N   1      24.631  16.623   5.226  0.00  0.00     0.210 HD
ENDBRANCH   9  14
BRANCH  10  16
HETATM   16  N   UNK N   1      25.564  19.537   4.489  0.00  0.00    -0.275 N 
HETATM   17  C   UNK N   1      26.157  18.696   5.349  0.00  0.00     0.140 A 
HETATM   18  C   UNK N   1      27.273  19.324   5.804  0.00  0.00     0.073 A 
HETATM   19  N   UNK N   1      27.343  20.544   5.225  0.00  0.00    -0.282 N 
HETATM   20  N   UNK N   1      26.285  20.647   4.423  0.00  0.00    -0.020 NA
ATOM     21  HN  UNK N   1      28.065  21.248   5.373  1.00  0.00     0.184 HD
BRANCH  18  22
HETATM   22  C   UNK N   1      28.250  18.683   6.696  0.00  0.00    -0.004 A 
HETATM   23  C   UNK N   1      29.121  17.720   6.156  0.00  0.00     0.014 A 
HETATM   24  C   UNK N   1      30.101  17.123   6.945  0.00  0.00     0.004 A 
HETATM   25  C   UNK N   1      30.224  17.485   8.284  0.00  0.00     0.042 A 
HETATM   26  C   UNK N   1      29.363  18.442   8.833  0.00  0.00     0.117 A 
HETATM   27  C   UNK N   1      28.376  19.044   8.041  0.00  0.00     0.056 A 
HETATM   28  F   UNK N   1      29.493  18.789  10.134  0.00  0.00    -0.206 F 
ENDBRANCH  18  22
ENDBRANCH  10  16
BRANCH  11  29
HETATM   29  O   UNK N   1      24.438  20.933   2.056  0.00  0.00    -0.391 OA
HETATM   30  H   UNK N   1      24.313  21.796   1.630  0.00  0.00     0.210 HD
ENDBRANCH  11  29
BRANCH  12  31
HETATM   31  C   UNK N   1      21.535  21.092   1.876  0.00  0.00     0.198 C 
BRANCH  31  32
HETATM   32  O   UNK N   1      21.603  20.841   0.505  0.00  0.00    -0.398 OA
HETATM   33  H   UNK N   1      22.331  20.832  -0.137  0.00  0.00     0.209 HD
ENDBRANCH  31  32
ENDBRANCH  12  31
ENDBRANCH   7   8
ENDBRANCH   5   7
BRANCH   6  34
HETATM   34  O   UNK N   1      19.027  15.355   6.572  0.00  0.00    -0.390 OA
HETATM   35  H   UNK N   1      18.184  15.756   6.838  0.00  0.00     0.210 HD
ENDBRANCH   6  34
BRANCH   3  36
HETATM   36  C   UNK N   1      20.943  15.325   1.388  0.00  0.00     0.198 C 
BRANCH  36  37
HETATM   37  O   UNK N   1      22.258  14.860   1.363  0.00  0.00    -0.398 OA
HETATM   38  H   UNK N   1      22.613  14.227   0.719  0.00  0.00     0.209 HD
ENDBRANCH  36  37
ENDBRANCH   3  36
BRANCH   1  39
HETATM   39  N   UNK N   1      21.363  13.836   6.264  0.00  0.00    -0.277 N 
HETATM   40  C   UNK N   1      22.174  14.060   7.314  0.00  0.00     0.144 A 
HETATM   41  C   UNK N   1      22.155  12.887   8.051  0.00  0.00     0.076 A 
HETATM   42  N   UNK N   1      21.340  12.011   7.439  0.00  0.00    -0.284 N 
HETATM   43  N   UNK N   1      20.869  12.612   6.363  0.00  0.00    -0.240 N 
ATOM     44  HN  UNK N   1      21.127  11.062   7.747  1.00  0.00     0.188 HD
ATOM     45  HN  UNK N   1      20.217  12.192   5.700  1.00  0.00     0.208 HD
BRANCH  41  46
HETATM   46  C   UNK N   1      22.872  12.595   9.294  0.00  0.00    -0.004 A 
HETATM   47  C   UNK N   1      24.272  12.601   9.333  0.00  0.00     0.014 A 
HETATM   48  C   UNK N   1      24.938  12.314  10.528  0.00  0.00     0.004 A 
HETATM   49  C   UNK N   1      24.208  12.020  11.685  0.00  0.00     0.042 A 
HETATM   50  C   UNK N   1      22.812  12.014  11.647  0.00  0.00     0.117 A 
HETATM   51  C   UNK N   1      22.146  12.300  10.455  0.00  0.00     0.056 A 
HETATM   52  F   UNK N   1      22.102  11.729  12.765  0.00  0.00    -0.206 F 
ENDBRANCH  41  46
ENDBRANCH   1  39
BRANCH   2  53
HETATM   53  O   UNK N   1      21.043  13.086   3.441  0.00  0.00    -0.391 OA
HETATM   54  H   UNK N   1      21.584  12.467   2.927  0.00  0.00     0.210 HD
ENDBRANCH   2  53
TORSDOF 14
ENDMDL
MODEL 4
REMARK VINA RESULT:      -9.4      7.128     10.181
REMARK  14 active torsions:
REMARK  status: ('A' for Active; 'I' for Inactive)
REMARK    1  A    between atoms: C_3  and  C_8 
REMARK    2  A    between atoms: C_15  and  N_10 
REMARK    3  A    between atoms: C_16  and  O_48 
REMARK    4  A    between atoms: C_17  and  C_46 
REMARK    5  A    between atoms: C_19  and  S_22 
REMARK    6  A    between atoms: C_20  and  O_21 
REMARK    7  A    between atoms: C_23  and  S_22 
REMARK    8  A    between atoms: C_24  and  O_45 
REMARK    9  A    between atoms: C_25  and  N_32 
REMARK   10  A    between atoms: C_26  and  O_31 
REMARK   11  A    between atoms: C_27  and  C_29 
REMARK   12  A    between atoms: C_29  and  O_30 
REMARK   13  A    between atoms: C_34  and  C_38 
REMARK   14  A    between atoms: C_46  and  O_47 
ROOT
HETATM    1  C   UNK N   1      31.344  15.029   4.787  0.00  0.00     0.172 C 
HETATM    2  C   UNK N   1      30.694  14.030   3.816  0.00  0.00     0.176 C 
HETATM    3  C   UNK N   1      31.821  13.269   3.063  0.00  0.00     0.177 C 
HETATM    4  O   UNK N   1      32.949  12.947   3.871  0.00  0.00    -0.363 OA
HETATM    5  C   UNK N   1      33.502  14.065   4.578  0.00  0.00     0.216 C 
HETATM    6  C   UNK N   1      32.736  15.381   4.306  0.00  0.00     0.184 C 
ENDROOT
BRANCH   5   7
HETATM    7  S   UNK N   1      33.449  13.568   6.363  0.00  0.00    -0.100 SA
BRANCH   7   8
HETATM    8  C   UNK N   1      34.323  14.972   7.132  0.00  0.00     0.216 C 
HETATM    9  C   UNK N   1      35.219  14.387   8.197  0.00  0.00     0.184 C 
HETATM   10  C   UNK N   1      35.797  15.417   9.191  0.00  0.00     0.169 C 
HETATM   11  C   UNK N   1      34.768  16.506   9.527  0.00  0.00     0.176 C 
HETATM   12  C   UNK N   1      34.112  16.942   8.204  0.00  0.00     0.177 C 
HETATM   13  O   UNK N   1      33.383  15.851   7.699  0.00  0.00    -0.363 OA
BRANCH   9  14
HETATM   14  O   UNK N   1      36.257  13.662   7.607  0.00  0.00    -0.390 OA
HETATM   15  H   UNK N   1      36.682  12.789   7.621  0.00  0.00     0.210 HD
ENDBRANCH   9  14
BRANCH  10  16
HETATM   16  N   UNK N   1      36.257  14.686  10.380  0.00  0.00    -0.275 N 
HETATM   17  C   UNK N   1      35.497  14.456  11.461  0.00  0.00     0.140 A 
HETATM   18  C   UNK N   1      36.232  13.677  12.298  0.00  0.00     0.073 A 
HETATM   19  N   UNK N   1      37.435  13.451  11.724  0.00  0.00    -0.282 N 
HETATM   20  N   UNK N   1      37.422  14.078  10.550  0.00  0.00    -0.020 NA
ATOM     21  HN  UNK N   1      38.203  12.905  12.114  1.00  0.00     0.184 HD
BRANCH  18  22
HETATM   22  C   UNK N   1      35.704  13.126  13.554  0.00  0.00    -0.004 A 
HETATM   23  C   UNK N   1      36.200  13.631  14.769  0.00  0.00     0.014 A 
HETATM   24  C   UNK N   1      35.694  13.182  15.987  0.00  0.00     0.004 A 
HETATM   25  C   UNK N   1      34.683  12.223  16.002  0.00  0.00     0.042 A 
HETATM   26  C   UNK N   1      34.183  11.712  14.799  0.00  0.00     0.117 A 
HETATM   27  C   UNK N   1      34.690  12.163  13.573  0.00  0.00     0.056 A 
HETATM   28  F   UNK N   1      33.199  10.784  14.826  0.00  0.00    -0.206 F 
ENDBRANCH  18  22
ENDBRANCH  10  16
BRANCH  11  29
HETATM   29  O   UNK N   1      35.422  17.582  10.133  0.00  0.00    -0.391 OA
HETATM   30  H   UNK N   1      35.602  17.663  11.083  0.00  0.00     0.210 HD
ENDBRANCH  11  29
BRANCH  12  31
HETATM   31  C   UNK N   1      33.190  18.143   8.348  0.00  0.00     0.198 C 
BRANCH  31  32
HETATM   32  O   UNK N   1      31.974  17.746   8.905  0.00  0.00    -0.398 OA
HETATM   33  H   UNK N   1      31.719  17.038   9.518  0.00  0.00     0.209 HD
ENDBRANCH  31  32
ENDBRANCH  12  31
ENDBRANCH   7   8
ENDBRANCH   5   7
BRANCH   6  34
HETATM   34  O   UNK N   1      33.309  16.489   4.933  0.00  0.00    -0.390 OA
HETATM   35  H   UNK N   1      32.845  17.274   5.263  0.00  0.00     0.210 HD
ENDBRANCH   6  34
BRANCH   3  36
HETATM   36  C   UNK N   1      31.285  12.028   2.371  0.00  0.00     0.198 C 
BRANCH  36  37
HETATM   37  O   UNK N   1      30.508  12.398   1.274  0.00  0.00    -0.398 OA
HETATM   38  H   UNK N   1      29.821  13.084   1.282  0.00  0.00     0.209 HD
ENDBRANCH  36  37
ENDBRANCH   3  36
BRANCH   1  39
HETATM   39  N   UNK N   1      30.561  16.122   5.354  0.00  0.00    -0.277 N 
HETATM   40  C   UNK N   1      29.751  16.999   4.733  0.00  0.00     0.144 A 
HETATM   41  C   UNK N   1      29.204  17.773   5.743  0.00  0.00     0.076 A 
HETATM   42  N   UNK N   1      29.685  17.340   6.921  0.00  0.00    -0.284 N 
HETATM   43  N   UNK N   1      30.500  16.336   6.658  0.00  0.00    -0.240 N 
ATOM     44  HN  UNK N   1      29.464  17.716   7.843  1.00  0.00     0.188 HD
ATOM     45  HN  UNK N   1      31.011  15.802   7.360  1.00  0.00     0.208 HD
BRANCH  41  46
HETATM   46  C   UNK N   1      28.255  18.881   5.614  0.00  0.00    -0.004 A 
HETATM   47  C   UNK N   1      27.812  19.581   6.743  0.00  0.00     0.014 A 
HETATM   48  C   UNK N   1      26.902  20.633   6.599  0.00  0.00     0.004 A 
HETATM   49  C   UNK N   1      26.433  20.986   5.329  0.00  0.00     0.042 A 
HETATM   50  C   UNK N   1      26.875  20.288   4.202  0.00  0.00     0.117 A 
HETATM   51  C   UNK N   1      27.784  19.239   4.345  0.00  0.00     0.056 A 
HETATM   52  F   UNK N   1      26.423  20.627   2.971  0.00  0.00    -0.206 F 
ENDBRANCH  41  46
ENDBRANCH   1  39
BRANCH   2  53
HETATM   53  O   UNK N   1      29.912  14.694   2.869  0.00  0.00    -0.391 OA
HETATM   54  H   UNK N   1      29.110  14.377   2.426  0.00  0.00     0.210 HD
ENDBRANCH   2  53
TORSDOF 14
ENDMDL
MODEL 5
REMARK VINA RESULT:      -9.1      7.032     11.970
REMARK  14 active torsions:
REMARK  status: ('A' for Active; 'I' for Inactive)
REMARK    1  A    between atoms: C_3  and  C_8 
REMARK    2  A    between atoms: C_15  and  N_10 
REMARK    3  A    between atoms: C_16  and  O_48 
REMARK    4  A    between atoms: C_17  and  C_46 
REMARK    5  A    between atoms: C_19  and  S_22 
REMARK    6  A    between atoms: C_20  and  O_21 
REMARK    7  A    between atoms: C_23  and  S_22 
REMARK    8  A    between atoms: C_24  and  O_45 
REMARK    9  A    between atoms: C_25  and  N_32 
REMARK   10  A    between atoms: C_26  and  O_31 
REMARK   11  A    between atoms: C_27  and  C_29 
REMARK   12  A    between atoms: C_29  and  O_30 
REMARK   13  A    between atoms: C_34  and  C_38 
REMARK   14  A    between atoms: C_46  and  O_47 
ROOT
HETATM    1  C   UNK N   1      35.201  15.035   9.904  0.00  0.00     0.172 C 
HETATM    2  C   UNK N   1      34.962  16.553   9.856  0.00  0.00     0.176 C 
HETATM    3  C   UNK N   1      34.990  17.011   8.371  0.00  0.00     0.177 C 
HETATM    4  O   UNK N   1      34.375  16.098   7.466  0.00  0.00    -0.363 OA
HETATM    5  C   UNK N   1      34.859  14.753   7.573  0.00  0.00     0.216 C 
HETATM    6  C   UNK N   1      35.946  14.593   8.661  0.00  0.00     0.184 C 
ENDROOT
BRANCH   5   7
HETATM    7  S   UNK N   1      33.350  13.734   7.921  0.00  0.00    -0.100 SA
BRANCH   7   8
HETATM    8  C   UNK N   1      32.669  13.548   6.240  0.00  0.00     0.216 C 
HETATM    9  C   UNK N   1      31.593  14.598   6.095  0.00  0.00     0.184 C 
HETATM   10  C   UNK N   1      30.664  14.405   4.879  0.00  0.00     0.169 C 
HETATM   11  C   UNK N   1      30.364  12.919   4.635  0.00  0.00     0.176 C 
HETATM   12  C   UNK N   1      31.694  12.155   4.763  0.00  0.00     0.177 C 
HETATM   13  O   UNK N   1      32.130  12.258   6.095  0.00  0.00    -0.363 OA
BRANCH   9  14
HETATM   14  O   UNK N   1      32.165  15.872   6.060  0.00  0.00    -0.390 OA
HETATM   15  H   UNK N   1      33.025  16.320   6.020  0.00  0.00     0.210 HD
ENDBRANCH   9  14
BRANCH  10  16
HETATM   16  N   UNK N   1      29.448  15.197   5.110  0.00  0.00    -0.275 N 
HETATM   17  C   UNK N   1      29.414  16.537   5.116  0.00  0.00     0.140 A 
HETATM   18  C   UNK N   1      28.111  16.896   5.266  0.00  0.00     0.073 A 
HETATM   19  N   UNK N   1      27.368  15.771   5.361  0.00  0.00    -0.282 N 
HETATM   20  N   UNK N   1      28.210  14.746   5.260  0.00  0.00    -0.020 NA
ATOM     21  HN  UNK N   1      26.357  15.718   5.485  1.00  0.00     0.184 HD
BRANCH  18  22
HETATM   22  C   UNK N   1      27.651  18.290   5.219  0.00  0.00    -0.004 A 
HETATM   23  C   UNK N   1      27.692  19.051   6.401  0.00  0.00     0.014 A 
HETATM   24  C   UNK N   1      27.319  20.393   6.398  0.00  0.00     0.004 A 
HETATM   25  C   UNK N   1      26.903  20.991   5.211  0.00  0.00     0.042 A 
HETATM   26  C   UNK N   1      26.857  20.244   4.028  0.00  0.00     0.117 A 
HETATM   27  C   UNK N   1      27.232  18.894   4.028  0.00  0.00     0.056 A 
HETATM   28  F   UNK N   1      26.455  20.836   2.880  0.00  0.00    -0.206 F 
ENDBRANCH  18  22
ENDBRANCH  10  16
BRANCH  11  29
HETATM   29  O   UNK N   1      29.825  12.765   3.355  0.00  0.00    -0.391 OA
HETATM   30  H   UNK N   1      29.559  11.920   2.958  0.00  0.00     0.210 HD
ENDBRANCH  11  29
BRANCH  12  31
HETATM   31  C   UNK N   1      31.594  10.687   4.375  0.00  0.00     0.198 C 
BRANCH  31  32
HETATM   32  O   UNK N   1      31.571  10.563   2.986  0.00  0.00    -0.398 OA
HETATM   33  H   UNK N   1      32.013  11.038   2.265  0.00  0.00     0.209 HD
ENDBRANCH  31  32
ENDBRANCH  12  31
ENDBRANCH   7   8
ENDBRANCH   5   7
BRANCH   6  34
HETATM   34  O   UNK N   1      36.475  13.303   8.724  0.00  0.00    -0.390 OA
HETATM   35  H   UNK N   1      36.183  12.583   9.305  0.00  0.00     0.210 HD
ENDBRANCH   6  34
BRANCH   3  36
HETATM   36  C   UNK N   1      34.404  18.402   8.209  0.00  0.00     0.198 C 
BRANCH  36  37
HETATM   37  O   UNK N   1      35.355  19.359   8.563  0.00  0.00    -0.398 OA
HETATM   38  H   UNK N   1      35.161  20.287   8.774  0.00  0.00     0.209 HD
ENDBRANCH  36  37
ENDBRANCH   3  36
BRANCH   1  39
HETATM   39  N   UNK N   1      35.588  14.389  11.153  0.00  0.00    -0.277 N 
HETATM   40  C   UNK N   1      34.830  13.695  12.022  0.00  0.00     0.144 A 
HETATM   41  C   UNK N   1      35.707  13.243  12.994  0.00  0.00     0.076 A 
HETATM   42  N   UNK N   1      36.945  13.662  12.683  0.00  0.00    -0.284 N 
HETATM   43  N   UNK N   1      36.846  14.349  11.560  0.00  0.00    -0.240 N 
ATOM     44  HN  UNK N   1      37.798  13.485  13.212  1.00  0.00     0.188 HD
ATOM     45  HN  UNK N   1      37.629  14.788  11.076  1.00  0.00     0.208 HD
BRANCH  41  46
HETATM   46  C   UNK N   1      35.399  12.437  14.178  0.00  0.00    -0.004 A 
HETATM   47  C   UNK N   1      35.211  11.053  14.074  0.00  0.00     0.014 A 
HETATM   48  C   UNK N   1      34.914  10.302  15.215  0.00  0.00     0.004 A 
HETATM   49  C   UNK N   1      34.802  10.931  16.460  0.00  0.00     0.042 A 
HETATM   50  C   UNK N   1      34.989  12.311  16.564  0.00  0.00     0.117 A 
HETATM   51  C   UNK N   1      35.287  13.062  15.426  0.00  0.00     0.056 A 
HETATM   52  F   UNK N   1      34.882  12.924  17.768  0.00  0.00    -0.206 F 
ENDBRANCH  41  46
ENDBRANCH   1  39
BRANCH   2  53
HETATM   53  O   UNK N   1      35.970  17.237  10.539  0.00  0.00    -0.391 OA
HETATM   54  H   UNK N   1      36.180  18.182  10.507  0.00  0.00     0.210 HD
ENDBRANCH   2  53
TORSDOF 14
ENDMDL
MODEL 6
REMARK VINA RESULT:      -8.9      7.387     12.006
REMARK  14 active torsions:
REMARK  status: ('A' for Active; 'I' for Inactive)
REMARK    1  A    between atoms: C_3  and  C_8 
REMARK    2  A    between atoms: C_15  and  N_10 
REMARK    3  A    between atoms: C_16  and  O_48 
REMARK    4  A    between atoms: C_17  and  C_46 
REMARK    5  A    between atoms: C_19  and  S_22 
REMARK    6  A    between atoms: C_20  and  O_21 
REMARK    7  A    between atoms: C_23  and  S_22 
REMARK    8  A    between atoms: C_24  and  O_45 
REMARK    9  A    between atoms: C_25  and  N_32 
REMARK   10  A    between atoms: C_26  and  O_31 
REMARK   11  A    between atoms: C_27  and  C_29 
REMARK   12  A    between atoms: C_29  and  O_30 
REMARK   13  A    between atoms: C_34  and  C_38 
REMARK   14  A    between atoms: C_46  and  O_47 
ROOT
HETATM    1  C   UNK N   1      32.473  15.944   7.105  0.00  0.00     0.172 C 
HETATM    2  C   UNK N   1      32.318  14.501   6.599  0.00  0.00     0.176 C 
HETATM    3  C   UNK N   1      33.719  13.967   6.187  0.00  0.00     0.177 C 
HETATM    4  O   UNK N   1      34.777  14.380   7.047  0.00  0.00    -0.363 OA
HETATM    5  C   UNK N   1      34.836  15.796   7.265  0.00  0.00     0.216 C 
HETATM    6  C   UNK N   1      33.722  16.563   6.514  0.00  0.00     0.184 C 
ENDROOT
BRANCH   5   7
HETATM    7  S   UNK N   1      34.721  15.997   9.104  0.00  0.00    -0.100 SA
BRANCH   7   8
HETATM    8  C   UNK N   1      35.405  14.402   9.664  0.00  0.00     0.216 C 
HETATM    9  C   UNK N   1      35.177  14.338  11.155  0.00  0.00     0.184 C 
HETATM   10  C   UNK N   1      35.969  13.231  11.882  0.00  0.00     0.169 C 
HETATM   11  C   UNK N   1      37.374  13.067  11.284  0.00  0.00     0.176 C 
HETATM   12  C   UNK N   1      37.226  13.079   9.752  0.00  0.00     0.177 C 
HETATM   13  O   UNK N   1      36.778  14.355   9.368  0.00  0.00    -0.363 OA
BRANCH   9  14
HETATM   14  O   UNK N   1      33.812  14.203  11.427  0.00  0.00    -0.390 OA
HETATM   15  H   UNK N   1      32.951  14.598  11.218  0.00  0.00     0.210 HD
ENDBRANCH   9  14
BRANCH  10  16
HETATM   16  N   UNK N   1      35.998  13.564  13.313  0.00  0.00    -0.275 N 
HETATM   17  C   UNK N   1      35.564  12.747  14.283  0.00  0.00     0.140 A 
HETATM   18  C   UNK N   1      35.841  13.358  15.465  0.00  0.00     0.073 A 
HETATM   19  N   UNK N   1      36.430  14.546  15.202  0.00  0.00    -0.282 N 
HETATM   20  N   UNK N   1      36.517  14.645  13.878  0.00  0.00    -0.020 NA
ATOM     21  HN  UNK N   1      36.749  15.233  15.886  1.00  0.00     0.184 HD
BRANCH  18  22
HETATM   22  C   UNK N   1      35.604  12.729  16.771  0.00  0.00    -0.004 A 
HETATM   23  C   UNK N   1      35.887  11.359  16.917  0.00  0.00     0.014 A 
HETATM   24  C   UNK N   1      35.733  10.726  18.149  0.00  0.00     0.004 A 
HETATM   25  C   UNK N   1      35.297  11.459  19.251  0.00  0.00     0.042 A 
HETATM   26  C   UNK N   1      35.012  12.822  19.118  0.00  0.00     0.117 A 
HETATM   27  C   UNK N   1      35.167  13.461  17.880  0.00  0.00     0.056 A 
HETATM   28  F   UNK N   1      34.594  13.525  20.196  0.00  0.00    -0.206 F 
ENDBRANCH  18  22
ENDBRANCH  10  16
BRANCH  11  29
HETATM   29  O   UNK N   1      37.917  11.855  11.720  0.00  0.00    -0.391 OA
HETATM   30  H   UNK N   1      38.074  11.614  12.646  0.00  0.00     0.210 HD
ENDBRANCH  11  29
BRANCH  12  31
HETATM   31  C   UNK N   1      38.514  12.750   9.013  0.00  0.00     0.198 C 
BRANCH  31  32
HETATM   32  O   UNK N   1      39.040  13.906   8.436  0.00  0.00    -0.398 OA
HETATM   33  H   UNK N   1      39.712  14.547   8.717  0.00  0.00     0.209 HD
ENDBRANCH  31  32
ENDBRANCH  12  31
ENDBRANCH   7   8
ENDBRANCH   5   7
BRANCH   6  34
HETATM   34  O   UNK N   1      33.814  17.948   6.661  0.00  0.00    -0.390 OA
HETATM   35  H   UNK N   1      33.459  18.621   6.060  0.00  0.00     0.210 HD
ENDBRANCH   6  34
BRANCH   3  36
HETATM   36  C   UNK N   1      33.714  12.457   6.031  0.00  0.00     0.198 C 
BRANCH  36  37
HETATM   37  O   UNK N   1      32.472  11.947   6.412  0.00  0.00    -0.398 OA
HETATM   38  H   UNK N   1      32.066  12.064   7.286  0.00  0.00     0.209 HD
ENDBRANCH  36  37
ENDBRANCH   3  36
BRANCH   1  39
HETATM   39  N   UNK N   1      31.309  16.816   7.214  0.00  0.00    -0.277 N 
HETATM   40  C   UNK N   1      30.570  17.373   6.238  0.00  0.00     0.144 A 
HETATM   41  C   UNK N   1      29.548  18.045   6.890  0.00  0.00     0.076 A 
HETATM   42  N   UNK N   1      29.695  17.867   8.214  0.00  0.00    -0.284 N 
HETATM   43  N   UNK N   1      30.765  17.114   8.383  0.00  0.00    -0.240 N 
ATOM     44  HN  UNK N   1      29.094  18.242   8.948  1.00  0.00     0.188 HD
ATOM     45  HN  UNK N   1      31.123  16.806   9.287  1.00  0.00     0.208 HD
BRANCH  41  46
HETATM   46  C   UNK N   1      28.463  18.826   6.293  0.00  0.00    -0.004 A 
HETATM   47  C   UNK N   1      28.140  18.687   4.937  0.00  0.00     0.014 A 
HETATM   48  C   UNK N   1      27.103  19.445   4.386  0.00  0.00     0.004 A 
HETATM   49  C   UNK N   1      26.388  20.344   5.185  0.00  0.00     0.042 A 
HETATM   50  C   UNK N   1      26.710  20.484   6.538  0.00  0.00     0.117 A 
HETATM   51  C   UNK N   1      27.744  19.727   7.089  0.00  0.00     0.056 A 
HETATM   52  F   UNK N   1      26.020  21.353   7.315  0.00  0.00    -0.206 F 
ENDBRANCH  41  46
ENDBRANCH   1  39
BRANCH   2  53
HETATM   53  O   UNK N   1      31.489  14.454   5.476  0.00  0.00    -0.391 OA
HETATM   54  H   UNK N   1      31.379  13.728   4.843  0.00  0.00     0.210 HD
ENDBRANCH   2  53
TORSDOF 14
ENDMDL
MODEL 7
REMARK VINA RESULT:      -8.8      2.158      9.243
REMARK  14 active torsions:
REMARK  status: ('A' for Active; 'I' for Inactive)
REMARK    1  A    between atoms: C_3  and  C_8 
REMARK    2  A    between atoms: C_15  and  N_10 
REMARK    3  A    between atoms: C_16  and  O_48 
REMARK    4  A    between atoms: C_17  and  C_46 
REMARK    5  A    between atoms: C_19  and  S_22 
REMARK    6  A    between atoms: C_20  and  O_21 
REMARK    7  A    between atoms: C_23  and  S_22 
REMARK    8  A    between atoms: C_24  and  O_45 
REMARK    9  A    between atoms: C_25  and  N_32 
REMARK   10  A    between atoms: C_26  and  O_31 
REMARK   11  A    between atoms: C_27  and  C_29 
REMARK   12  A    between atoms: C_29  and  O_30 
REMARK   13  A    between atoms: C_34  and  C_38 
REMARK   14  A    between atoms: C_46  and  O_47 
ROOT
HETATM    1  C   UNK N   1      27.042  15.661   4.866  0.00  0.00     0.172 C 
HETATM    2  C   UNK N   1      27.347  14.529   3.872  0.00  0.00     0.176 C 
HETATM    3  C   UNK N   1      26.033  13.743   3.599  0.00  0.00     0.177 C 
HETATM    4  O   UNK N   1      24.870  14.562   3.514  0.00  0.00    -0.363 OA
HETATM    5  C   UNK N   1      24.691  15.443   4.630  0.00  0.00     0.216 C 
HETATM    6  C   UNK N   1      25.816  15.311   5.683  0.00  0.00     0.184 C 
ENDROOT
BRANCH   5   7
HETATM    7  S   UNK N   1      24.613  17.139   3.885  0.00  0.00    -0.100 SA
BRANCH   7   8
HETATM    8  C   UNK N   1      22.815  17.444   3.922  0.00  0.00     0.216 C 
HETATM    9  C   UNK N   1      22.372  17.222   5.349  0.00  0.00     0.184 C 
HETATM   10  C   UNK N   1      20.846  17.102   5.538  0.00  0.00     0.169 C 
HETATM   11  C   UNK N   1      20.197  16.337   4.375  0.00  0.00     0.176 C 
HETATM   12  C   UNK N   1      20.807  16.880   3.071  0.00  0.00     0.177 C 
HETATM   13  O   UNK N   1      22.172  16.544   3.055  0.00  0.00    -0.363 OA
BRANCH   9  14
HETATM   14  O   UNK N   1      22.876  18.233   6.171  0.00  0.00    -0.390 OA
HETATM   15  H   UNK N   1      23.189  18.395   7.075  0.00  0.00     0.210 HD
ENDBRANCH   9  14
BRANCH  10  16
HETATM   16  N   UNK N   1      20.603  16.465   6.841  0.00  0.00    -0.275 N 
HETATM   17  C   UNK N   1      21.262  15.385   7.284  0.00  0.00     0.140 A 
HETATM   18  C   UNK N   1      20.831  15.155   8.552  0.00  0.00     0.073 A 
HETATM   19  N   UNK N   1      19.906  16.090   8.864  0.00  0.00    -0.282 N 
HETATM   20  N   UNK N   1      19.787  16.880   7.799  0.00  0.00    -0.020 NA
ATOM     21  HN  UNK N   1      19.398  16.174   9.744  1.00  0.00     0.184 HD
BRANCH  18  22
HETATM   22  C   UNK N   1      21.396  14.110   9.416  0.00  0.00    -0.004 A 
HETATM   23  C   UNK N   1      20.528  13.397  10.263  0.00  0.00     0.014 A 
HETATM   24  C   UNK N   1      21.003  12.359  11.062  0.00  0.00     0.004 A 
HETATM   25  C   UNK N   1      22.353  12.020  11.020  0.00  0.00     0.042 A 
HETATM   26  C   UNK N   1      23.227  12.722  10.182  0.00  0.00     0.117 A 
HETATM   27  C   UNK N   1      22.751  13.766   9.377  0.00  0.00     0.056 A 
HETATM   28  F   UNK N   1      24.536  12.381  10.146  0.00  0.00    -0.206 F 
ENDBRANCH  18  22
ENDBRANCH  10  16
BRANCH  11  29
HETATM   29  O   UNK N   1      18.817  16.548   4.403  0.00  0.00    -0.391 OA
HETATM   30  H   UNK N   1      18.159  15.909   4.720  0.00  0.00     0.210 HD
ENDBRANCH  11  29
BRANCH  12  31
HETATM   31  C   UNK N   1      20.138  16.343   1.815  0.00  0.00     0.198 C 
BRANCH  31  32
HETATM   32  O   UNK N   1      19.209  17.268   1.338  0.00  0.00    -0.398 OA
HETATM   33  H   UNK N   1      19.286  18.089   0.827  0.00  0.00     0.209 HD
ENDBRANCH  31  32
ENDBRANCH  12  31
ENDBRANCH   7   8
ENDBRANCH   5   7
BRANCH   6  34
HETATM   34  O   UNK N   1      25.614  16.113   6.807  0.00  0.00    -0.390 OA
HETATM   35  H   UNK N   1      26.273  16.351   7.477  0.00  0.00     0.210 HD
ENDBRANCH   6  34
BRANCH   3  36
HETATM   36  C   UNK N   1      26.159  12.861   2.370  0.00  0.00     0.198 C 
BRANCH  36  37
HETATM   37  O   UNK N   1      27.415  13.036   1.790  0.00  0.00    -0.398 OA
HETATM   38  H   UNK N   1      27.634  12.844   0.864  0.00  0.00     0.209 HD
ENDBRANCH  36  37
ENDBRANCH   3  36
BRANCH   1  39
HETATM   39  N   UNK N   1      28.126  16.326   5.580  0.00  0.00    -0.277 N 
HETATM   40  C   UNK N   1      29.423  15.979   5.670  0.00  0.00     0.144 A 
HETATM   41  C   UNK N   1      30.023  16.989   6.405  0.00  0.00     0.076 A 
HETATM   42  N   UNK N   1      29.088  17.901   6.721  0.00  0.00    -0.284 N 
HETATM   43  N   UNK N   1      27.950  17.479   6.205  0.00  0.00    -0.240 N 
ATOM     44  HN  UNK N   1      29.230  18.756   7.258  1.00  0.00     0.188 HD
ATOM     45  HN  UNK N   1      27.059  17.971   6.278  1.00  0.00     0.208 HD
BRANCH  41  46
HETATM   46  C   UNK N   1      31.430  17.102   6.796  0.00  0.00    -0.004 A 
HETATM   47  C   UNK N   1      31.793  17.733   7.993  0.00  0.00     0.014 A 
HETATM   48  C   UNK N   1      33.142  17.835   8.347  0.00  0.00     0.004 A 
HETATM   49  C   UNK N   1      34.129  17.310   7.506  0.00  0.00     0.042 A 
HETATM   50  C   UNK N   1      33.768  16.681   6.312  0.00  0.00     0.117 A 
HETATM   51  C   UNK N   1      32.422  16.578   5.959  0.00  0.00     0.056 A 
HETATM   52  F   UNK N   1      34.721  16.171   5.496  0.00  0.00    -0.206 F 
ENDBRANCH  41  46
ENDBRANCH   1  39
BRANCH   2  53
HETATM   53  O   UNK N   1      28.282  13.638   4.403  0.00  0.00    -0.391 OA
HETATM   54  H   UNK N   1      29.229  13.576   4.207  0.00  0.00     0.210 HD
ENDBRANCH   2  53
TORSDOF 14
ENDMDL
MODEL 8
REMARK VINA RESULT:      -8.6      3.049      4.092
REMARK  14 active torsions:
REMARK  status: ('A' for Active; 'I' for Inactive)
REMARK    1  A    between atoms: C_3  and  C_8 
REMARK    2  A    between atoms: C_15  and  N_10 
REMARK    3  A    between atoms: C_16  and  O_48 
REMARK    4  A    between atoms: C_17  and  C_46 
REMARK    5  A    between atoms: C_19  and  S_22 
REMARK    6  A    between atoms: C_20  and  O_21 
REMARK    7  A    between atoms: C_23  and  S_22 
REMARK    8  A    between atoms: C_24  and  O_45 
REMARK    9  A    between atoms: C_25  and  N_32 
REMARK   10  A    between atoms: C_26  and  O_31 
REMARK   11  A    between atoms: C_27  and  C_29 
REMARK   12  A    between atoms: C_29  and  O_30 
REMARK   13  A    between atoms: C_34  and  C_38 
REMARK   14  A    between atoms: C_46  and  O_47 
ROOT
HETATM    1  C   UNK N   1      24.415  14.841   4.912  0.00  0.00     0.172 C 
HETATM    2  C   UNK N   1      23.896  14.302   3.569  0.00  0.00     0.176 C 
HETATM    3  C   UNK N   1      24.525  15.142   2.423  0.00  0.00     0.177 C 
HETATM    4  O   UNK N   1      25.886  15.503   2.642  0.00  0.00    -0.363 OA
HETATM    5  C   UNK N   1      26.127  16.139   3.904  0.00  0.00     0.216 C 
HETATM    6  C   UNK N   1      24.844  16.285   4.754  0.00  0.00     0.184 C 
ENDROOT
BRANCH   5   7
HETATM    7  S   UNK N   1      27.408  15.083   4.728  0.00  0.00    -0.100 SA
BRANCH   7   8
HETATM    8  C   UNK N   1      28.463  16.360   5.489  0.00  0.00     0.216 C 
HETATM    9  C   UNK N   1      29.803  15.712   5.748  0.00  0.00     0.184 C 
HETATM   10  C   UNK N   1      30.734  16.508   6.685  0.00  0.00     0.169 C 
HETATM   11  C   UNK N   1      29.945  17.182   7.817  0.00  0.00     0.176 C 
HETATM   12  C   UNK N   1      28.695  17.823   7.186  0.00  0.00     0.177 C 
HETATM   13  O   UNK N   1      27.878  16.792   6.692  0.00  0.00    -0.363 OA
BRANCH   9  14
HETATM   14  O   UNK N   1      30.453  15.452   4.539  0.00  0.00    -0.390 OA
HETATM   15  H   UNK N   1      30.796  14.722   3.999  0.00  0.00     0.210 HD
ENDBRANCH   9  14
BRANCH  10  16
HETATM   16  N   UNK N   1      31.765  15.587   7.185  0.00  0.00    -0.275 N 
HETATM   17  C   UNK N   1      32.918  15.981   7.744  0.00  0.00     0.140 A 
HETATM   18  C   UNK N   1      33.556  14.857   8.161  0.00  0.00     0.073 A 
HETATM   19  N   UNK N   1      32.791  13.789   7.842  0.00  0.00    -0.282 N 
HETATM   20  N   UNK N   1      31.700  14.265   7.248  0.00  0.00    -0.020 NA
ATOM     21  HN  UNK N   1      33.008  12.809   8.022  1.00  0.00     0.184 HD
BRANCH  18  22
HETATM   22  C   UNK N   1      34.816  14.881   8.918  0.00  0.00    -0.004 A 
HETATM   23  C   UNK N   1      34.908  15.722  10.041  0.00  0.00     0.014 A 
HETATM   24  C   UNK N   1      36.059  15.741  10.825  0.00  0.00     0.004 A 
HETATM   25  C   UNK N   1      37.131  14.915  10.496  0.00  0.00     0.042 A 
HETATM   26  C   UNK N   1      37.052  14.074   9.380  0.00  0.00     0.117 A 
HETATM   27  C   UNK N   1      35.894  14.053   8.591  0.00  0.00     0.056 A 
HETATM   28  F   UNK N   1      38.098  13.274   9.072  0.00  0.00    -0.206 F 
ENDBRANCH  18  22
ENDBRANCH  10  16
BRANCH  11  29
HETATM   29  O   UNK N   1      30.749  18.152   8.420  0.00  0.00    -0.391 OA
HETATM   30  H   UNK N   1      30.423  18.919   8.917  0.00  0.00     0.210 HD
ENDBRANCH  11  29
BRANCH  12  31
HETATM   31  C   UNK N   1      27.897  18.682   8.155  0.00  0.00     0.198 C 
BRANCH  31  32
HETATM   32  O   UNK N   1      27.646  17.969   9.328  0.00  0.00    -0.398 OA
HETATM   33  H   UNK N   1      27.751  17.038   9.579  0.00  0.00     0.209 HD
ENDBRANCH  31  32
ENDBRANCH  12  31
ENDBRANCH   7   8
ENDBRANCH   5   7
BRANCH   6  34
HETATM   34  O   UNK N   1      25.054  16.967   5.954  0.00  0.00    -0.390 OA
HETATM   35  H   UNK N   1      24.385  17.192   6.619  0.00  0.00     0.210 HD
ENDBRANCH   6  34
BRANCH   3  36
HETATM   36  C   UNK N   1      24.363  14.455   1.078  0.00  0.00     0.198 C 
BRANCH  36  37
HETATM   37  O   UNK N   1      24.041  13.112   1.270  0.00  0.00    -0.398 OA
HETATM   38  H   UNK N   1      24.391  12.550   1.980  0.00  0.00     0.209 HD
ENDBRANCH  36  37
ENDBRANCH   3  36
BRANCH   1  39
HETATM   39  N   UNK N   1      23.733  14.501   6.156  0.00  0.00    -0.277 N 
HETATM   40  C   UNK N   1      24.145  13.710   7.162  0.00  0.00     0.144 A 
HETATM   41  C   UNK N   1      23.150  13.790   8.123  0.00  0.00     0.076 A 
HETATM   42  N   UNK N   1      22.191  14.620   7.678  0.00  0.00    -0.284 N 
HETATM   43  N   UNK N   1      22.572  15.042   6.487  0.00  0.00    -0.240 N 
ATOM     44  HN  UNK N   1      21.333  14.876   8.167  1.00  0.00     0.188 HD
ATOM     45  HN  UNK N   1      22.044  15.691   5.904  1.00  0.00     0.208 HD
BRANCH  41  46
HETATM   46  C   UNK N   1      23.098  13.116   9.422  0.00  0.00    -0.004 A 
HETATM   47  C   UNK N   1      24.270  12.667  10.045  0.00  0.00     0.014 A 
HETATM   48  C   UNK N   1      24.199  12.022  11.283  0.00  0.00     0.004 A 
HETATM   49  C   UNK N   1      22.960  11.823  11.901  0.00  0.00     0.042 A 
HETATM   50  C   UNK N   1      21.791  12.271  11.280  0.00  0.00     0.117 A 
HETATM   51  C   UNK N   1      21.860  12.915  10.045  0.00  0.00     0.056 A 
HETATM   52  F   UNK N   1      20.589  12.079  11.876  0.00  0.00    -0.206 F 
ENDBRANCH  41  46
ENDBRANCH   1  39
BRANCH   2  53
HETATM   53  O   UNK N   1      22.507  14.428   3.486  0.00  0.00    -0.391 OA
HETATM   54  H   UNK N   1      21.994  15.079   2.984  0.00  0.00     0.210 HD
ENDBRANCH   2  53
TORSDOF 14
ENDMDL
MODEL 9
REMARK VINA RESULT:      -8.6      7.155     12.936
REMARK  14 active torsions:
REMARK  status: ('A' for Active; 'I' for Inactive)
REMARK    1  A    between atoms: C_3  and  C_8 
REMARK    2  A    between atoms: C_15  and  N_10 
REMARK    3  A    between atoms: C_16  and  O_48 
REMARK    4  A    between atoms: C_17  and  C_46 
REMARK    5  A    between atoms: C_19  and  S_22 
REMARK    6  A    between atoms: C_20  and  O_21 
REMARK    7  A    between atoms: C_23  and  S_22 
REMARK    8  A    between atoms: C_24  and  O_45 
REMARK    9  A    between atoms: C_25  and  N_32 
REMARK   10  A    between atoms: C_26  and  O_31 
REMARK   11  A    between atoms: C_27  and  C_29 
REMARK   12  A    between atoms: C_29  and  O_30 
REMARK   13  A    between atoms: C_34  and  C_38 
REMARK   14  A    between atoms: C_46  and  O_47 
ROOT
HETATM    1  C   UNK N   1      36.217  13.352  11.302  0.00  0.00     0.172 C 
HETATM    2  C   UNK N   1      37.490  13.670  10.502  0.00  0.00     0.176 C 
HETATM    3  C   UNK N   1      37.351  13.050   9.084  0.00  0.00     0.177 C 
HETATM    4  O   UNK N   1      36.041  13.143   8.531  0.00  0.00    -0.363 OA
HETATM    5  C   UNK N   1      35.007  12.643   9.389  0.00  0.00     0.216 C 
HETATM    6  C   UNK N   1      35.551  12.115  10.737  0.00  0.00     0.184 C 
ENDROOT
BRANCH   5   7
HETATM    7  S   UNK N   1      33.840  14.067   9.604  0.00  0.00    -0.100 SA
BRANCH   7   8
HETATM    8  C   UNK N   1      33.400  14.412   7.868  0.00  0.00     0.216 C 
HETATM    9  C   UNK N   1      32.490  15.617   7.887  0.00  0.00     0.184 C 
HETATM   10  C   UNK N   1      31.737  15.876   6.566  0.00  0.00     0.169 C 
HETATM   11  C   UNK N   1      31.302  14.561   5.903  0.00  0.00     0.176 C 
HETATM   12  C   UNK N   1      32.498  13.594   5.973  0.00  0.00     0.177 C 
HETATM   13  O   UNK N   1      32.739  13.296   7.325  0.00  0.00    -0.363 OA
BRANCH   9  14
HETATM   14  O   UNK N   1      33.210  16.756   8.257  0.00  0.00    -0.390 OA
HETATM   15  H   UNK N   1      33.105  17.710   8.403  0.00  0.00     0.210 HD
ENDBRANCH   9  14
BRANCH  10  16
HETATM   16  N   UNK N   1      30.603  16.764   6.861  0.00  0.00    -0.275 N 
HETATM   17  C   UNK N   1      30.025  17.570   5.960  0.00  0.00     0.140 A 
HETATM   18  C   UNK N   1      28.964  18.153   6.577  0.00  0.00     0.073 A 
HETATM   19  N   UNK N   1      28.913  17.704   7.851  0.00  0.00    -0.282 N 
HETATM   20  N   UNK N   1      29.926  16.853   7.998  0.00  0.00    -0.020 NA
ATOM     21  HN  UNK N   1      28.230  17.965   8.562  1.00  0.00     0.184 HD
BRANCH  18  22
HETATM   22  C   UNK N   1      28.014  19.034   5.884  0.00  0.00    -0.004 A 
HETATM   23  C   UNK N   1      27.569  18.664   4.602  0.00  0.00     0.014 A 
HETATM   24  C   UNK N   1      26.627  19.435   3.924  0.00  0.00     0.004 A 
HETATM   25  C   UNK N   1      26.116  20.584   4.524  0.00  0.00     0.042 A 
HETATM   26  C   UNK N   1      26.552  20.963   5.799  0.00  0.00     0.117 A 
HETATM   27  C   UNK N   1      27.499  20.188   6.482  0.00  0.00     0.056 A 
HETATM   28  F   UNK N   1      26.047  22.078   6.374  0.00  0.00    -0.206 F 
ENDBRANCH  18  22
ENDBRANCH  10  16
BRANCH  11  29
HETATM   29  O   UNK N   1      30.945  14.814   4.576  0.00  0.00    -0.391 OA
HETATM   30  H   UNK N   1      31.541  14.744   3.814  0.00  0.00     0.210 HD
ENDBRANCH  11  29
BRANCH  12  31
HETATM   31  C   UNK N   1      32.282  12.302   5.200  0.00  0.00     0.198 C 
BRANCH  31  32
HETATM   32  O   UNK N   1      30.927  11.969   5.198  0.00  0.00    -0.398 OA
HETATM   33  H   UNK N   1      30.258  11.897   4.499  0.00  0.00     0.209 HD
ENDBRANCH  31  32
ENDBRANCH  12  31
ENDBRANCH   7   8
ENDBRANCH   5   7
BRANCH   6  34
HETATM   34  O   UNK N   1      34.562  11.560  11.550  0.00  0.00    -0.390 OA
HETATM   35  H   UNK N   1      34.695  11.085  12.385  0.00  0.00     0.210 HD
ENDBRANCH   6  34
BRANCH   3  36
HETATM   36  C   UNK N   1      38.379  13.622   8.124  0.00  0.00     0.198 C 
BRANCH  36  37
HETATM   37  O   UNK N   1      37.927  13.483   6.811  0.00  0.00    -0.398 OA
HETATM   38  H   UNK N   1      38.099  14.113   6.093  0.00  0.00     0.209 HD
ENDBRANCH  36  37
ENDBRANCH   3  36
BRANCH   1  39
HETATM   39  N   UNK N   1      36.208  13.484  12.755  0.00  0.00    -0.277 N 
HETATM   40  C   UNK N   1      35.793  12.606  13.686  0.00  0.00     0.144 A 
HETATM   41  C   UNK N   1      36.072  13.203  14.905  0.00  0.00     0.076 A 
HETATM   42  N   UNK N   1      36.645  14.397  14.675  0.00  0.00    -0.284 N 
HETATM   43  N   UNK N   1      36.721  14.540  13.365  0.00  0.00    -0.240 N 
ATOM     44  HN  UNK N   1      36.961  15.065  15.378  1.00  0.00     0.188 HD
ATOM     45  HN  UNK N   1      37.119  15.350  12.891  1.00  0.00     0.208 HD
BRANCH  41  46
HETATM   46  C   UNK N   1      35.816  12.672  16.245  0.00  0.00    -0.004 A 
HETATM   47  C   UNK N   1      36.002  11.313  16.526  0.00  0.00     0.014 A 
HETATM   48  C   UNK N   1      35.748  10.825  17.812  0.00  0.00     0.004 A 
HETATM   49  C   UNK N   1      35.308  11.692  18.817  0.00  0.00     0.042 A 
HETATM   50  C   UNK N   1      35.122  13.048  18.538  0.00  0.00     0.117 A 
HETATM   51  C   UNK N   1      35.376  13.536  17.256  0.00  0.00     0.056 A 
HETATM   52  F   UNK N   1      34.695  13.891  19.509  0.00  0.00    -0.206 F 
ENDBRANCH  41  46
ENDBRANCH   1  39
BRANCH   2  53
HETATM   53  O   UNK N   1      38.615  13.110  11.111  0.00  0.00    -0.391 OA
HETATM   54  H   UNK N   1      39.532  13.114  10.797  0.00  0.00     0.210 HD
ENDBRANCH   2  53
TORSDOF 14
ENDMDL
