MODEL 1
REMARK VINA RESULT:      -7.3      0.000      0.000
REMARK  6 active torsions:
REMARK  status: ('A' for Active; 'I' for Inactive)
REMARK    1  A    between atoms: N_3  and  C_15 
REMARK    2  A    between atoms: C_6  and  C_7 
REMARK    3  A    between atoms: C_7  and  C_8 
REMARK    4  A    between atoms: C_15  and  C_16 
REMARK    5  A    between atoms: C_16  and  C_17 
REMARK    6  A    between atoms: C_16  and  O_24 
ROOT
HETATM    1  C   UNK N   1      36.850  14.758  10.135  0.00  0.00     0.035 C 
HETATM    2  C   UNK N   1      35.977  14.719   8.877  0.00  0.00     0.273 C 
HETATM    3  N   UNK N   1      34.684  15.403   9.058  0.00  0.00     0.091 N 
HETATM    4  C   UNK N   1      33.908  14.749  10.121  0.00  0.00     0.273 C 
HETATM    5  C   UNK N   1      34.614  14.799  11.482  0.00  0.00     0.035 C 
HETATM    6  C   UNK N   1      36.046  14.300  11.339  0.00  0.00    -0.007 C 
ENDROOT
BRANCH   3   7
HETATM    7  C   UNK N   1      34.863  16.824   9.364  0.00  0.00     0.308 C 
BRANCH   7   8
HETATM    8  C   UNK N   1      34.584  17.690   8.142  0.00  0.00     0.179 C 
BRANCH   8   9
HETATM    9  C   UNK N   1      33.165  17.546   7.655  0.00  0.00    -0.028 A 
HETATM   10  C   UNK N   1      32.084  17.776   8.522  0.00  0.00     0.011 A 
HETATM   11  C   UNK N   1      30.770  17.672   8.059  0.00  0.00     0.024 A 
HETATM   12  C   UNK N   1      30.524  17.336   6.726  0.00  0.00     0.034 A 
HETATM   13  C   UNK N   1      31.593  17.103   5.856  0.00  0.00     0.024 A 
HETATM   14 Cl   UNK N   1      28.877  17.213   6.146  0.00  0.00    -0.084 Cl
HETATM   15  C   UNK N   1      32.909  17.212   6.316  0.00  0.00     0.011 A 
ENDBRANCH   8   9
BRANCH   8  16
HETATM   16  O   UNK N   1      34.878  19.019   8.455  0.00  0.00    -0.389 OA
HETATM   17  H   UNK N   1      34.788  19.731   7.803  0.00  0.00     0.210 HD
ENDBRANCH   8  16
ENDBRANCH   7   8
ENDBRANCH   3   7
BRANCH   6  18
HETATM   18  C   UNK N   1      36.584  13.191  12.239  0.00  0.00     0.043 C 
BRANCH  18  19
HETATM   19  C   UNK N   1      36.070  13.200  13.651  0.00  0.00    -0.058 A 
HETATM   20  C   UNK N   1      36.650  13.993  14.654  0.00  0.00     0.010 A 
HETATM   21  C   UNK N   1      36.160  13.947  15.962  0.00  0.00     0.043 A 
HETATM   22  C   UNK N   1      35.087  13.109  16.277  0.00  0.00     0.116 A 
HETATM   23  C   UNK N   1      34.500  12.322  15.281  0.00  0.00     0.043 A 
HETATM   24  F   UNK N   1      34.617  13.057  17.545  0.00  0.00    -0.206 F 
HETATM   25  C   UNK N   1      34.991  12.367  13.974  0.00  0.00     0.010 A 
ENDBRANCH  18  19
ENDBRANCH   6  18
TORSDOF 6
ENDMDL
MODEL 2
REMARK VINA RESULT:      -7.1      4.550      8.802
REMARK  6 active torsions:
REMARK  status: ('A' for Active; 'I' for Inactive)
REMARK    1  A    between atoms: N_3  and  C_15 
REMARK    2  A    between atoms: C_6  and  C_7 
REMARK    3  A    between atoms: C_7  and  C_8 
REMARK    4  A    between atoms: C_15  and  C_16 
REMARK    5  A    between atoms: C_16  and  C_17 
REMARK    6  A    between atoms: C_16  and  O_24 
ROOT
HETATM    1  C   UNK N   1      34.389  15.100   8.746  0.00  0.00     0.035 C 
HETATM    2  C   UNK N   1      35.602  14.245   9.126  0.00  0.00     0.273 C 
HETATM    3  N   UNK N   1      35.970  14.375  10.547  0.00  0.00     0.091 N 
HETATM    4  C   UNK N   1      36.332  15.767  10.853  0.00  0.00     0.273 C 
HETATM    5  C   UNK N   1      35.171  16.742  10.619  0.00  0.00     0.035 C 
HETATM    6  C   UNK N   1      34.588  16.526   9.229  0.00  0.00    -0.007 C 
ENDROOT
BRANCH   3   7
HETATM    7  C   UNK N   1      34.887  13.929  11.428  0.00  0.00     0.308 C 
BRANCH   7   8
HETATM    8  C   UNK N   1      35.191  12.560  12.022  0.00  0.00     0.179 C 
BRANCH   8   9
HETATM    9  C   UNK N   1      35.211  12.584  13.529  0.00  0.00    -0.028 A 
HETATM   10  C   UNK N   1      36.057  13.468  14.219  0.00  0.00     0.011 A 
HETATM   11  C   UNK N   1      36.051  13.509  15.616  0.00  0.00     0.024 A 
HETATM   12  C   UNK N   1      35.200  12.667  16.334  0.00  0.00     0.034 A 
HETATM   13  C   UNK N   1      34.356  11.782  15.657  0.00  0.00     0.024 A 
HETATM   14 Cl   UNK N   1      35.188  12.726  18.085  0.00  0.00    -0.084 Cl
HETATM   15  C   UNK N   1      34.357  11.744  14.259  0.00  0.00     0.011 A 
ENDBRANCH   8   9
BRANCH   8  16
HETATM   16  O   UNK N   1      34.251  11.644  11.544  0.00  0.00    -0.389 OA
HETATM   17  H   UNK N   1      33.298  11.823  11.579  0.00  0.00     0.210 HD
ENDBRANCH   8  16
ENDBRANCH   7   8
ENDBRANCH   3   7
BRANCH   6  18
HETATM   18  C   UNK N   1      34.428  17.690   8.255  0.00  0.00     0.043 C 
BRANCH  18  19
HETATM   19  C   UNK N   1      33.339  17.532   7.233  0.00  0.00    -0.058 A 
HETATM   20  C   UNK N   1      31.986  17.419   7.591  0.00  0.00     0.010 A 
HETATM   21  C   UNK N   1      31.008  17.242   6.609  0.00  0.00     0.043 A 
HETATM   22  C   UNK N   1      31.375  17.177   5.261  0.00  0.00     0.116 A 
HETATM   23  C   UNK N   1      32.719  17.296   4.898  0.00  0.00     0.043 A 
HETATM   24  F   UNK N   1      30.429  16.997   4.310  0.00  0.00    -0.206 F 
HETATM   25  C   UNK N   1      33.697  17.471   5.880  0.00  0.00     0.010 A 
ENDBRANCH  18  19
ENDBRANCH   6  18
TORSDOF 6
ENDMDL
MODEL 3
REMARK VINA RESULT:      -6.9      4.614      9.108
REMARK  6 active torsions:
REMARK  status: ('A' for Active; 'I' for Inactive)
REMARK    1  A    between atoms: N_3  and  C_15 
REMARK    2  A    between atoms: C_6  and  C_7 
REMARK    3  A    between atoms: C_7  and  C_8 
REMARK    4  A    between atoms: C_15  and  C_16 
REMARK    5  A    between atoms: C_16  and  C_17 
REMARK    6  A    between atoms: C_16  and  O_24 
ROOT
HETATM    1  C   UNK N   1      31.985  16.366   5.996  0.00  0.00     0.035 C 
HETATM    2  C   UNK N   1      32.983  17.516   6.157  0.00  0.00     0.273 C 
HETATM    3  N   UNK N   1      33.345  17.766   7.564  0.00  0.00     0.091 N 
HETATM    4  C   UNK N   1      32.151  18.143   8.334  0.00  0.00     0.273 C 
HETATM    5  C   UNK N   1      31.089  17.036   8.354  0.00  0.00     0.035 C 
HETATM    6  C   UNK N   1      30.807  16.567   6.933  0.00  0.00    -0.007 C 
ENDROOT
BRANCH   3   7
HETATM    7  C   UNK N   1      33.991  16.600   8.171  0.00  0.00     0.308 C 
BRANCH   7   8
HETATM    8  C   UNK N   1      34.565  16.941   9.540  0.00  0.00     0.179 C 
BRANCH   8   9
HETATM    9  C   UNK N   1      35.337  15.792  10.136  0.00  0.00    -0.028 A 
HETATM   10  C   UNK N   1      35.481  15.672  11.529  0.00  0.00     0.011 A 
HETATM   11  C   UNK N   1      36.172  14.589  12.078  0.00  0.00     0.024 A 
HETATM   12  C   UNK N   1      36.725  13.618  11.243  0.00  0.00     0.034 A 
HETATM   13  C   UNK N   1      36.589  13.729   9.856  0.00  0.00     0.024 A 
HETATM   14 Cl   UNK N   1      37.583  12.257  11.934  0.00  0.00    -0.084 Cl
HETATM   15  C   UNK N   1      35.894  14.810   9.303  0.00  0.00     0.011 A 
ENDBRANCH   8   9
BRANCH   8  16
HETATM   16  O   UNK N   1      35.366  18.080   9.420  0.00  0.00    -0.389 OA
HETATM   17  H   UNK N   1      35.181  18.769   8.764  0.00  0.00     0.210 HD
ENDBRANCH   8  16
ENDBRANCH   7   8
ENDBRANCH   3   7
BRANCH   6  18
HETATM   18  C   UNK N   1      29.382  16.525   6.389  0.00  0.00     0.043 C 
BRANCH  18  19
HETATM   19  C   UNK N   1      28.758  17.863   6.111  0.00  0.00    -0.058 A 
HETATM   20  C   UNK N   1      28.692  18.405   4.817  0.00  0.00     0.010 A 
HETATM   21  C   UNK N   1      28.129  19.667   4.608  0.00  0.00     0.043 A 
HETATM   22  C   UNK N   1      27.629  20.397   5.691  0.00  0.00     0.116 A 
HETATM   23  C   UNK N   1      27.685  19.860   6.980  0.00  0.00     0.043 A 
HETATM   24  F   UNK N   1      27.092  21.623   5.490  0.00  0.00    -0.206 F 
HETATM   25  C   UNK N   1      28.249  18.599   7.189  0.00  0.00     0.010 A 
ENDBRANCH  18  19
ENDBRANCH   6  18
TORSDOF 6
ENDMDL
MODEL 4
REMARK VINA RESULT:      -6.9      1.873      2.540
REMARK  6 active torsions:
REMARK  status: ('A' for Active; 'I' for Inactive)
REMARK    1  A    between atoms: N_3  and  C_15 
REMARK    2  A    between atoms: C_6  and  C_7 
REMARK    3  A    between atoms: C_7  and  C_8 
REMARK    4  A    between atoms: C_15  and  C_16 
REMARK    5  A    between atoms: C_16  and  C_17 
REMARK    6  A    between atoms: C_16  and  O_24 
ROOT
HETATM    1  C   UNK N   1      35.549  14.558  12.731  0.00  0.00     0.035 C 
HETATM    2  C   UNK N   1      36.041  15.568  11.690  0.00  0.00     0.273 C 
HETATM    3  N   UNK N   1      36.183  14.982  10.346  0.00  0.00     0.091 N 
HETATM    4  C   UNK N   1      37.172  13.895  10.369  0.00  0.00     0.273 C 
HETATM    5  C   UNK N   1      36.763  12.745  11.299  0.00  0.00     0.035 C 
HETATM    6  C   UNK N   1      36.392  13.297  12.668  0.00  0.00    -0.007 C 
ENDROOT
BRANCH   3   7
HETATM    7  C   UNK N   1      34.901  14.488   9.835  0.00  0.00     0.308 C 
BRANCH   7   8
HETATM    8  C   UNK N   1      33.817  15.551   9.953  0.00  0.00     0.179 C 
BRANCH   8   9
HETATM    9  C   UNK N   1      33.399  16.091   8.609  0.00  0.00    -0.028 A 
HETATM   10  C   UNK N   1      34.140  17.110   7.986  0.00  0.00     0.011 A 
HETATM   11  C   UNK N   1      33.767  17.586   6.727  0.00  0.00     0.024 A 
HETATM   12  C   UNK N   1      32.652  17.051   6.080  0.00  0.00     0.034 A 
HETATM   13  C   UNK N   1      31.908  16.039   6.692  0.00  0.00     0.024 A 
HETATM   14 Cl   UNK N   1      32.192  17.645   4.498  0.00  0.00    -0.084 Cl
HETATM   15  C   UNK N   1      32.282  15.556   7.951  0.00  0.00     0.011 A 
ENDBRANCH   8   9
BRANCH   8  16
HETATM   16  O   UNK N   1      32.728  15.008  10.640  0.00  0.00    -0.389 OA
HETATM   17  H   UNK N   1      32.557  14.053  10.656  0.00  0.00     0.210 HD
ENDBRANCH   8  16
ENDBRANCH   7   8
ENDBRANCH   3   7
BRANCH   6  18
HETATM   18  C   UNK N   1      37.037  12.746  13.937  0.00  0.00     0.043 C 
BRANCH  18  19
HETATM   19  C   UNK N   1      36.497  13.296  15.226  0.00  0.00    -0.058 A 
HETATM   20  C   UNK N   1      37.028  14.448  15.831  0.00  0.00     0.010 A 
HETATM   21  C   UNK N   1      36.515  14.907  17.046  0.00  0.00     0.043 A 
HETATM   22  C   UNK N   1      35.467  14.220  17.667  0.00  0.00     0.116 A 
HETATM   23  C   UNK N   1      34.930  13.078  17.068  0.00  0.00     0.043 A 
HETATM   24  F   UNK N   1      34.976  14.660  18.850  0.00  0.00    -0.206 F 
HETATM   25  C   UNK N   1      35.444  12.617  15.852  0.00  0.00     0.010 A 
ENDBRANCH  18  19
ENDBRANCH   6  18
TORSDOF 6
ENDMDL
MODEL 5
REMARK VINA RESULT:      -6.9      1.937      2.814
REMARK  6 active torsions:
REMARK  status: ('A' for Active; 'I' for Inactive)
REMARK    1  A    between atoms: N_3  and  C_15 
REMARK    2  A    between atoms: C_6  and  C_7 
REMARK    3  A    between atoms: C_7  and  C_8 
REMARK    4  A    between atoms: C_15  and  C_16 
REMARK    5  A    between atoms: C_16  and  C_17 
REMARK    6  A    between atoms: C_16  and  O_24 
ROOT
HETATM    1  C   UNK N   1      36.762  13.643  12.588  0.00  0.00     0.035 C 
HETATM    2  C   UNK N   1      36.859  13.618  11.060  0.00  0.00     0.273 C 
HETATM    3  N   UNK N   1      35.545  13.493  10.406  0.00  0.00     0.091 N 
HETATM    4  C   UNK N   1      34.899  12.232  10.800  0.00  0.00     0.273 C 
HETATM    5  C   UNK N   1      34.637  12.153  12.310  0.00  0.00     0.035 C 
HETATM    6  C   UNK N   1      35.912  12.481  13.073  0.00  0.00    -0.007 C 
ENDROOT
BRANCH   3   7
HETATM    7  C   UNK N   1      34.674  14.628  10.722  0.00  0.00     0.308 C 
BRANCH   7   8
HETATM    8  C   UNK N   1      35.277  15.937  10.229  0.00  0.00     0.179 C 
BRANCH   8   9
HETATM    9  C   UNK N   1      34.732  16.344   8.884  0.00  0.00    -0.028 A 
HETATM   10  C   UNK N   1      34.113  17.593   8.711  0.00  0.00     0.011 A 
HETATM   11  C   UNK N   1      33.636  17.980   7.456  0.00  0.00     0.024 A 
HETATM   12  C   UNK N   1      33.774  17.122   6.363  0.00  0.00     0.034 A 
HETATM   13  C   UNK N   1      34.387  15.876   6.525  0.00  0.00     0.024 A 
HETATM   14 Cl   UNK N   1      33.183  17.612   4.789  0.00  0.00    -0.084 Cl
HETATM   15  C   UNK N   1      34.870  15.490   7.780  0.00  0.00     0.011 A 
ENDBRANCH   8   9
BRANCH   8  16
HETATM   16  O   UNK N   1      35.048  16.927  11.188  0.00  0.00    -0.389 OA
HETATM   17  H   UNK N   1      35.367  17.835  11.072  0.00  0.00     0.210 HD
ENDBRANCH   8  16
ENDBRANCH   7   8
ENDBRANCH   3   7
BRANCH   6  18
HETATM   18  C   UNK N   1      36.452  11.536  14.143  0.00  0.00     0.043 C 
BRANCH  18  19
HETATM   19  C   UNK N   1      36.041  11.855  15.552  0.00  0.00    -0.058 A 
HETATM   20  C   UNK N   1      36.128  10.911  16.590  0.00  0.00     0.010 A 
HETATM   21  C   UNK N   1      35.706  11.240  17.880  0.00  0.00     0.043 A 
HETATM   22  C   UNK N   1      35.193  12.514  18.144  0.00  0.00     0.116 A 
HETATM   23  C   UNK N   1      35.111  13.459  17.118  0.00  0.00     0.043 A 
HETATM   24  F   UNK N   1      34.776  12.831  19.393  0.00  0.00    -0.206 F 
HETATM   25  C   UNK N   1      35.532  13.130  15.827  0.00  0.00     0.010 A 
ENDBRANCH  18  19
ENDBRANCH   6  18
TORSDOF 6
ENDMDL
MODEL 6
REMARK VINA RESULT:      -6.9      2.004      3.240
REMARK  6 active torsions:
REMARK  status: ('A' for Active; 'I' for Inactive)
REMARK    1  A    between atoms: N_3  and  C_15 
REMARK    2  A    between atoms: C_6  and  C_7 
REMARK    3  A    between atoms: C_7  and  C_8 
REMARK    4  A    between atoms: C_15  and  C_16 
REMARK    5  A    between atoms: C_16  and  C_17 
REMARK    6  A    between atoms: C_16  and  O_24 
ROOT
HETATM    1  C   UNK N   1      36.776  13.303  13.596  0.00  0.00     0.035 C 
HETATM    2  C   UNK N   1      36.984  13.143  12.087  0.00  0.00     0.273 C 
HETATM    3  N   UNK N   1      35.716  13.032  11.345  0.00  0.00     0.091 N 
HETATM    4  C   UNK N   1      34.970  11.846  11.788  0.00  0.00     0.273 C 
HETATM    5  C   UNK N   1      34.593  11.908  13.274  0.00  0.00     0.035 C 
HETATM    6  C   UNK N   1      35.827  12.233  14.106  0.00  0.00    -0.007 C 
ENDROOT
BRANCH   3   7
HETATM    7  C   UNK N   1      34.892  14.234  11.500  0.00  0.00     0.308 C 
BRANCH   7   8
HETATM    8  C   UNK N   1      35.318  15.322  10.522  0.00  0.00     0.179 C 
BRANCH   8   9
HETATM    9  C   UNK N   1      34.163  15.830   9.698  0.00  0.00    -0.028 A 
HETATM   10  C   UNK N   1      33.007  15.050   9.527  0.00  0.00     0.011 A 
HETATM   11  C   UNK N   1      31.927  15.538   8.788  0.00  0.00     0.024 A 
HETATM   12  C   UNK N   1      31.992  16.808   8.212  0.00  0.00     0.034 A 
HETATM   13  C   UNK N   1      33.138  17.591   8.373  0.00  0.00     0.024 A 
HETATM   14 Cl   UNK N   1      30.634  17.420   7.292  0.00  0.00    -0.084 Cl
HETATM   15  C   UNK N   1      34.219  17.107   9.118  0.00  0.00     0.011 A 
ENDBRANCH   8   9
BRANCH   8  16
HETATM   16  O   UNK N   1      35.923  16.358  11.238  0.00  0.00    -0.389 OA
HETATM   17  H   UNK N   1      35.799  16.460  12.194  0.00  0.00     0.210 HD
ENDBRANCH   8  16
ENDBRANCH   7   8
ENDBRANCH   3   7
BRANCH   6  18
HETATM   18  C   UNK N   1      36.231  11.355  15.287  0.00  0.00     0.043 C 
BRANCH  18  19
HETATM   19  C   UNK N   1      35.799  11.852  16.637  0.00  0.00    -0.058 A 
HETATM   20  C   UNK N   1      35.448  13.193  16.865  0.00  0.00     0.010 A 
HETATM   21  C   UNK N   1      35.082  13.619  18.144  0.00  0.00     0.043 A 
HETATM   22  C   UNK N   1      35.064  12.709  19.206  0.00  0.00     0.116 A 
HETATM   23  C   UNK N   1      35.406  11.372  18.984  0.00  0.00     0.043 A 
HETATM   24  F   UNK N   1      34.718  13.124  20.447  0.00  0.00    -0.206 F 
HETATM   25  C   UNK N   1      35.773  10.946  17.705  0.00  0.00     0.010 A 
ENDBRANCH  18  19
ENDBRANCH   6  18
TORSDOF 6
ENDMDL
MODEL 7
REMARK VINA RESULT:      -6.8     16.106     19.924
REMARK  6 active torsions:
REMARK  status: ('A' for Active; 'I' for Inactive)
REMARK    1  A    between atoms: N_3  and  C_15 
REMARK    2  A    between atoms: C_6  and  C_7 
REMARK    3  A    between atoms: C_7  and  C_8 
REMARK    4  A    between atoms: C_15  and  C_16 
REMARK    5  A    between atoms: C_16  and  C_17 
REMARK    6  A    between atoms: C_16  and  O_24 
ROOT
HETATM    1  C   UNK N   1      29.478  25.417  -5.252  0.00  0.00     0.035 C 
HETATM    2  C   UNK N   1      29.762  25.256  -3.755  0.00  0.00     0.273 C 
HETATM    3  N   UNK N   1      29.177  24.026  -3.192  0.00  0.00     0.091 N 
HETATM    4  C   UNK N   1      27.714  24.048  -3.335  0.00  0.00     0.273 C 
HETATM    5  C   UNK N   1      27.268  24.102  -4.802  0.00  0.00     0.035 C 
HETATM    6  C   UNK N   1      27.994  25.231  -5.521  0.00  0.00    -0.007 C 
ENDROOT
BRANCH   3   7
HETATM    7  C   UNK N   1      29.730  22.827  -3.825  0.00  0.00     0.308 C 
BRANCH   7   8
HETATM    8  C   UNK N   1      30.701  22.112  -2.894  0.00  0.00     0.179 C 
BRANCH   8   9
HETATM    9  C   UNK N   1      32.055  21.914  -3.527  0.00  0.00    -0.028 A 
HETATM   10  C   UNK N   1      33.042  21.149  -2.882  0.00  0.00     0.011 A 
HETATM   11  C   UNK N   1      34.284  20.942  -3.485  0.00  0.00     0.024 A 
HETATM   12  C   UNK N   1      34.553  21.498  -4.737  0.00  0.00     0.034 A 
HETATM   13  C   UNK N   1      33.579  22.262  -5.387  0.00  0.00     0.024 A 
HETATM   14 Cl   UNK N   1      36.109  21.231  -5.496  0.00  0.00    -0.084 Cl
HETATM   15  C   UNK N   1      32.332  22.466  -4.786  0.00  0.00     0.011 A 
ENDBRANCH   8   9
BRANCH   8  16
HETATM   16  O   UNK N   1      30.801  22.839  -1.705  0.00  0.00    -0.389 OA
HETATM   17  H   UNK N   1      31.524  22.692  -1.075  0.00  0.00     0.210 HD
ENDBRANCH   8  16
ENDBRANCH   7   8
ENDBRANCH   3   7
BRANCH   6  18
HETATM   18  C   UNK N   1      27.222  26.290  -6.302  0.00  0.00     0.043 C 
BRANCH  18  19
HETATM   19  C   UNK N   1      26.977  27.580  -5.571  0.00  0.00    -0.058 A 
HETATM   20  C   UNK N   1      27.647  28.769  -5.904  0.00  0.00     0.010 A 
HETATM   21  C   UNK N   1      27.411  29.939  -5.179  0.00  0.00     0.043 A 
HETATM   22  C   UNK N   1      26.503  29.931  -4.115  0.00  0.00     0.116 A 
HETATM   23  C   UNK N   1      25.828  28.753  -3.783  0.00  0.00     0.043 A 
HETATM   24  F   UNK N   1      26.281  31.062  -3.406  0.00  0.00    -0.206 F 
HETATM   25  C   UNK N   1      26.065  27.582  -4.508  0.00  0.00     0.010 A 
ENDBRANCH  18  19
ENDBRANCH   6  18
TORSDOF 6
ENDMDL
MODEL 8
REMARK VINA RESULT:      -6.8     18.449     21.559
REMARK  6 active torsions:
REMARK  status: ('A' for Active; 'I' for Inactive)
REMARK    1  A    between atoms: N_3  and  C_15 
REMARK    2  A    between atoms: C_6  and  C_7 
REMARK    3  A    between atoms: C_7  and  C_8 
REMARK    4  A    between atoms: C_15  and  C_16 
REMARK    5  A    between atoms: C_16  and  C_17 
REMARK    6  A    between atoms: C_16  and  O_24 
ROOT
HETATM    1  C   UNK N   1      26.318  24.478  -5.742  0.00  0.00     0.035 C 
HETATM    2  C   UNK N   1      25.835  23.139  -6.306  0.00  0.00     0.273 C 
HETATM    3  N   UNK N   1      26.082  23.006  -7.753  0.00  0.00     0.091 N 
HETATM    4  C   UNK N   1      25.356  24.051  -8.489  0.00  0.00     0.273 C 
HETATM    5  C   UNK N   1      25.809  25.466  -8.104  0.00  0.00     0.035 C 
HETATM    6  C   UNK N   1      25.785  25.620  -6.590  0.00  0.00    -0.007 C 
ENDROOT
BRANCH   3   7
HETATM    7  C   UNK N   1      27.512  23.068  -8.064  0.00  0.00     0.308 C 
BRANCH   7   8
HETATM    8  C   UNK N   1      28.055  21.692  -8.426  0.00  0.00     0.179 C 
BRANCH   8   9
HETATM    9  C   UNK N   1      29.092  21.213  -7.442  0.00  0.00    -0.028 A 
HETATM   10  C   UNK N   1      29.888  20.091  -7.730  0.00  0.00     0.011 A 
HETATM   11  C   UNK N   1      30.868  19.669  -6.829  0.00  0.00     0.024 A 
HETATM   12  C   UNK N   1      31.062  20.362  -5.632  0.00  0.00     0.034 A 
HETATM   13  C   UNK N   1      30.274  21.477  -5.335  0.00  0.00     0.024 A 
HETATM   14 Cl   UNK N   1      32.296  19.834  -4.508  0.00  0.00    -0.084 Cl
HETATM   15  C   UNK N   1      29.295  21.906  -6.239  0.00  0.00     0.011 A 
ENDBRANCH   8   9
BRANCH   8  16
HETATM   16  O   UNK N   1      26.988  20.795  -8.512  0.00  0.00    -0.389 OA
HETATM   17  H   UNK N   1      26.993  20.051  -9.134  0.00  0.00     0.210 HD
ENDBRANCH   8  16
ENDBRANCH   7   8
ENDBRANCH   3   7
BRANCH   6  18
HETATM   18  C   UNK N   1      25.037  26.776  -5.931  0.00  0.00     0.043 C 
BRANCH  18  19
HETATM   19  C   UNK N   1      25.903  27.836  -5.311  0.00  0.00    -0.058 A 
HETATM   20  C   UNK N   1      25.649  28.357  -4.032  0.00  0.00     0.010 A 
HETATM   21  C   UNK N   1      26.462  29.364  -3.506  0.00  0.00     0.043 A 
HETATM   22  C   UNK N   1      27.535  29.858  -4.255  0.00  0.00     0.116 A 
HETATM   23  C   UNK N   1      27.796  29.339  -5.526  0.00  0.00     0.043 A 
HETATM   24  F   UNK N   1      28.318  30.840  -3.750  0.00  0.00    -0.206 F 
HETATM   25  C   UNK N   1      26.983  28.332  -6.052  0.00  0.00     0.010 A 
ENDBRANCH  18  19
ENDBRANCH   6  18
TORSDOF 6
ENDMDL
MODEL 9
REMARK VINA RESULT:      -6.7     11.021     13.027
REMARK  6 active torsions:
REMARK  status: ('A' for Active; 'I' for Inactive)
REMARK    1  A    between atoms: N_3  and  C_15 
REMARK    2  A    between atoms: C_6  and  C_7 
REMARK    3  A    between atoms: C_7  and  C_8 
REMARK    4  A    between atoms: C_15  and  C_16 
REMARK    5  A    between atoms: C_16  and  C_17 
REMARK    6  A    between atoms: C_16  and  O_24 
ROOT
HETATM    1  C   UNK N   1      20.753  14.249   6.683  0.00  0.00     0.035 C 
HETATM    2  C   UNK N   1      19.759  15.086   5.872  0.00  0.00     0.273 C 
HETATM    3  N   UNK N   1      19.950  16.535   6.054  0.00  0.00     0.091 N 
HETATM    4  C   UNK N   1      19.746  16.901   7.463  0.00  0.00     0.273 C 
HETATM    5  C   UNK N   1      20.748  16.215   8.400  0.00  0.00     0.035 C 
HETATM    6  C   UNK N   1      20.767  14.717   8.128  0.00  0.00    -0.007 C 
ENDROOT
BRANCH   3   7
HETATM    7  C   UNK N   1      21.277  16.965   5.607  0.00  0.00     0.308 C 
BRANCH   7   8
HETATM    8  C   UNK N   1      21.175  17.948   4.448  0.00  0.00     0.179 C 
BRANCH   8   9
HETATM    9  C   UNK N   1      22.487  18.634   4.165  0.00  0.00    -0.028 A 
HETATM   10  C   UNK N   1      23.676  18.178   4.759  0.00  0.00     0.011 A 
HETATM   11  C   UNK N   1      24.894  18.798   4.471  0.00  0.00     0.024 A 
HETATM   12  C   UNK N   1      24.936  19.878   3.588  0.00  0.00     0.034 A 
HETATM   13  C   UNK N   1      23.759  20.341   2.993  0.00  0.00     0.024 A 
HETATM   14 Cl   UNK N   1      26.466  20.648   3.222  0.00  0.00    -0.084 Cl
HETATM   15  C   UNK N   1      22.538  19.718   3.276  0.00  0.00     0.011 A 
ENDBRANCH   8   9
BRANCH   8  16
HETATM   16  O   UNK N   1      20.708  17.267   3.321  0.00  0.00    -0.389 OA
HETATM   17  H   UNK N   1      21.198  16.526   2.931  0.00  0.00     0.210 HD
ENDBRANCH   8  16
ENDBRANCH   7   8
ENDBRANCH   3   7
BRANCH   6  18
HETATM   18  C   UNK N   1      20.567  13.711   9.258  0.00  0.00     0.043 C 
BRANCH  18  19
HETATM   19  C   UNK N   1      21.826  13.184   9.883  0.00  0.00    -0.058 A 
HETATM   20  C   UNK N   1      23.090  13.376   9.301  0.00  0.00     0.010 A 
HETATM   21  C   UNK N   1      24.233  12.842   9.901  0.00  0.00     0.043 A 
HETATM   22  C   UNK N   1      24.122  12.111  11.088  0.00  0.00     0.116 A 
HETATM   23  C   UNK N   1      22.869  11.922  11.676  0.00  0.00     0.043 A 
HETATM   24  F   UNK N   1      25.228  11.586  11.665  0.00  0.00    -0.206 F 
HETATM   25  C   UNK N   1      21.726  12.456  11.075  0.00  0.00     0.010 A 
ENDBRANCH  18  19
ENDBRANCH   6  18
TORSDOF 6
ENDMDL
