MODEL 1
REMARK VINA RESULT:      -6.2      0.000      0.000
REMARK  11 active torsions:
REMARK  status: ('A' for Active; 'I' for Inactive)
REMARK    1  A    between atoms: O_2  and  C_3 
REMARK    2  A    between atoms: C_6  and  C_16 
REMARK    3  A    between atoms: C_8  and  N_9 
REMARK       I    between atoms: N_9  and  C_10 
REMARK    4  A    between atoms: C_10  and  C_12 
REMARK    5  A    between atoms: C_12  and  C_13 
REMARK    6  A    between atoms: C_12  and  N_15 
REMARK    7  A    between atoms: C_13  and  O_14 
REMARK    8  A    between atoms: C_17  and  C_18 
REMARK    9  A    between atoms: C_20  and  O_28 
REMARK   10  A    between atoms: C_21  and  O_26 
REMARK   11  A    between atoms: C_22  and  O_24 
ROOT
HETATM    1  C   UNK N   1      34.529  13.594   9.690  0.00  0.00     0.095 C 
HETATM    2  C   UNK N   1      34.756  13.989   8.368  0.00  0.00     0.040 C 
HETATM    3  C   UNK N   1      34.954  15.328   8.068  0.00  0.00     0.014 C 
HETATM    4  C   UNK N   1      34.853  16.314   9.059  0.00  0.00    -0.034 C 
HETATM    5  C   UNK N   1      34.732  15.917  10.394  0.00  0.00     0.043 C 
HETATM    6  C   UNK N   1      34.591  14.553  10.710  0.00  0.00     0.069 C 
ENDROOT
BRANCH   4   7
HETATM    7  C   UNK N   1      34.779  17.756   8.702  0.00  0.00     0.012 C 
HETATM    8  C   UNK N   1      33.822  18.309   7.911  0.00  0.00     0.012 C 
BRANCH   8   9
HETATM    9  C   UNK N   1      32.592  17.609   7.452  0.00  0.00    -0.031 A 
HETATM   10  C   UNK N   1      31.452  17.652   8.244  0.00  0.00     0.051 A 
HETATM   11  C   UNK N   1      30.223  17.181   7.769  0.00  0.00     0.105 A 
HETATM   12  C   UNK N   1      30.121  16.683   6.434  0.00  0.00     0.135 A 
HETATM   13  C   UNK N   1      31.301  16.626   5.635  0.00  0.00     0.105 A 
HETATM   14  C   UNK N   1      32.513  17.043   6.176  0.00  0.00     0.051 A 
BRANCH  11  15
HETATM   15  O   UNK N   1      29.171  17.243   8.626  0.00  0.00    -0.353 OA
HETATM   16  C   UNK N   1      29.063  18.085   9.708  0.00  0.00     0.210 C 
ENDBRANCH  11  15
BRANCH  12  17
HETATM   17  O   UNK N   1      28.903  16.280   5.980  0.00  0.00    -0.351 OA
HETATM   18  C   UNK N   1      27.991  17.040   5.289  0.00  0.00     0.210 C 
ENDBRANCH  12  17
BRANCH  13  19
HETATM   19  O   UNK N   1      31.304  16.240   4.340  0.00  0.00    -0.353 OA
HETATM   20  C   UNK N   1      31.966  16.967   3.375  0.00  0.00     0.210 C 
ENDBRANCH  13  19
ENDBRANCH   8   9
ENDBRANCH   4   7
BRANCH   6  21
HETATM   21  N   UNK N   1      34.532  14.098  12.053  0.00  0.00    -0.323 N 
HETATM   22  C   UNK N   1      35.625  13.800  12.803  0.00  0.00     0.246 C 
HETATM   23  O   UNK N   1      36.751  13.942  12.355  0.00  0.00    -0.271 OA
HETATM   24  H   UNK N   1      33.646  13.991  12.465  0.00  0.00     0.169 HD
BRANCH  22  25
HETATM   25  C   UNK N   1      35.450  13.156  14.154  0.00  0.00     0.191 C 
BRANCH  25  26
HETATM   26  C   UNK N   1      36.764  12.754  14.817  0.00  0.00     0.198 C 
BRANCH  26  27
HETATM   27  O   UNK N   1      37.494  13.886  15.190  0.00  0.00    -0.398 OA
HETATM   28  H   UNK N   1      38.211  14.163  15.783  0.00  0.00     0.209 HD
ENDBRANCH  26  27
ENDBRANCH  25  26
BRANCH  25  29
HETATM   29  N   UNK N   1      34.586  11.996  14.044  0.00  0.00    -0.417 N 
HETATM   30  H   UNK N   1      33.593  11.768  14.092  0.00  0.00     0.150 HD
HETATM   31  H   UNK N   1      35.136  11.156  13.865  0.00  0.00     0.150 HD
ENDBRANCH  25  29
ENDBRANCH  22  25
ENDBRANCH   6  21
BRANCH   1  32
HETATM   32  O   UNK N   1      34.282  12.301   9.999  0.00  0.00    -0.354 OA
HETATM   33  C   UNK N   1      35.224  11.303   9.873  0.00  0.00     0.210 C 
ENDBRANCH   1  32
TORSDOF 11
ENDMDL
MODEL 2
REMARK VINA RESULT:      -6.2      8.042     12.875
REMARK  11 active torsions:
REMARK  status: ('A' for Active; 'I' for Inactive)
REMARK    1  A    between atoms: O_2  and  C_3 
REMARK    2  A    between atoms: C_6  and  C_16 
REMARK    3  A    between atoms: C_8  and  N_9 
REMARK       I    between atoms: N_9  and  C_10 
REMARK    4  A    between atoms: C_10  and  C_12 
REMARK    5  A    between atoms: C_12  and  C_13 
REMARK    6  A    between atoms: C_12  and  N_15 
REMARK    7  A    between atoms: C_13  and  O_14 
REMARK    8  A    between atoms: C_17  and  C_18 
REMARK    9  A    between atoms: C_20  and  O_28 
REMARK   10  A    between atoms: C_21  and  O_26 
REMARK   11  A    between atoms: C_22  and  O_24 
ROOT
HETATM    1  C   UNK N   1      21.971  16.543   5.685  0.00  0.00     0.095 C 
HETATM    2  C   UNK N   1      22.841  15.865   6.545  0.00  0.00     0.040 C 
HETATM    3  C   UNK N   1      24.105  15.502   6.107  0.00  0.00     0.014 C 
HETATM    4  C   UNK N   1      24.507  15.731   4.784  0.00  0.00    -0.034 C 
HETATM    5  C   UNK N   1      23.685  16.499   3.955  0.00  0.00     0.043 C 
HETATM    6  C   UNK N   1      22.424  16.923   4.414  0.00  0.00     0.069 C 
ENDROOT
BRANCH   4   7
HETATM    7  C   UNK N   1      25.734  15.095   4.234  0.00  0.00     0.012 C 
HETATM    8  C   UNK N   1      26.920  15.732   4.049  0.00  0.00     0.012 C 
BRANCH   8   9
HETATM    9  C   UNK N   1      27.239  17.094   4.557  0.00  0.00    -0.031 A 
HETATM   10  C   UNK N   1      26.888  18.201   3.796  0.00  0.00     0.051 A 
HETATM   11  C   UNK N   1      26.987  19.497   4.315  0.00  0.00     0.105 A 
HETATM   12  C   UNK N   1      27.416  19.691   5.663  0.00  0.00     0.135 A 
HETATM   13  C   UNK N   1      27.792  18.549   6.431  0.00  0.00     0.105 A 
HETATM   14  C   UNK N   1      27.741  17.287   5.848  0.00  0.00     0.051 A 
BRANCH  11  15
HETATM   15  O   UNK N   1      26.643  20.517   3.486  0.00  0.00    -0.353 OA
HETATM   16  C   UNK N   1      25.560  20.535   2.639  0.00  0.00     0.210 C 
ENDBRANCH  11  15
BRANCH  12  17
HETATM   17  O   UNK N   1      27.454  20.958   6.160  0.00  0.00    -0.351 OA
HETATM   18  C   UNK N   1      26.438  21.615   6.812  0.00  0.00     0.210 C 
ENDBRANCH  12  17
BRANCH  13  19
HETATM   19  O   UNK N   1      28.144  18.613   7.735  0.00  0.00    -0.353 OA
HETATM   20  C   UNK N   1      28.194  17.482   8.521  0.00  0.00     0.210 C 
ENDBRANCH  13  19
ENDBRANCH   8   9
ENDBRANCH   4   7
BRANCH   6  21
HETATM   21  N   UNK N   1      21.585  17.760   3.634  0.00  0.00    -0.323 N 
HETATM   22  C   UNK N   1      20.750  17.307   2.662  0.00  0.00     0.246 C 
HETATM   23  O   UNK N   1      20.656  16.114   2.424  0.00  0.00    -0.271 OA
HETATM   24  H   UNK N   1      21.610  18.728   3.807  0.00  0.00     0.169 HD
BRANCH  22  25
HETATM   25  C   UNK N   1      20.036  18.291   1.773  0.00  0.00     0.191 C 
BRANCH  25  26
HETATM   26  C   UNK N   1      20.794  19.601   1.577  0.00  0.00     0.198 C 
BRANCH  26  27
HETATM   27  O   UNK N   1      20.734  20.011   0.243  0.00  0.00    -0.398 OA
HETATM   28  H   UNK N   1      20.104  20.123  -0.487  0.00  0.00     0.209 HD
ENDBRANCH  26  27
ENDBRANCH  25  26
BRANCH  25  29
HETATM   29  N   UNK N   1      18.713  18.569   2.300  0.00  0.00    -0.417 N 
HETATM   30  H   UNK N   1      17.950  18.076   2.764  0.00  0.00     0.150 HD
HETATM   31  H   UNK N   1      18.474  19.552   2.167  0.00  0.00     0.150 HD
ENDBRANCH  25  29
ENDBRANCH  22  25
ENDBRANCH   6  21
BRANCH   1  32
HETATM   32  O   UNK N   1      20.715  16.862   6.073  0.00  0.00    -0.354 OA
HETATM   33  C   UNK N   1      20.114  16.329   7.192  0.00  0.00     0.210 C 
ENDBRANCH   1  32
TORSDOF 11
ENDMDL
MODEL 3
REMARK VINA RESULT:      -6.1      2.993      5.823
REMARK  11 active torsions:
REMARK  status: ('A' for Active; 'I' for Inactive)
REMARK    1  A    between atoms: O_2  and  C_3 
REMARK    2  A    between atoms: C_6  and  C_16 
REMARK    3  A    between atoms: C_8  and  N_9 
REMARK       I    between atoms: N_9  and  C_10 
REMARK    4  A    between atoms: C_10  and  C_12 
REMARK    5  A    between atoms: C_12  and  C_13 
REMARK    6  A    between atoms: C_12  and  N_15 
REMARK    7  A    between atoms: C_13  and  O_14 
REMARK    8  A    between atoms: C_17  and  C_18 
REMARK    9  A    between atoms: C_20  and  O_28 
REMARK   10  A    between atoms: C_21  and  O_26 
REMARK   11  A    between atoms: C_22  and  O_24 
ROOT
HETATM    1  C   UNK N   1      30.972  17.007   8.041  0.00  0.00     0.095 C 
HETATM    2  C   UNK N   1      30.034  16.911   7.009  0.00  0.00     0.040 C 
HETATM    3  C   UNK N   1      30.439  17.027   5.690  0.00  0.00     0.014 C 
HETATM    4  C   UNK N   1      31.771  17.319   5.365  0.00  0.00    -0.034 C 
HETATM    5  C   UNK N   1      32.729  17.312   6.383  0.00  0.00     0.043 C 
HETATM    6  C   UNK N   1      32.331  17.134   7.720  0.00  0.00     0.069 C 
ENDROOT
BRANCH   4   7
HETATM    7  C   UNK N   1      32.154  17.726   3.985  0.00  0.00     0.012 C 
HETATM    8  C   UNK N   1      32.679  16.891   3.050  0.00  0.00     0.012 C 
BRANCH   8   9
HETATM    9  C   UNK N   1      32.759  15.412   3.183  0.00  0.00    -0.031 A 
HETATM   10  C   UNK N   1      33.944  14.833   3.617  0.00  0.00     0.051 A 
HETATM   11  C   UNK N   1      34.009  13.474   3.945  0.00  0.00     0.105 A 
HETATM   12  C   UNK N   1      32.831  12.670   3.875  0.00  0.00     0.135 A 
HETATM   13  C   UNK N   1      31.622  13.269   3.410  0.00  0.00     0.105 A 
HETATM   14  C   UNK N   1      31.625  14.607   3.031  0.00  0.00     0.051 A 
BRANCH  11  15
HETATM   15  O   UNK N   1      35.218  12.995   4.337  0.00  0.00    -0.353 OA
HETATM   16  C   UNK N   1      35.831  13.246   5.542  0.00  0.00     0.210 C 
ENDBRANCH  11  15
BRANCH  12  17
HETATM   17  O   UNK N   1      32.909  11.363   4.249  0.00  0.00    -0.351 OA
HETATM   18  C   UNK N   1      32.650  10.850   5.497  0.00  0.00     0.210 C 
ENDBRANCH  12  17
BRANCH  13  19
HETATM   19  O   UNK N   1      30.437  12.619   3.372  0.00  0.00    -0.353 OA
HETATM   20  C   UNK N   1      30.012  11.969   2.233  0.00  0.00     0.210 C 
ENDBRANCH  13  19
ENDBRANCH   8   9
ENDBRANCH   4   7
BRANCH   6  21
HETATM   21  N   UNK N   1      33.273  17.052   8.778  0.00  0.00    -0.323 N 
HETATM   22  C   UNK N   1      34.154  16.029   8.933  0.00  0.00     0.246 C 
HETATM   23  O   UNK N   1      34.201  15.114   8.128  0.00  0.00    -0.271 OA
HETATM   24  H   UNK N   1      33.289  17.780   9.439  0.00  0.00     0.169 HD
BRANCH  22  25
HETATM   25  C   UNK N   1      34.988  15.948  10.185  0.00  0.00     0.191 C 
BRANCH  25  26
HETATM   26  C   UNK N   1      34.414  15.010  11.244  0.00  0.00     0.198 C 
BRANCH  26  27
HETATM   27  O   UNK N   1      33.034  14.869  11.081  0.00  0.00    -0.398 OA
HETATM   28  H   UNK N   1      32.222  15.396  11.011  0.00  0.00     0.209 HD
ENDBRANCH  26  27
ENDBRANCH  25  26
BRANCH  25  29
HETATM   29  N   UNK N   1      35.165  17.271  10.753  0.00  0.00    -0.417 N 
HETATM   30  H   UNK N   1      35.880  17.997  10.804  0.00  0.00     0.150 HD
HETATM   31  H   UNK N   1      34.323  17.563  11.249  0.00  0.00     0.150 HD
ENDBRANCH  25  29
ENDBRANCH  22  25
ENDBRANCH   6  21
BRANCH   1  32
HETATM   32  O   UNK N   1      30.592  16.948   9.338  0.00  0.00    -0.354 OA
HETATM   33  C   UNK N   1      29.355  17.365   9.780  0.00  0.00     0.210 C 
ENDBRANCH   1  32
TORSDOF 11
ENDMDL
MODEL 4
REMARK VINA RESULT:      -6.0      5.424      8.744
REMARK  11 active torsions:
REMARK  status: ('A' for Active; 'I' for Inactive)
REMARK    1  A    between atoms: O_2  and  C_3 
REMARK    2  A    between atoms: C_6  and  C_16 
REMARK    3  A    between atoms: C_8  and  N_9 
REMARK       I    between atoms: N_9  and  C_10 
REMARK    4  A    between atoms: C_10  and  C_12 
REMARK    5  A    between atoms: C_12  and  C_13 
REMARK    6  A    between atoms: C_12  and  N_15 
REMARK    7  A    between atoms: C_13  and  O_14 
REMARK    8  A    between atoms: C_17  and  C_18 
REMARK    9  A    between atoms: C_20  and  O_28 
REMARK   10  A    between atoms: C_21  and  O_26 
REMARK   11  A    between atoms: C_22  and  O_24 
ROOT
HETATM    1  C   UNK N   1      28.737  18.154   7.491  0.00  0.00     0.095 C 
HETATM    2  C   UNK N   1      27.870  19.249   7.565  0.00  0.00     0.040 C 
HETATM    3  C   UNK N   1      27.405  19.846   6.405  0.00  0.00     0.014 C 
HETATM    4  C   UNK N   1      27.850  19.423   5.145  0.00  0.00    -0.034 C 
HETATM    5  C   UNK N   1      28.631  18.267   5.060  0.00  0.00     0.043 C 
HETATM    6  C   UNK N   1      29.057  17.620   6.235  0.00  0.00     0.069 C 
ENDROOT
BRANCH   4   7
HETATM    7  C   UNK N   1      27.585  20.233   3.925  0.00  0.00     0.012 C 
HETATM    8  C   UNK N   1      26.449  20.165   3.183  0.00  0.00     0.012 C 
BRANCH   8   9
HETATM    9  C   UNK N   1      25.217  19.432   3.583  0.00  0.00    -0.031 A 
HETATM   10  C   UNK N   1      23.987  20.068   3.482  0.00  0.00     0.051 A 
HETATM   11  C   UNK N   1      22.791  19.363   3.657  0.00  0.00     0.105 A 
HETATM   12  C   UNK N   1      22.825  17.957   3.903  0.00  0.00     0.135 A 
HETATM   13  C   UNK N   1      24.094  17.316   4.024  0.00  0.00     0.105 A 
HETATM   14  C   UNK N   1      25.255  18.073   3.910  0.00  0.00     0.051 A 
BRANCH  11  15
HETATM   15  O   UNK N   1      21.639  20.077   3.563  0.00  0.00    -0.353 OA
HETATM   16  C   UNK N   1      20.992  20.410   2.396  0.00  0.00     0.210 C 
ENDBRANCH  11  15
BRANCH  12  17
HETATM   17  O   UNK N   1      21.646  17.285   4.018  0.00  0.00    -0.351 OA
HETATM   18  C   UNK N   1      20.975  16.629   3.015  0.00  0.00     0.210 C 
ENDBRANCH  12  17
BRANCH  13  19
HETATM   19  O   UNK N   1      24.240  15.982   4.186  0.00  0.00    -0.353 OA
HETATM   20  C   UNK N   1      24.288  15.412   5.441  0.00  0.00     0.210 C 
ENDBRANCH  13  19
ENDBRANCH   8   9
ENDBRANCH   4   7
BRANCH   6  21
HETATM   21  N   UNK N   1      29.793  16.407   6.197  0.00  0.00    -0.323 N 
HETATM   22  C   UNK N   1      31.141  16.341   6.043  0.00  0.00     0.246 C 
HETATM   23  O   UNK N   1      31.813  17.355   5.954  0.00  0.00    -0.271 OA
HETATM   24  H   UNK N   1      29.296  15.563   6.290  0.00  0.00     0.169 HD
BRANCH  22  25
HETATM   25  C   UNK N   1      31.803  15.003   5.838  0.00  0.00     0.191 C 
BRANCH  25  26
HETATM   26  C   UNK N   1      31.113  14.132   4.792  0.00  0.00     0.198 C 
BRANCH  26  27
HETATM   27  O   UNK N   1      29.921  13.606   5.298  0.00  0.00    -0.398 OA
HETATM   28  H   UNK N   1      29.447  12.765   5.399  0.00  0.00     0.209 HD
ENDBRANCH  26  27
ENDBRANCH  25  26
BRANCH  25  29
HETATM   29  N   UNK N   1      31.876  14.286   7.097  0.00  0.00    -0.417 N 
HETATM   30  H   UNK N   1      31.617  13.377   7.482  0.00  0.00     0.150 HD
HETATM   31  H   UNK N   1      32.319  14.862   7.812  0.00  0.00     0.150 HD
ENDBRANCH  25  29
ENDBRANCH  22  25
ENDBRANCH   6  21
BRANCH   1  32
HETATM   32  O   UNK N   1      29.244  17.587   8.609  0.00  0.00    -0.354 OA
HETATM   33  C   UNK N   1      29.438  18.281   9.784  0.00  0.00     0.210 C 
ENDBRANCH   1  32
TORSDOF 11
ENDMDL
MODEL 5
REMARK VINA RESULT:      -5.9      3.342      6.053
REMARK  11 active torsions:
REMARK  status: ('A' for Active; 'I' for Inactive)
REMARK    1  A    between atoms: O_2  and  C_3 
REMARK    2  A    between atoms: C_6  and  C_16 
REMARK    3  A    between atoms: C_8  and  N_9 
REMARK       I    between atoms: N_9  and  C_10 
REMARK    4  A    between atoms: C_10  and  C_12 
REMARK    5  A    between atoms: C_12  and  C_13 
REMARK    6  A    between atoms: C_12  and  N_15 
REMARK    7  A    between atoms: C_13  and  O_14 
REMARK    8  A    between atoms: C_17  and  C_18 
REMARK    9  A    between atoms: C_20  and  O_28 
REMARK   10  A    between atoms: C_21  and  O_26 
REMARK   11  A    between atoms: C_22  and  O_24 
ROOT
HETATM    1  C   UNK N   1      31.244  17.264   7.848  0.00  0.00     0.095 C 
HETATM    2  C   UNK N   1      30.287  17.179   6.833  0.00  0.00     0.040 C 
HETATM    3  C   UNK N   1      30.683  17.160   5.506  0.00  0.00     0.014 C 
HETATM    4  C   UNK N   1      32.031  17.304   5.150  0.00  0.00    -0.034 C 
HETATM    5  C   UNK N   1      32.999  17.283   6.159  0.00  0.00     0.043 C 
HETATM    6  C   UNK N   1      32.604  17.241   7.509  0.00  0.00     0.069 C 
ENDROOT
BRANCH   4   7
HETATM    7  C   UNK N   1      32.429  17.570   3.742  0.00  0.00     0.012 C 
HETATM    8  C   UNK N   1      32.928  16.638   2.889  0.00  0.00     0.012 C 
BRANCH   8   9
HETATM    9  C   UNK N   1      32.957  15.174   3.155  0.00  0.00    -0.031 A 
HETATM   10  C   UNK N   1      31.811  14.422   2.938  0.00  0.00     0.051 A 
HETATM   11  C   UNK N   1      31.842  13.024   2.984  0.00  0.00     0.105 A 
HETATM   12  C   UNK N   1      33.079  12.349   3.218  0.00  0.00     0.135 A 
HETATM   13  C   UNK N   1      34.248  13.131   3.459  0.00  0.00     0.105 A 
HETATM   14  C   UNK N   1      34.151  14.518   3.470  0.00  0.00     0.051 A 
BRANCH  11  15
HETATM   15  O   UNK N   1      30.665  12.377   2.782  0.00  0.00    -0.353 OA
HETATM   16  C   UNK N   1      30.136  12.032   1.560  0.00  0.00     0.210 C 
ENDBRANCH  11  15
BRANCH  12  17
HETATM   17  O   UNK N   1      33.092  10.988   3.206  0.00  0.00    -0.351 OA
HETATM   18  C   UNK N   1      32.955  10.157   4.292  0.00  0.00     0.210 C 
ENDBRANCH  12  17
BRANCH  13  19
HETATM   19  O   UNK N   1      35.479  12.596   3.622  0.00  0.00    -0.353 OA
HETATM   20  C   UNK N   1      36.596  13.185   3.069  0.00  0.00     0.210 C 
ENDBRANCH  13  19
ENDBRANCH   8   9
ENDBRANCH   4   7
BRANCH   6  21
HETATM   21  N   UNK N   1      33.550  17.151   8.563  0.00  0.00    -0.323 N 
HETATM   22  C   UNK N   1      34.209  16.010   8.897  0.00  0.00     0.246 C 
HETATM   23  O   UNK N   1      34.038  14.980   8.267  0.00  0.00    -0.271 OA
HETATM   24  H   UNK N   1      33.739  17.963   9.084  0.00  0.00     0.169 HD
BRANCH  22  25
HETATM   25  C   UNK N   1      35.057  15.977  10.142  0.00  0.00     0.191 C 
BRANCH  25  26
HETATM   26  C   UNK N   1      34.503  15.067  11.236  0.00  0.00     0.198 C 
BRANCH  26  27
HETATM   27  O   UNK N   1      33.117  14.938  11.114  0.00  0.00    -0.398 OA
HETATM   28  H   UNK N   1      32.338  14.639  11.609  0.00  0.00     0.209 HD
ENDBRANCH  26  27
ENDBRANCH  25  26
BRANCH  25  29
HETATM   29  N   UNK N   1      35.227  17.319  10.665  0.00  0.00    -0.417 N 
HETATM   30  H   UNK N   1      35.370  18.268  10.319  0.00  0.00     0.150 HD
HETATM   31  H   UNK N   1      35.193  17.312  11.685  0.00  0.00     0.150 HD
ENDBRANCH  25  29
ENDBRANCH  22  25
ENDBRANCH   6  21
BRANCH   1  32
HETATM   32  O   UNK N   1      30.879  17.336   9.149  0.00  0.00    -0.354 OA
HETATM   33  C   UNK N   1      29.583  17.569   9.555  0.00  0.00     0.210 C 
ENDBRANCH   1  32
TORSDOF 11
ENDMDL
MODEL 6
REMARK VINA RESULT:      -5.9      5.363      8.493
REMARK  11 active torsions:
REMARK  status: ('A' for Active; 'I' for Inactive)
REMARK    1  A    between atoms: O_2  and  C_3 
REMARK    2  A    between atoms: C_6  and  C_16 
REMARK    3  A    between atoms: C_8  and  N_9 
REMARK       I    between atoms: N_9  and  C_10 
REMARK    4  A    between atoms: C_10  and  C_12 
REMARK    5  A    between atoms: C_12  and  C_13 
REMARK    6  A    between atoms: C_12  and  N_15 
REMARK    7  A    between atoms: C_13  and  O_14 
REMARK    8  A    between atoms: C_17  and  C_18 
REMARK    9  A    between atoms: C_20  and  O_28 
REMARK   10  A    between atoms: C_21  and  O_26 
REMARK   11  A    between atoms: C_22  and  O_24 
ROOT
HETATM    1  C   UNK N   1      29.127  18.021   7.671  0.00  0.00     0.095 C 
HETATM    2  C   UNK N   1      28.222  19.068   7.864  0.00  0.00     0.040 C 
HETATM    3  C   UNK N   1      27.605  19.662   6.775  0.00  0.00     0.014 C 
HETATM    4  C   UNK N   1      27.929  19.285   5.465  0.00  0.00    -0.034 C 
HETATM    5  C   UNK N   1      28.752  18.172   5.269  0.00  0.00     0.043 C 
HETATM    6  C   UNK N   1      29.334  17.526   6.375  0.00  0.00     0.069 C 
ENDROOT
BRANCH   4   7
HETATM    7  C   UNK N   1      27.493  20.102   4.300  0.00  0.00     0.012 C 
HETATM    8  C   UNK N   1      26.470  19.779   3.467  0.00  0.00     0.012 C 
BRANCH   8   9
HETATM    9  C   UNK N   1      25.498  18.677   3.706  0.00  0.00    -0.031 A 
HETATM   10  C   UNK N   1      25.805  17.395   3.271  0.00  0.00     0.051 A 
HETATM   11  C   UNK N   1      25.022  16.297   3.642  0.00  0.00     0.105 A 
HETATM   12  C   UNK N   1      23.909  16.482   4.517  0.00  0.00     0.135 A 
HETATM   13  C   UNK N   1      23.590  17.806   4.945  0.00  0.00     0.105 A 
HETATM   14  C   UNK N   1      24.359  18.873   4.493  0.00  0.00     0.051 A 
BRANCH  11  15
HETATM   15  O   UNK N   1      25.389  15.087   3.146  0.00  0.00    -0.353 OA
HETATM   16  C   UNK N   1      25.120  14.621   1.880  0.00  0.00     0.210 C 
ENDBRANCH  11  15
BRANCH  12  17
HETATM   17  O   UNK N   1      23.194  15.390   4.905  0.00  0.00    -0.351 OA
HETATM   18  C   UNK N   1      23.366  14.664   6.058  0.00  0.00     0.210 C 
ENDBRANCH  12  17
BRANCH  13  19
HETATM   19  O   UNK N   1      22.604  18.085   5.826  0.00  0.00    -0.353 OA
HETATM   20  C   UNK N   1      21.361  18.507   5.404  0.00  0.00     0.210 C 
ENDBRANCH  13  19
ENDBRANCH   8   9
ENDBRANCH   4   7
BRANCH   6  21
HETATM   21  N   UNK N   1      30.120  16.354   6.230  0.00  0.00    -0.323 N 
HETATM   22  C   UNK N   1      31.440  16.358   5.907  0.00  0.00     0.246 C 
HETATM   23  O   UNK N   1      32.043  17.406   5.748  0.00  0.00    -0.271 OA
HETATM   24  H   UNK N   1      29.681  15.485   6.373  0.00  0.00     0.169 HD
BRANCH  22  25
HETATM   25  C   UNK N   1      32.137  15.057   5.604  0.00  0.00     0.191 C 
BRANCH  25  26
HETATM   26  C   UNK N   1      32.036  14.635   4.141  0.00  0.00     0.198 C 
BRANCH  26  27
HETATM   27  O   UNK N   1      31.305  15.572   3.406  0.00  0.00    -0.398 OA
HETATM   28  H   UNK N   1      30.719  16.337   3.525  0.00  0.00     0.209 HD
ENDBRANCH  26  27
ENDBRANCH  25  26
BRANCH  25  29
HETATM   29  N   UNK N   1      31.614  14.003   6.452  0.00  0.00    -0.417 N 
HETATM   30  H   UNK N   1      30.870  13.305   6.443  0.00  0.00     0.150 HD
HETATM   31  H   UNK N   1      32.152  13.939   7.316  0.00  0.00     0.150 HD
ENDBRANCH  25  29
ENDBRANCH  22  25
ENDBRANCH   6  21
BRANCH   1  32
HETATM   32  O   UNK N   1      29.781  17.461   8.714  0.00  0.00    -0.354 OA
HETATM   33  C   UNK N   1      29.191  17.234   9.939  0.00  0.00     0.210 C 
ENDBRANCH   1  32
TORSDOF 11
ENDMDL
MODEL 7
REMARK VINA RESULT:      -5.9     14.881     19.175
REMARK  11 active torsions:
REMARK  status: ('A' for Active; 'I' for Inactive)
REMARK    1  A    between atoms: O_2  and  C_3 
REMARK    2  A    between atoms: C_6  and  C_16 
REMARK    3  A    between atoms: C_8  and  N_9 
REMARK       I    between atoms: N_9  and  C_10 
REMARK    4  A    between atoms: C_10  and  C_12 
REMARK    5  A    between atoms: C_12  and  C_13 
REMARK    6  A    between atoms: C_12  and  N_15 
REMARK    7  A    between atoms: C_13  and  O_14 
REMARK    8  A    between atoms: C_17  and  C_18 
REMARK    9  A    between atoms: C_20  and  O_28 
REMARK   10  A    between atoms: C_21  and  O_26 
REMARK   11  A    between atoms: C_22  and  O_24 
ROOT
HETATM    1  C   UNK N   1      26.197  24.409  -5.678  0.00  0.00     0.095 C 
HETATM    2  C   UNK N   1      25.492  25.385  -6.390  0.00  0.00     0.040 C 
HETATM    3  C   UNK N   1      25.376  26.667  -5.880  0.00  0.00     0.014 C 
HETATM    4  C   UNK N   1      25.888  26.993  -4.616  0.00  0.00    -0.034 C 
HETATM    5  C   UNK N   1      26.681  26.055  -3.949  0.00  0.00     0.043 C 
HETATM    6  C   UNK N   1      26.852  24.768  -4.492  0.00  0.00     0.069 C 
ENDROOT
BRANCH   4   7
HETATM    7  C   UNK N   1      25.522  28.270  -3.945  0.00  0.00     0.012 C 
HETATM    8  C   UNK N   1      26.352  29.336  -3.806  0.00  0.00     0.012 C 
BRANCH   8   9
HETATM    9  C   UNK N   1      27.672  29.477  -4.477  0.00  0.00    -0.031 A 
HETATM   10  C   UNK N   1      28.831  29.400  -3.716  0.00  0.00     0.051 A 
HETATM   11  C   UNK N   1      30.091  29.328  -4.321  0.00  0.00     0.105 A 
HETATM   12  C   UNK N   1      30.194  29.292  -5.745  0.00  0.00     0.135 A 
HETATM   13  C   UNK N   1      28.999  29.391  -6.518  0.00  0.00     0.105 A 
HETATM   14  C   UNK N   1      27.776  29.529  -5.870  0.00  0.00     0.051 A 
BRANCH  11  15
HETATM   15  O   UNK N   1      31.167  29.280  -3.492  0.00  0.00    -0.353 OA
HETATM   16  C   UNK N   1      31.410  28.313  -2.545  0.00  0.00     0.210 C 
ENDBRANCH  11  15
BRANCH  12  17
HETATM   17  O   UNK N   1      31.428  29.170  -6.307  0.00  0.00    -0.351 OA
HETATM   18  C   UNK N   1      32.063  28.000  -6.646  0.00  0.00     0.210 C 
ENDBRANCH  12  17
BRANCH  13  19
HETATM   19  O   UNK N   1      28.976  29.296  -7.866  0.00  0.00    -0.353 OA
HETATM   20  C   UNK N   1      28.718  28.098  -8.498  0.00  0.00     0.210 C 
ENDBRANCH  13  19
ENDBRANCH   8   9
ENDBRANCH   4   7
BRANCH   6  21
HETATM   21  N   UNK N   1      27.701  23.807  -3.886  0.00  0.00    -0.323 N 
HETATM   22  C   UNK N   1      29.011  23.638  -4.208  0.00  0.00     0.246 C 
HETATM   23  O   UNK N   1      29.548  24.349  -5.041  0.00  0.00    -0.271 OA
HETATM   24  H   UNK N   1      27.318  23.226  -3.190  0.00  0.00     0.169 HD
BRANCH  22  25
HETATM   25  C   UNK N   1      29.776  22.474  -3.634  0.00  0.00     0.191 C 
BRANCH  25  26
HETATM   26  C   UNK N   1      30.925  22.887  -2.719  0.00  0.00     0.198 C 
BRANCH  26  27
HETATM   27  O   UNK N   1      30.477  23.043  -1.405  0.00  0.00    -0.398 OA
HETATM   28  H   UNK N   1      30.602  22.679  -0.514  0.00  0.00     0.209 HD
ENDBRANCH  26  27
ENDBRANCH  25  26
BRANCH  25  29
HETATM   29  N   UNK N   1      30.282  21.635  -4.704  0.00  0.00    -0.417 N 
HETATM   30  H   UNK N   1      30.962  21.683  -5.463  0.00  0.00     0.150 HD
HETATM   31  H   UNK N   1      29.821  20.725  -4.695  0.00  0.00     0.150 HD
ENDBRANCH  25  29
ENDBRANCH  22  25
ENDBRANCH   6  21
BRANCH   1  32
HETATM   32  O   UNK N   1      26.279  23.137  -6.131  0.00  0.00    -0.354 OA
HETATM   33  C   UNK N   1      26.924  22.793  -7.299  0.00  0.00     0.210 C 
ENDBRANCH   1  32
TORSDOF 11
ENDMDL
MODEL 8
REMARK VINA RESULT:      -5.9     14.504     18.550
REMARK  11 active torsions:
REMARK  status: ('A' for Active; 'I' for Inactive)
REMARK    1  A    between atoms: O_2  and  C_3 
REMARK    2  A    between atoms: C_6  and  C_16 
REMARK    3  A    between atoms: C_8  and  N_9 
REMARK       I    between atoms: N_9  and  C_10 
REMARK    4  A    between atoms: C_10  and  C_12 
REMARK    5  A    between atoms: C_12  and  C_13 
REMARK    6  A    between atoms: C_12  and  N_15 
REMARK    7  A    between atoms: C_13  and  O_14 
REMARK    8  A    between atoms: C_17  and  C_18 
REMARK    9  A    between atoms: C_20  and  O_28 
REMARK   10  A    between atoms: C_21  and  O_26 
REMARK   11  A    between atoms: C_22  and  O_24 
ROOT
HETATM    1  C   UNK N   1      30.675  26.158  -4.211  0.00  0.00     0.095 C 
HETATM    2  C   UNK N   1      30.496  27.518  -3.944  0.00  0.00     0.040 C 
HETATM    3  C   UNK N   1      29.247  27.995  -3.579  0.00  0.00     0.014 C 
HETATM    4  C   UNK N   1      28.130  27.149  -3.546  0.00  0.00    -0.034 C 
HETATM    5  C   UNK N   1      28.323  25.774  -3.708  0.00  0.00     0.043 C 
HETATM    6  C   UNK N   1      29.601  25.276  -4.020  0.00  0.00     0.069 C 
ENDROOT
BRANCH   4   7
HETATM    7  C   UNK N   1      26.753  27.701  -3.438  0.00  0.00     0.012 C 
HETATM    8  C   UNK N   1      25.868  27.782  -4.466  0.00  0.00     0.012 C 
BRANCH   8   9
HETATM    9  C   UNK N   1      26.058  27.148  -5.799  0.00  0.00    -0.031 A 
HETATM   10  C   UNK N   1      26.964  27.706  -6.692  0.00  0.00     0.051 A 
HETATM   11  C   UNK N   1      27.321  27.041  -7.871  0.00  0.00     0.105 A 
HETATM   12  C   UNK N   1      26.781  25.749  -8.148  0.00  0.00     0.135 A 
HETATM   13  C   UNK N   1      25.837  25.192  -7.234  0.00  0.00     0.105 A 
HETATM   14  C   UNK N   1      25.463  25.923  -6.111  0.00  0.00     0.051 A 
BRANCH  11  15
HETATM   15  O   UNK N   1      28.195  27.678  -8.692  0.00  0.00    -0.353 OA
HETATM   16  C   UNK N   1      29.125  28.615  -8.306  0.00  0.00     0.210 C 
ENDBRANCH  11  15
BRANCH  12  17
HETATM   17  O   UNK N   1      27.185  25.101  -9.276  0.00  0.00    -0.351 OA
HETATM   18  C   UNK N   1      28.217  24.201  -9.380  0.00  0.00     0.210 C 
ENDBRANCH  12  17
BRANCH  13  19
HETATM   19  O   UNK N   1      25.320  23.950  -7.364  0.00  0.00    -0.353 OA
HETATM   20  C   UNK N   1      25.858  22.874  -6.690  0.00  0.00     0.210 C 
ENDBRANCH  13  19
ENDBRANCH   8   9
ENDBRANCH   4   7
BRANCH   6  21
HETATM   21  N   UNK N   1      29.857  23.885  -4.128  0.00  0.00    -0.323 N 
HETATM   22  C   UNK N   1      30.327  23.118  -3.109  0.00  0.00     0.246 C 
HETATM   23  O   UNK N   1      30.531  23.597  -2.006  0.00  0.00    -0.271 OA
HETATM   24  H   UNK N   1      29.685  23.450  -4.993  0.00  0.00     0.169 HD
BRANCH  22  25
HETATM   25  C   UNK N   1      30.734  21.692  -3.376  0.00  0.00     0.191 C 
BRANCH  25  26
HETATM   26  C   UNK N   1      32.240  21.460  -3.298  0.00  0.00     0.198 C 
BRANCH  26  27
HETATM   27  O   UNK N   1      32.648  21.313  -1.969  0.00  0.00    -0.398 OA
HETATM   28  H   UNK N   1      32.637  21.779  -1.118  0.00  0.00     0.209 HD
ENDBRANCH  26  27
ENDBRANCH  25  26
BRANCH  25  29
HETATM   29  N   UNK N   1      30.243  21.269  -4.675  0.00  0.00    -0.417 N 
HETATM   30  H   UNK N   1      29.433  21.415  -5.276  0.00  0.00     0.150 HD
HETATM   31  H   UNK N   1      30.909  20.636  -5.119  0.00  0.00     0.150 HD
ENDBRANCH  25  29
ENDBRANCH  22  25
ENDBRANCH   6  21
BRANCH   1  32
HETATM   32  O   UNK N   1      31.872  25.678  -4.620  0.00  0.00    -0.354 OA
HETATM   33  C   UNK N   1      32.471  26.055  -5.801  0.00  0.00     0.210 C 
ENDBRANCH   1  32
TORSDOF 11
ENDMDL
MODEL 9
REMARK VINA RESULT:      -5.9      2.564      4.299
REMARK  11 active torsions:
REMARK  status: ('A' for Active; 'I' for Inactive)
REMARK    1  A    between atoms: O_2  and  C_3 
REMARK    2  A    between atoms: C_6  and  C_16 
REMARK    3  A    between atoms: C_8  and  N_9 
REMARK       I    between atoms: N_9  and  C_10 
REMARK    4  A    between atoms: C_10  and  C_12 
REMARK    5  A    between atoms: C_12  and  C_13 
REMARK    6  A    between atoms: C_12  and  N_15 
REMARK    7  A    between atoms: C_13  and  O_14 
REMARK    8  A    between atoms: C_17  and  C_18 
REMARK    9  A    between atoms: C_20  and  O_28 
REMARK   10  A    between atoms: C_21  and  O_26 
REMARK   11  A    between atoms: C_22  and  O_24 
ROOT
HETATM    1  C   UNK N   1      33.985  16.326   8.881  0.00  0.00     0.095 C 
HETATM    2  C   UNK N   1      33.490  17.596   8.572  0.00  0.00     0.040 C 
HETATM    3  C   UNK N   1      33.163  17.914   7.264  0.00  0.00     0.014 C 
HETATM    4  C   UNK N   1      33.394  17.008   6.220  0.00  0.00    -0.034 C 
HETATM    5  C   UNK N   1      33.789  15.705   6.534  0.00  0.00     0.043 C 
HETATM    6  C   UNK N   1      34.064  15.358   7.870  0.00  0.00     0.069 C 
ENDROOT
BRANCH   4   7
HETATM    7  C   UNK N   1      33.317  17.440   4.798  0.00  0.00     0.012 C 
HETATM    8  C   UNK N   1      32.218  17.317   4.010  0.00  0.00     0.012 C 
BRANCH   8   9
HETATM    9  C   UNK N   1      30.866  16.929   4.495  0.00  0.00    -0.031 A 
HETATM   10  C   UNK N   1      30.486  15.594   4.449  0.00  0.00     0.051 A 
HETATM   11  C   UNK N   1      29.312  15.154   5.071  0.00  0.00     0.105 A 
HETATM   12  C   UNK N   1      28.506  16.078   5.802  0.00  0.00     0.135 A 
HETATM   13  C   UNK N   1      28.894  17.451   5.827  0.00  0.00     0.105 A 
HETATM   14  C   UNK N   1      30.033  17.851   5.136  0.00  0.00     0.051 A 
BRANCH  11  15
HETATM   15  O   UNK N   1      29.013  13.834   4.950  0.00  0.00    -0.353 OA
HETATM   16  C   UNK N   1      29.863  12.855   4.490  0.00  0.00     0.210 C 
ENDBRANCH  11  15
BRANCH  12  17
HETATM   17  O   UNK N   1      27.396  15.614   6.440  0.00  0.00    -0.351 OA
HETATM   18  C   UNK N   1      26.103  15.665   5.980  0.00  0.00     0.210 C 
ENDBRANCH  12  17
BRANCH  13  19
HETATM   19  O   UNK N   1      28.244  18.394   6.545  0.00  0.00    -0.353 OA
HETATM   20  C   UNK N   1      28.555  18.632   7.866  0.00  0.00     0.210 C 
ENDBRANCH  13  19
ENDBRANCH   8   9
ENDBRANCH   4   7
BRANCH   6  21
HETATM   21  N   UNK N   1      34.403  14.032   8.245  0.00  0.00    -0.323 N 
HETATM   22  C   UNK N   1      33.498  13.103   8.651  0.00  0.00     0.246 C 
HETATM   23  O   UNK N   1      32.306  13.361   8.686  0.00  0.00    -0.271 OA
HETATM   24  H   UNK N   1      35.350  13.770   8.210  0.00  0.00     0.169 HD
BRANCH  22  25
HETATM   25  C   UNK N   1      33.979  11.783   9.196  0.00  0.00     0.191 C 
BRANCH  25  26
HETATM   26  C   UNK N   1      34.658  11.894  10.559  0.00  0.00     0.198 C 
BRANCH  26  27
HETATM   27  O   UNK N   1      34.347  13.114  11.166  0.00  0.00    -0.398 OA
HETATM   28  H   UNK N   1      33.754  13.499  11.831  0.00  0.00     0.209 HD
ENDBRANCH  26  27
ENDBRANCH  25  26
BRANCH  25  29
HETATM   29  N   UNK N   1      34.883  11.154   8.252  0.00  0.00    -0.417 N 
HETATM   30  H   UNK N   1      35.776  10.661   8.253  0.00  0.00     0.150 HD
HETATM   31  H   UNK N   1      34.515  11.225   7.303  0.00  0.00     0.150 HD
ENDBRANCH  25  29
ENDBRANCH  22  25
ENDBRANCH   6  21
BRANCH   1  32
HETATM   32  O   UNK N   1      34.360  16.010  10.142  0.00  0.00    -0.354 OA
HETATM   33  C   UNK N   1      35.423  16.606  10.784  0.00  0.00     0.210 C 
ENDBRANCH   1  32
TORSDOF 11
ENDMDL
