MODEL 1
REMARK VINA RESULT:      -6.7      0.000      0.000
REMARK  9 active torsions:
REMARK  status: ('A' for Active; 'I' for Inactive)
REMARK    1  A    between atoms: C_2  and  C_3 
REMARK    2  A    between atoms: C_2  and  O_32 
REMARK    3  A    between atoms: C_3  and  O_5 
REMARK    4  A    between atoms: O_5  and  C_6 
REMARK    5  A    between atoms: C_7  and  C_28 
REMARK       I    between atoms: C_11  and  N_14 
REMARK    6  A    between atoms: N_14  and  C_15 
REMARK    7  A    between atoms: S_21  and  C_18 
REMARK    8  A    between atoms: S_21  and  N_22 
REMARK    9  A    between atoms: S_21  and  C_25 
ROOT
HETATM    1  C   UNK N   1      22.656  17.782   4.025  0.00  0.00     0.174 A 
HETATM    2  C   UNK N   1      21.447  18.264   3.493  0.00  0.00     0.115 A 
HETATM    3  C   UNK N   1      21.433  19.553   2.944  0.00  0.00     0.126 A 
HETATM    4  N   UNK N   1      22.567  20.310   2.922  0.00  0.00    -0.201 N 
ATOM      5  HN  UNK N   1      22.547  21.243   2.512  1.00  0.00     0.183 HD
HETATM    6  C   UNK N   1      23.721  19.829   3.445  0.00  0.00     0.684 A 
HETATM    7  N   UNK N   1      23.758  18.576   3.973  0.00  0.00    -0.169 N 
ATOM      8  HN  UNK N   1      24.640  18.223   4.343  1.00  0.00     0.186 HD
HETATM    9  N   UNK N   1      24.905  20.623   3.430  0.00  0.00    -0.192 N 
HETATM   10  H   UNK N   1      24.929  21.463   2.918  0.00  0.00     0.184 HD
ENDROOT
BRANCH   9  11
HETATM   11  C   UNK N   1      26.048  20.200   4.156  0.00  0.00     0.049 A 
HETATM   12  C   UNK N   1      26.886  19.232   3.607  0.00  0.00     0.031 A 
HETATM   13  C   UNK N   1      27.835  18.601   4.411  0.00  0.00     0.024 A 
HETATM   14  C   UNK N   1      27.963  18.941   5.771  0.00  0.00     0.038 A 
HETATM   15  C   UNK N   1      27.184  19.977   6.296  0.00  0.00     0.024 A 
HETATM   16  C   UNK N   1      26.226  20.598   5.492  0.00  0.00     0.031 A 
BRANCH  14  17
HETATM   17  S   UNK N   1      28.957  17.899   6.865  0.00  0.00     0.054 S 
HETATM   18  O   UNK N   1      28.469  16.511   6.430  0.00  0.00    -0.245 OA
BRANCH  17  19
HETATM   19  N   UNK N   1      27.652  18.093   7.755  0.00  0.00    -0.356 N 
HETATM   20  H   UNK N   1      26.861  18.671   7.659  0.00  0.00     0.166 HD
ATOM     21  HN  UNK N   1      27.632  17.505   8.588  1.00  0.00     0.166 HD
ENDBRANCH  17  19
BRANCH  17  22
HETATM   22  C   UNK N   1      29.537  17.474   8.541  0.00  0.00     0.092 A 
HETATM   23  C   UNK N   1      31.005  17.819   8.673  0.00  0.00     0.020 A 
HETATM   24  C   UNK N   1      29.959  18.711   9.303  0.00  0.00     0.020 A 
ENDBRANCH  17  22
ENDBRANCH  14  17
ENDBRANCH   9  11
BRANCH   1  25
HETATM   25  O   UNK N   1      22.709  16.571   4.640  0.00  0.00    -0.327 OA
BRANCH  25  26
HETATM   26  C   UNK N   1      23.016  16.314   5.970  0.00  0.00     0.154 C 
HETATM   27  C   UNK N   1      22.052  15.325   6.605  0.00  0.00     0.042 C 
BRANCH  26  28
HETATM   28  C   UNK N   1      24.410  15.694   6.052  0.00  0.00     0.143 C 
HETATM   29  C   UNK N   1      24.677  14.733   4.909  0.00  0.00     0.042 C 
BRANCH  28  30
HETATM   30  O   UNK N   1      25.388  16.691   6.055  0.00  0.00    -0.393 OA
HETATM   31  H   UNK N   1      26.328  16.488   5.924  0.00  0.00     0.210 HD
ENDBRANCH  28  30
ENDBRANCH  26  28
ENDBRANCH  25  26
ENDBRANCH   1  25
BRANCH   2  32
HETATM   32  C   UNK N   1      20.168  17.457   3.506  0.00  0.00     0.422 C 
HETATM   33  F   UNK N   1      19.144  18.228   2.991  0.00  0.00    -0.166 F 
HETATM   34  F   UNK N   1      20.324  16.329   2.720  0.00  0.00    -0.166 F 
HETATM   35  F   UNK N   1      19.814  17.042   4.777  0.00  0.00    -0.166 F 
ENDBRANCH   2  32
TORSDOF 9
ENDMDL
MODEL 2
REMARK VINA RESULT:      -6.2     12.047     14.031
REMARK  9 active torsions:
REMARK  status: ('A' for Active; 'I' for Inactive)
REMARK    1  A    between atoms: C_2  and  C_3 
REMARK    2  A    between atoms: C_2  and  O_32 
REMARK    3  A    between atoms: C_3  and  O_5 
REMARK    4  A    between atoms: O_5  and  C_6 
REMARK    5  A    between atoms: C_7  and  C_28 
REMARK       I    between atoms: C_11  and  N_14 
REMARK    6  A    between atoms: N_14  and  C_15 
REMARK    7  A    between atoms: S_21  and  C_18 
REMARK    8  A    between atoms: S_21  and  N_22 
REMARK    9  A    between atoms: S_21  and  C_25 
ROOT
HETATM    1  C   UNK N   1      28.868  23.691  -5.859  0.00  0.00     0.174 A 
HETATM    2  C   UNK N   1      28.745  22.441  -6.491  0.00  0.00     0.115 A 
HETATM    3  C   UNK N   1      27.703  22.264  -7.410  0.00  0.00     0.126 A 
HETATM    4  N   UNK N   1      26.840  23.284  -7.685  0.00  0.00    -0.201 N 
ATOM      5  HN  UNK N   1      26.091  23.146  -8.364  1.00  0.00     0.183 HD
HETATM    6  C   UNK N   1      26.972  24.479  -7.062  0.00  0.00     0.684 A 
HETATM    7  N   UNK N   1      27.984  24.674  -6.174  0.00  0.00    -0.169 N 
ATOM      8  HN  UNK N   1      28.081  25.587  -5.729  1.00  0.00     0.186 HD
HETATM    9  N   UNK N   1      26.066  25.543  -7.343  0.00  0.00    -0.192 N 
HETATM   10  H   UNK N   1      25.430  25.465  -8.090  0.00  0.00     0.184 HD
ENDROOT
BRANCH   9  11
HETATM   11  C   UNK N   1      26.082  26.715  -6.544  0.00  0.00     0.049 A 
HETATM   12  C   UNK N   1      27.101  27.650  -6.723  0.00  0.00     0.031 A 
HETATM   13  C   UNK N   1      27.299  28.648  -5.769  0.00  0.00     0.024 A 
HETATM   14  C   UNK N   1      26.474  28.728  -4.632  0.00  0.00     0.038 A 
HETATM   15  C   UNK N   1      25.396  27.847  -4.502  0.00  0.00     0.024 A 
HETATM   16  C   UNK N   1      25.207  26.840  -5.451  0.00  0.00     0.031 A 
BRANCH  14  17
HETATM   17  S   UNK N   1      26.942  29.809  -3.259  0.00  0.00     0.054 S 
HETATM   18  O   UNK N   1      26.132  31.062  -3.617  0.00  0.00    -0.245 OA
BRANCH  17  19
HETATM   19  N   UNK N   1      28.050  30.203  -4.331  0.00  0.00    -0.356 N 
HETATM   20  H   UNK N   1      28.338  29.785  -5.175  0.00  0.00     0.166 HD
ATOM     21  HN  UNK N   1      28.562  31.053  -4.098  1.00  0.00     0.166 HD
ENDBRANCH  17  19
BRANCH  17  22
HETATM   22  C   UNK N   1      28.233  30.597  -2.241  0.00  0.00     0.092 A 
HETATM   23  C   UNK N   1      28.291  29.927  -0.885  0.00  0.00     0.020 A 
HETATM   24  C   UNK N   1      29.348  29.625  -1.925  0.00  0.00     0.020 A 
ENDBRANCH  17  22
ENDBRANCH  14  17
ENDBRANCH   9  11
BRANCH   1  25
HETATM   25  O   UNK N   1      29.811  23.894  -4.901  0.00  0.00    -0.327 OA
BRANCH  25  26
HETATM   26  C   UNK N   1      29.611  23.997  -3.531  0.00  0.00     0.154 C 
HETATM   27  C   UNK N   1      28.151  23.820  -3.145  0.00  0.00     0.042 C 
BRANCH  26  28
HETATM   28  C   UNK N   1      30.395  22.892  -2.825  0.00  0.00     0.143 C 
HETATM   29  C   UNK N   1      31.802  22.749  -3.373  0.00  0.00     0.042 C 
BRANCH  28  30
HETATM   30  O   UNK N   1      30.458  23.139  -1.452  0.00  0.00    -0.393 OA
HETATM   31  H   UNK N   1      30.575  22.423  -0.806  0.00  0.00     0.210 HD
ENDBRANCH  28  30
ENDBRANCH  26  28
ENDBRANCH  25  26
ENDBRANCH   1  25
BRANCH   2  32
HETATM   32  C   UNK N   1      29.677  21.285  -6.205  0.00  0.00     0.422 C 
HETATM   33  F   UNK N   1      29.296  20.199  -6.970  0.00  0.00    -0.166 F 
HETATM   34  F   UNK N   1      30.972  21.640  -6.538  0.00  0.00    -0.166 F 
HETATM   35  F   UNK N   1      29.670  20.912  -4.873  0.00  0.00    -0.166 F 
ENDBRANCH   2  32
TORSDOF 9
ENDMDL
MODEL 3
REMARK VINA RESULT:      -6.2      7.987     11.780
REMARK  9 active torsions:
REMARK  status: ('A' for Active; 'I' for Inactive)
REMARK    1  A    between atoms: C_2  and  C_3 
REMARK    2  A    between atoms: C_2  and  O_32 
REMARK    3  A    between atoms: C_3  and  O_5 
REMARK    4  A    between atoms: O_5  and  C_6 
REMARK    5  A    between atoms: C_7  and  C_28 
REMARK       I    between atoms: C_11  and  N_14 
REMARK    6  A    between atoms: N_14  and  C_15 
REMARK    7  A    between atoms: S_21  and  C_18 
REMARK    8  A    between atoms: S_21  and  N_22 
REMARK    9  A    between atoms: S_21  and  C_25 
ROOT
HETATM    1  C   UNK N   1      34.238  14.679  10.102  0.00  0.00     0.174 A 
HETATM    2  C   UNK N   1      35.211  14.839  11.103  0.00  0.00     0.115 A 
HETATM    3  C   UNK N   1      35.790  16.104  11.266  0.00  0.00     0.126 A 
HETATM    4  N   UNK N   1      35.407  17.149  10.479  0.00  0.00    -0.201 N 
ATOM      5  HN  UNK N   1      35.828  18.068  10.614  1.00  0.00     0.183 HD
HETATM    6  C   UNK N   1      34.470  16.973   9.516  0.00  0.00     0.684 A 
HETATM    7  N   UNK N   1      33.890  15.755   9.348  0.00  0.00    -0.169 N 
ATOM      8  HN  UNK N   1      33.171  15.646   8.632  1.00  0.00     0.186 HD
HETATM    9  N   UNK N   1      34.075  18.064   8.687  0.00  0.00    -0.192 N 
HETATM   10  H   UNK N   1      34.374  18.978   8.898  0.00  0.00     0.184 HD
ENDROOT
BRANCH   9  11
HETATM   11  C   UNK N   1      33.252  17.829   7.556  0.00  0.00     0.049 A 
HETATM   12  C   UNK N   1      31.887  17.617   7.737  0.00  0.00     0.031 A 
HETATM   13  C   UNK N   1      31.121  17.105   6.690  0.00  0.00     0.024 A 
HETATM   14  C   UNK N   1      31.712  16.809   5.447  0.00  0.00     0.038 A 
HETATM   15  C   UNK N   1      33.061  17.110   5.239  0.00  0.00     0.024 A 
HETATM   16  C   UNK N   1      33.828  17.610   6.292  0.00  0.00     0.031 A 
BRANCH  14  17
HETATM   17  S   UNK N   1      30.789  15.852   4.221  0.00  0.00     0.054 S 
HETATM   18  O   UNK N   1      31.939  15.078   3.562  0.00  0.00    -0.245 OA
BRANCH  17  19
HETATM   19  N   UNK N   1      31.151  17.144   3.367  0.00  0.00    -0.356 N 
HETATM   20  H   UNK N   1      31.783  17.885   3.516  0.00  0.00     0.166 HD
ATOM     21  HN  UNK N   1      30.628  17.221   2.496  1.00  0.00     0.166 HD
ENDBRANCH  17  19
BRANCH  17  22
HETATM   22  C   UNK N   1      29.591  15.784   2.848  0.00  0.00     0.092 A 
HETATM   23  C   UNK N   1      28.399  14.944   3.253  0.00  0.00     0.020 A 
HETATM   24  C   UNK N   1      28.288  16.452   3.226  0.00  0.00     0.020 A 
ENDBRANCH  17  22
ENDBRANCH  14  17
ENDBRANCH   9  11
BRANCH   1  25
HETATM   25  O   UNK N   1      33.700  13.457   9.846  0.00  0.00    -0.327 OA
BRANCH  25  26
HETATM   26  C   UNK N   1      33.780  12.733   8.663  0.00  0.00     0.154 C 
HETATM   27  C   UNK N   1      35.199  12.664   8.121  0.00  0.00     0.042 C 
BRANCH  26  28
HETATM   28  C   UNK N   1      33.333  11.295   8.924  0.00  0.00     0.143 C 
HETATM   29  C   UNK N   1      34.313  10.542   9.803  0.00  0.00     0.042 C 
BRANCH  28  30
HETATM   30  O   UNK N   1      32.070  11.278   9.521  0.00  0.00    -0.393 OA
HETATM   31  H   UNK N   1      31.740  10.501  10.001  0.00  0.00     0.210 HD
ENDBRANCH  28  30
ENDBRANCH  26  28
ENDBRANCH  25  26
ENDBRANCH   1  25
BRANCH   2  32
HETATM   32  C   UNK N   1      35.667  13.702  11.990  0.00  0.00     0.422 C 
HETATM   33  F   UNK N   1      36.364  12.785  11.226  0.00  0.00    -0.166 F 
HETATM   34  F   UNK N   1      36.501  14.191  12.979  0.00  0.00    -0.166 F 
HETATM   35  F   UNK N   1      34.613  13.054  12.608  0.00  0.00    -0.166 F 
ENDBRANCH   2  32
TORSDOF 9
ENDMDL
MODEL 4
REMARK VINA RESULT:      -6.1      8.326     11.960
REMARK  9 active torsions:
REMARK  status: ('A' for Active; 'I' for Inactive)
REMARK    1  A    between atoms: C_2  and  C_3 
REMARK    2  A    between atoms: C_2  and  O_32 
REMARK    3  A    between atoms: C_3  and  O_5 
REMARK    4  A    between atoms: O_5  and  C_6 
REMARK    5  A    between atoms: C_7  and  C_28 
REMARK       I    between atoms: C_11  and  N_14 
REMARK    6  A    between atoms: N_14  and  C_15 
REMARK    7  A    between atoms: S_21  and  C_18 
REMARK    8  A    between atoms: S_21  and  N_22 
REMARK    9  A    between atoms: S_21  and  C_25 
ROOT
HETATM    1  C   UNK N   1      33.518  15.565   6.951  0.00  0.00     0.174 A 
HETATM    2  C   UNK N   1      33.943  15.614   5.612  0.00  0.00     0.115 A 
HETATM    3  C   UNK N   1      35.124  14.943   5.268  0.00  0.00     0.126 A 
HETATM    4  N   UNK N   1      35.831  14.255   6.210  0.00  0.00    -0.201 N 
ATOM      5  HN  UNK N   1      36.684  13.763   5.945  1.00  0.00     0.183 HD
HETATM    6  C   UNK N   1      35.407  14.224   7.496  0.00  0.00     0.684 A 
HETATM    7  N   UNK N   1      34.258  14.861   7.848  0.00  0.00    -0.169 N 
ATOM      8  HN  UNK N   1      33.943  14.810   8.817  1.00  0.00     0.186 HD
HETATM    9  N   UNK N   1      36.150  13.513   8.483  0.00  0.00    -0.192 N 
HETATM   10  H   UNK N   1      36.893  12.926   8.214  0.00  0.00     0.184 HD
ENDROOT
BRANCH   9  11
HETATM   11  C   UNK N   1      35.817  13.653   9.855  0.00  0.00     0.049 A 
HETATM   12  C   UNK N   1      36.328  14.731  10.575  0.00  0.00     0.031 A 
HETATM   13  C   UNK N   1      36.253  14.731  11.968  0.00  0.00     0.024 A 
HETATM   14  C   UNK N   1      35.657  13.655  12.654  0.00  0.00     0.038 A 
HETATM   15  C   UNK N   1      35.063  12.620  11.926  0.00  0.00     0.024 A 
HETATM   16  C   UNK N   1      35.151  12.617  10.532  0.00  0.00     0.031 A 
BRANCH  14  17
HETATM   17  S   UNK N   1      35.858  13.514  14.446  0.00  0.00     0.054 S 
HETATM   18  O   UNK N   1      36.794  14.702  14.706  0.00  0.00    -0.245 OA
BRANCH  17  19
HETATM   19  N   UNK N   1      37.088  12.637  13.946  0.00  0.00    -0.356 N 
HETATM   20  H   UNK N   1      37.403  11.736  14.185  0.00  0.00     0.166 HD
ATOM     21  HN  UNK N   1      37.662  13.099  13.241  1.00  0.00     0.166 HD
ENDBRANCH  17  19
BRANCH  17  22
HETATM   22  C   UNK N   1      36.271  12.514  15.913  0.00  0.00     0.092 A 
HETATM   23  C   UNK N   1      35.189  12.675  16.960  0.00  0.00     0.020 A 
HETATM   24  C   UNK N   1      35.255  11.413  16.128  0.00  0.00     0.020 A 
ENDBRANCH  17  22
ENDBRANCH  14  17
ENDBRANCH   9  11
BRANCH   1  25
HETATM   25  O   UNK N   1      32.424  16.262   7.357  0.00  0.00    -0.327 OA
BRANCH  25  26
HETATM   26  C   UNK N   1      32.370  17.252   8.330  0.00  0.00     0.154 C 
HETATM   27  C   UNK N   1      33.377  18.363   8.080  0.00  0.00     0.042 C 
BRANCH  26  28
HETATM   28  C   UNK N   1      30.983  17.895   8.313  0.00  0.00     0.143 C 
HETATM   29  C   UNK N   1      30.025  17.164   7.392  0.00  0.00     0.042 C 
BRANCH  28  30
HETATM   30  O   UNK N   1      30.447  17.930   9.603  0.00  0.00    -0.393 OA
HETATM   31  H   UNK N   1      29.634  18.419   9.807  0.00  0.00     0.210 HD
ENDBRANCH  28  30
ENDBRANCH  26  28
ENDBRANCH  25  26
ENDBRANCH   1  25
BRANCH   2  32
HETATM   32  C   UNK N   1      33.191  16.372   4.542  0.00  0.00     0.422 C 
HETATM   33  F   UNK N   1      33.764  16.106   3.313  0.00  0.00    -0.166 F 
HETATM   34  F   UNK N   1      31.871  15.959   4.523  0.00  0.00    -0.166 F 
HETATM   35  F   UNK N   1      33.203  17.739   4.750  0.00  0.00    -0.166 F 
ENDBRANCH   2  32
TORSDOF 9
ENDMDL
MODEL 5
REMARK VINA RESULT:      -6.0      4.785      6.513
REMARK  9 active torsions:
REMARK  status: ('A' for Active; 'I' for Inactive)
REMARK    1  A    between atoms: C_2  and  C_3 
REMARK    2  A    between atoms: C_2  and  O_32 
REMARK    3  A    between atoms: C_3  and  O_5 
REMARK    4  A    between atoms: O_5  and  C_6 
REMARK    5  A    between atoms: C_7  and  C_28 
REMARK       I    between atoms: C_11  and  N_14 
REMARK    6  A    between atoms: N_14  and  C_15 
REMARK    7  A    between atoms: S_21  and  C_18 
REMARK    8  A    between atoms: S_21  and  N_22 
REMARK    9  A    between atoms: S_21  and  C_25 
ROOT
HETATM    1  C   UNK N   1      28.333  19.008   6.178  0.00  0.00     0.174 A 
HETATM    2  C   UNK N   1      27.482  19.993   5.647  0.00  0.00     0.115 A 
HETATM    3  C   UNK N   1      27.157  19.922   4.286  0.00  0.00     0.126 A 
HETATM    4  N   UNK N   1      27.649  18.917   3.507  0.00  0.00    -0.201 N 
ATOM      5  HN  UNK N   1      27.397  18.870   2.520  1.00  0.00     0.183 HD
HETATM    6  C   UNK N   1      28.472  17.981   4.037  0.00  0.00     0.684 A 
HETATM    7  N   UNK N   1      28.792  18.026   5.358  0.00  0.00    -0.169 N 
ATOM      8  HN  UNK N   1      29.396  17.301   5.745  1.00  0.00     0.186 HD
HETATM    9  N   UNK N   1      28.993  16.934   3.221  0.00  0.00    -0.192 N 
HETATM   10  H   UNK N   1      28.650  16.803   2.307  0.00  0.00     0.184 HD
ENDROOT
BRANCH   9  11
HETATM   11  C   UNK N   1      30.008  16.083   3.727  0.00  0.00     0.049 A 
HETATM   12  C   UNK N   1      29.657  15.020   4.557  0.00  0.00     0.031 A 
HETATM   13  C   UNK N   1      30.643  14.357   5.289  0.00  0.00     0.024 A 
HETATM   14  C   UNK N   1      31.993  14.745   5.188  0.00  0.00     0.038 A 
HETATM   15  C   UNK N   1      32.354  15.750   4.285  0.00  0.00     0.024 A 
HETATM   16  C   UNK N   1      31.364  16.420   3.564  0.00  0.00     0.031 A 
BRANCH  14  17
HETATM   17  S   UNK N   1      33.200  14.104   6.373  0.00  0.00     0.054 S 
HETATM   18  O   UNK N   1      32.920  12.600   6.253  0.00  0.00    -0.245 OA
BRANCH  17  19
HETATM   19  N   UNK N   1      31.931  14.278   7.316  0.00  0.00    -0.356 N 
HETATM   20  H   UNK N   1      31.319  15.033   7.476  0.00  0.00     0.166 HD
ATOM     21  HN  UNK N   1      31.708  13.447   7.863  1.00  0.00     0.166 HD
ENDBRANCH  17  19
BRANCH  17  22
HETATM   22  C   UNK N   1      33.930  14.115   8.043  0.00  0.00     0.092 A 
HETATM   23  C   UNK N   1      35.294  14.770   7.998  0.00  0.00     0.020 A 
HETATM   24  C   UNK N   1      34.109  15.529   8.552  0.00  0.00     0.020 A 
ENDBRANCH  17  22
ENDBRANCH  14  17
ENDBRANCH   9  11
BRANCH   1  25
HETATM   25  O   UNK N   1      28.745  19.072   7.472  0.00  0.00    -0.327 OA
BRANCH  25  26
HETATM   26  C   UNK N   1      29.416  18.091   8.191  0.00  0.00     0.154 C 
HETATM   27  C   UNK N   1      30.504  18.670   9.082  0.00  0.00     0.042 C 
BRANCH  26  28
HETATM   28  C   UNK N   1      28.424  17.376   9.108  0.00  0.00     0.143 C 
HETATM   29  C   UNK N   1      29.070  16.913  10.400  0.00  0.00     0.042 C 
BRANCH  28  30
HETATM   30  O   UNK N   1      27.344  18.211   9.405  0.00  0.00    -0.393 OA
HETATM   31  H   UNK N   1      27.462  19.157   9.585  0.00  0.00     0.210 HD
ENDBRANCH  28  30
ENDBRANCH  26  28
ENDBRANCH  25  26
ENDBRANCH   1  25
BRANCH   2  32
HETATM   32  C   UNK N   1      26.924  21.126   6.478  0.00  0.00     0.422 C 
HETATM   33  F   UNK N   1      27.894  22.099   6.624  0.00  0.00    -0.166 F 
HETATM   34  F   UNK N   1      25.828  21.674   5.837  0.00  0.00    -0.166 F 
HETATM   35  F   UNK N   1      26.517  20.715   7.734  0.00  0.00    -0.166 F 
ENDBRANCH   2  32
TORSDOF 9
ENDMDL
MODEL 6
REMARK VINA RESULT:      -5.9      8.220     12.086
REMARK  9 active torsions:
REMARK  status: ('A' for Active; 'I' for Inactive)
REMARK    1  A    between atoms: C_2  and  C_3 
REMARK    2  A    between atoms: C_2  and  O_32 
REMARK    3  A    between atoms: C_3  and  O_5 
REMARK    4  A    between atoms: O_5  and  C_6 
REMARK    5  A    between atoms: C_7  and  C_28 
REMARK       I    between atoms: C_11  and  N_14 
REMARK    6  A    between atoms: N_14  and  C_15 
REMARK    7  A    between atoms: S_21  and  C_18 
REMARK    8  A    between atoms: S_21  and  N_22 
REMARK    9  A    between atoms: S_21  and  C_25 
ROOT
HETATM    1  C   UNK N   1      35.011  14.423   9.280  0.00  0.00     0.174 A 
HETATM    2  C   UNK N   1      35.805  14.508  10.436  0.00  0.00     0.115 A 
HETATM    3  C   UNK N   1      35.828  15.722  11.135  0.00  0.00     0.126 A 
HETATM    4  N   UNK N   1      35.090  16.784  10.705  0.00  0.00    -0.201 N 
ATOM      5  HN  UNK N   1      35.107  17.660  11.227  1.00  0.00     0.183 HD
HETATM    6  C   UNK N   1      34.335  16.684   9.584  0.00  0.00     0.684 A 
HETATM    7  N   UNK N   1      34.292  15.511   8.897  0.00  0.00    -0.169 N 
ATOM      8  HN  UNK N   1      33.701  15.447   8.067  1.00  0.00     0.186 HD
HETATM    9  N   UNK N   1      33.570  17.798   9.128  0.00  0.00    -0.192 N 
HETATM   10  H   UNK N   1      33.474  18.596   9.697  0.00  0.00     0.184 HD
ENDROOT
BRANCH   9  11
HETATM   11  C   UNK N   1      32.949  17.753   7.854  0.00  0.00     0.049 A 
HETATM   12  C   UNK N   1      31.587  17.472   7.768  0.00  0.00     0.031 A 
HETATM   13  C   UNK N   1      31.025  17.141   6.534  0.00  0.00     0.024 A 
HETATM   14  C   UNK N   1      31.819  17.100   5.372  0.00  0.00     0.038 A 
HETATM   15  C   UNK N   1      33.165  17.473   5.446  0.00  0.00     0.024 A 
HETATM   16  C   UNK N   1      33.727  17.790   6.684  0.00  0.00     0.031 A 
BRANCH  14  17
HETATM   17  S   UNK N   1      31.157  16.361   3.861  0.00  0.00     0.054 S 
HETATM   18  O   UNK N   1      32.069  17.021   2.817  0.00  0.00    -0.245 OA
BRANCH  17  19
HETATM   19  N   UNK N   1      30.277  17.684   3.947  0.00  0.00    -0.356 N 
HETATM   20  H   UNK N   1      29.343  17.878   3.703  0.00  0.00     0.166 HD
ATOM     21  HN  UNK N   1      30.777  18.486   4.329  1.00  0.00     0.166 HD
ENDBRANCH  17  19
BRANCH  17  22
HETATM   22  C   UNK N   1      29.737  15.979   2.782  0.00  0.00     0.092 A 
HETATM   23  C   UNK N   1      29.562  14.479   2.683  0.00  0.00     0.020 A 
HETATM   24  C   UNK N   1      28.632  15.293   3.556  0.00  0.00     0.020 A 
ENDBRANCH  17  22
ENDBRANCH  14  17
ENDBRANCH   9  11
BRANCH   1  25
HETATM   25  O   UNK N   1      35.012  13.297   8.518  0.00  0.00    -0.327 OA
BRANCH  25  26
HETATM   26  C   UNK N   1      35.408  13.177   7.193  0.00  0.00     0.154 C 
HETATM   27  C   UNK N   1      34.265  13.432   6.223  0.00  0.00     0.042 C 
BRANCH  26  28
HETATM   28  C   UNK N   1      36.486  14.218   6.895  0.00  0.00     0.143 C 
HETATM   29  C   UNK N   1      37.722  13.599   6.271  0.00  0.00     0.042 C 
BRANCH  28  30
HETATM   30  O   UNK N   1      35.987  15.208   6.046  0.00  0.00    -0.393 OA
HETATM   31  H   UNK N   1      35.192  15.720   6.265  0.00  0.00     0.210 HD
ENDBRANCH  28  30
ENDBRANCH  26  28
ENDBRANCH  25  26
ENDBRANCH   1  25
BRANCH   2  32
HETATM   32  C   UNK N   1      36.642  13.354  10.940  0.00  0.00     0.422 C 
HETATM   33  F   UNK N   1      35.835  12.241  11.086  0.00  0.00    -0.166 F 
HETATM   34  F   UNK N   1      37.640  13.071  10.026  0.00  0.00    -0.166 F 
HETATM   35  F   UNK N   1      37.246  13.625  12.155  0.00  0.00    -0.166 F 
ENDBRANCH   2  32
TORSDOF 9
ENDMDL
MODEL 7
REMARK VINA RESULT:      -5.8      5.566      8.652
REMARK  9 active torsions:
REMARK  status: ('A' for Active; 'I' for Inactive)
REMARK    1  A    between atoms: C_2  and  C_3 
REMARK    2  A    between atoms: C_2  and  O_32 
REMARK    3  A    between atoms: C_3  and  O_5 
REMARK    4  A    between atoms: O_5  and  C_6 
REMARK    5  A    between atoms: C_7  and  C_28 
REMARK       I    between atoms: C_11  and  N_14 
REMARK    6  A    between atoms: N_14  and  C_15 
REMARK    7  A    between atoms: S_21  and  C_18 
REMARK    8  A    between atoms: S_21  and  N_22 
REMARK    9  A    between atoms: S_21  and  C_25 
ROOT
HETATM    1  C   UNK N   1      31.086  17.190   6.352  0.00  0.00     0.174 A 
HETATM    2  C   UNK N   1      32.472  17.416   6.409  0.00  0.00     0.115 A 
HETATM    3  C   UNK N   1      33.195  17.391   5.209  0.00  0.00     0.126 A 
HETATM    4  N   UNK N   1      32.564  17.163   4.023  0.00  0.00    -0.201 N 
ATOM      5  HN  UNK N   1      33.099  17.158   3.155  1.00  0.00     0.183 HD
HETATM    6  C   UNK N   1      31.227  16.943   3.990  0.00  0.00     0.684 A 
HETATM    7  N   UNK N   1      30.506  16.972   5.143  0.00  0.00    -0.169 N 
ATOM      8  HN  UNK N   1      29.497  16.824   5.097  1.00  0.00     0.186 HD
HETATM    9  N   UNK N   1      30.567  16.695   2.751  0.00  0.00    -0.192 N 
HETATM   10  H   UNK N   1      31.048  16.823   1.902  0.00  0.00     0.184 HD
ENDROOT
BRANCH   9  11
HETATM   11  C   UNK N   1      29.216  16.265   2.744  0.00  0.00     0.049 A 
HETATM   12  C   UNK N   1      28.226  17.113   3.239  0.00  0.00     0.031 A 
HETATM   13  C   UNK N   1      26.953  16.609   3.507  0.00  0.00     0.024 A 
HETATM   14  C   UNK N   1      26.654  15.254   3.272  0.00  0.00     0.038 A 
HETATM   15  C   UNK N   1      27.620  14.428   2.688  0.00  0.00     0.024 A 
HETATM   16  C   UNK N   1      28.897  14.932   2.434  0.00  0.00     0.031 A 
BRANCH  14  17
HETATM   17  S   UNK N   1      25.121  14.549   3.922  0.00  0.00     0.054 S 
HETATM   18  O   UNK N   1      24.670  13.723   2.710  0.00  0.00    -0.245 OA
BRANCH  17  19
HETATM   19  N   UNK N   1      24.565  15.876   3.242  0.00  0.00    -0.356 N 
HETATM   20  H   UNK N   1      24.749  16.830   3.398  0.00  0.00     0.166 HD
ATOM     21  HN  UNK N   1      23.886  15.704   2.502  1.00  0.00     0.166 HD
ENDBRANCH  17  19
BRANCH  17  22
HETATM   22  C   UNK N   1      23.498  14.770   4.723  0.00  0.00     0.092 A 
HETATM   23  C   UNK N   1      23.490  14.061   6.061  0.00  0.00     0.020 A 
HETATM   24  C   UNK N   1      23.625  15.566   6.004  0.00  0.00     0.020 A 
ENDBRANCH  17  22
ENDBRANCH  14  17
ENDBRANCH   9  11
BRANCH   1  25
HETATM   25  O   UNK N   1      30.347  17.124   7.492  0.00  0.00    -0.327 OA
BRANCH  25  26
HETATM   26  C   UNK N   1      29.087  17.666   7.711  0.00  0.00     0.154 C 
HETATM   27  C   UNK N   1      27.979  16.813   7.113  0.00  0.00     0.042 C 
BRANCH  26  28
HETATM   28  C   UNK N   1      28.828  17.741   9.215  0.00  0.00     0.143 C 
HETATM   29  C   UNK N   1      29.759  18.718   9.907  0.00  0.00     0.042 C 
BRANCH  28  30
HETATM   30  O   UNK N   1      27.504  18.111   9.464  0.00  0.00    -0.393 OA
HETATM   31  H   UNK N   1      26.782  17.463   9.468  0.00  0.00     0.210 HD
ENDBRANCH  28  30
ENDBRANCH  26  28
ENDBRANCH  25  26
ENDBRANCH   1  25
BRANCH   2  32
HETATM   32  C   UNK N   1      33.208  17.664   7.706  0.00  0.00     0.422 C 
HETATM   33  F   UNK N   1      32.678  18.784   8.318  0.00  0.00    -0.166 F 
HETATM   34  F   UNK N   1      33.053  16.575   8.543  0.00  0.00    -0.166 F 
HETATM   35  F   UNK N   1      34.564  17.864   7.518  0.00  0.00    -0.166 F 
ENDBRANCH   2  32
TORSDOF 9
ENDMDL
MODEL 8
REMARK VINA RESULT:      -5.8     10.429     14.178
REMARK  9 active torsions:
REMARK  status: ('A' for Active; 'I' for Inactive)
REMARK    1  A    between atoms: C_2  and  C_3 
REMARK    2  A    between atoms: C_2  and  O_32 
REMARK    3  A    between atoms: C_3  and  O_5 
REMARK    4  A    between atoms: O_5  and  C_6 
REMARK    5  A    between atoms: C_7  and  C_28 
REMARK       I    between atoms: C_11  and  N_14 
REMARK    6  A    between atoms: N_14  and  C_15 
REMARK    7  A    between atoms: S_21  and  C_18 
REMARK    8  A    between atoms: S_21  and  N_22 
REMARK    9  A    between atoms: S_21  and  C_25 
ROOT
HETATM    1  C   UNK N   1      35.093  12.071  13.144  0.00  0.00     0.174 A 
HETATM    2  C   UNK N   1      35.663  11.764  14.392  0.00  0.00     0.115 A 
HETATM    3  C   UNK N   1      36.530  12.700  14.971  0.00  0.00     0.126 A 
HETATM    4  N   UNK N   1      36.801  13.877  14.341  0.00  0.00    -0.201 N 
ATOM      5  HN  UNK N   1      37.426  14.555  14.777  1.00  0.00     0.183 HD
HETATM    6  C   UNK N   1      36.245  14.153  13.136  0.00  0.00     0.684 A 
HETATM    7  N   UNK N   1      35.393  13.262  12.562  0.00  0.00    -0.169 N 
ATOM      8  HN  UNK N   1      34.967  13.495  11.665  1.00  0.00     0.186 HD
HETATM    9  N   UNK N   1      36.534  15.381  12.472  0.00  0.00    -0.192 N 
HETATM   10  H   UNK N   1      37.023  16.093  12.944  0.00  0.00     0.184 HD
ENDROOT
BRANCH   9  11
HETATM   11  C   UNK N   1      36.116  15.574  11.131  0.00  0.00     0.049 A 
HETATM   12  C   UNK N   1      35.214  16.595  10.836  0.00  0.00     0.031 A 
HETATM   13  C   UNK N   1      34.577  16.619   9.596  0.00  0.00     0.024 A 
HETATM   14  C   UNK N   1      34.843  15.627   8.633  0.00  0.00     0.038 A 
HETATM   15  C   UNK N   1      35.817  14.658   8.896  0.00  0.00     0.024 A 
HETATM   16  C   UNK N   1      36.444  14.629  10.143  0.00  0.00     0.031 A 
BRANCH  14  17
HETATM   17  S   UNK N   1      33.781  15.484   7.176  0.00  0.00     0.054 S 
HETATM   18  O   UNK N   1      33.695  13.957   7.055  0.00  0.00    -0.245 OA
BRANCH  17  19
HETATM   19  N   UNK N   1      35.217  15.470   6.491  0.00  0.00    -0.356 N 
HETATM   20  H   UNK N   1      35.814  16.190   6.181  0.00  0.00     0.166 HD
ATOM     21  HN  UNK N   1      35.593  14.534   6.344  1.00  0.00     0.166 HD
ENDBRANCH  17  19
BRANCH  17  22
HETATM   22  C   UNK N   1      33.413  15.918   5.444  0.00  0.00     0.092 A 
HETATM   23  C   UNK N   1      32.108  16.682   5.377  0.00  0.00     0.020 A 
HETATM   24  C   UNK N   1      33.423  17.417   5.242  0.00  0.00     0.020 A 
ENDBRANCH  17  22
ENDBRANCH  14  17
ENDBRANCH   9  11
BRANCH   1  25
HETATM   25  O   UNK N   1      34.307  11.168  12.500  0.00  0.00    -0.327 OA
BRANCH  25  26
HETATM   26  C   UNK N   1      34.669  10.337  11.448  0.00  0.00     0.154 C 
HETATM   27  C   UNK N   1      34.261   8.892  11.687  0.00  0.00     0.042 C 
BRANCH  26  28
HETATM   28  C   UNK N   1      33.957  10.797  10.177  0.00  0.00     0.143 C 
HETATM   29  C   UNK N   1      32.660  10.045   9.944  0.00  0.00     0.042 C 
BRANCH  28  30
HETATM   30  O   UNK N   1      33.691  12.167  10.235  0.00  0.00    -0.393 OA
HETATM   31  H   UNK N   1      34.228  12.771  10.771  0.00  0.00     0.210 HD
ENDBRANCH  28  30
ENDBRANCH  26  28
ENDBRANCH  25  26
ENDBRANCH   1  25
BRANCH   2  32
HETATM   32  C   UNK N   1      35.393  10.465  15.117  0.00  0.00     0.422 C 
HETATM   33  F   UNK N   1      36.010   9.432  14.438  0.00  0.00    -0.166 F 
HETATM   34  F   UNK N   1      35.908  10.534  16.399  0.00  0.00    -0.166 F 
HETATM   35  F   UNK N   1      34.042  10.183  15.219  0.00  0.00    -0.166 F 
ENDBRANCH   2  32
TORSDOF 9
ENDMDL
MODEL 9
REMARK VINA RESULT:      -5.6      4.995      7.863
REMARK  9 active torsions:
REMARK  status: ('A' for Active; 'I' for Inactive)
REMARK    1  A    between atoms: C_2  and  C_3 
REMARK    2  A    between atoms: C_2  and  O_32 
REMARK    3  A    between atoms: C_3  and  O_5 
REMARK    4  A    between atoms: O_5  and  C_6 
REMARK    5  A    between atoms: C_7  and  C_28 
REMARK       I    between atoms: C_11  and  N_14 
REMARK    6  A    between atoms: N_14  and  C_15 
REMARK    7  A    between atoms: S_21  and  C_18 
REMARK    8  A    between atoms: S_21  and  N_22 
REMARK    9  A    between atoms: S_21  and  C_25 
ROOT
HETATM    1  C   UNK N   1      29.543  17.656   5.607  0.00  0.00     0.174 A 
HETATM    2  C   UNK N   1      28.256  18.178   5.827  0.00  0.00     0.115 A 
HETATM    3  C   UNK N   1      27.903  18.536   7.135  0.00  0.00     0.126 A 
HETATM    4  N   UNK N   1      28.792  18.389   8.158  0.00  0.00    -0.201 N 
ATOM      5  HN  UNK N   1      28.527  18.662   9.104  1.00  0.00     0.183 HD
HETATM    6  C   UNK N   1      30.025  17.879   7.926  0.00  0.00     0.684 A 
HETATM    7  N   UNK N   1      30.391  17.535   6.662  0.00  0.00    -0.169 N 
ATOM      8  HN  UNK N   1      31.331  17.172   6.502  1.00  0.00     0.186 HD
HETATM    9  N   UNK N   1      30.952  17.717   8.997  0.00  0.00    -0.192 N 
HETATM   10  H   UNK N   1      30.756  18.102   9.882  0.00  0.00     0.184 HD
ENDROOT
BRANCH   9  11
HETATM   11  C   UNK N   1      32.157  16.999   8.786  0.00  0.00     0.049 A 
HETATM   12  C   UNK N   1      33.277  17.672   8.301  0.00  0.00     0.031 A 
HETATM   13  C   UNK N   1      34.366  16.946   7.818  0.00  0.00     0.024 A 
HETATM   14  C   UNK N   1      34.349  15.538   7.826  0.00  0.00     0.038 A 
HETATM   15  C   UNK N   1      33.264  14.867   8.398  0.00  0.00     0.024 A 
HETATM   16  C   UNK N   1      32.170  15.596   8.868  0.00  0.00     0.031 A 
BRANCH  14  17
HETATM   17  S   UNK N   1      35.611  14.622   6.909  0.00  0.00     0.054 S 
HETATM   18  O   UNK N   1      35.588  15.392   5.581  0.00  0.00    -0.245 OA
BRANCH  17  19
HETATM   19  N   UNK N   1      34.303  13.823   6.482  0.00  0.00    -0.356 N 
HETATM   20  H   UNK N   1      33.758  13.145   6.943  0.00  0.00     0.166 HD
ATOM     21  HN  UNK N   1      33.964  14.057   5.550  1.00  0.00     0.166 HD
ENDBRANCH  17  19
BRANCH  17  22
HETATM   22  C   UNK N   1      36.280  13.040   6.297  0.00  0.00     0.092 A 
HETATM   23  C   UNK N   1      37.572  12.721   7.019  0.00  0.00     0.020 A 
HETATM   24  C   UNK N   1      36.298  11.996   7.392  0.00  0.00     0.020 A 
ENDBRANCH  17  22
ENDBRANCH  14  17
ENDBRANCH   9  11
BRANCH   1  25
HETATM   25  O   UNK N   1      29.912  17.219   4.373  0.00  0.00    -0.327 OA
BRANCH  25  26
HETATM   26  C   UNK N   1      30.237  15.920   4.003  0.00  0.00     0.154 C 
HETATM   27  C   UNK N   1      29.555  15.500   2.711  0.00  0.00     0.042 C 
BRANCH  26  28
HETATM   28  C   UNK N   1      31.743  15.830   3.761  0.00  0.00     0.143 C 
HETATM   29  C   UNK N   1      32.273  17.031   3.002  0.00  0.00     0.042 C 
BRANCH  28  30
HETATM   30  O   UNK N   1      32.426  15.714   4.974  0.00  0.00    -0.393 OA
HETATM   31  H   UNK N   1      32.152  16.203   5.766  0.00  0.00     0.210 HD
ENDBRANCH  28  30
ENDBRANCH  26  28
ENDBRANCH  25  26
ENDBRANCH   1  25
BRANCH   2  32
HETATM   32  C   UNK N   1      27.241  18.349   4.719  0.00  0.00     0.422 C 
HETATM   33  F   UNK N   1      26.075  18.864   5.252  0.00  0.00    -0.166 F 
HETATM   34  F   UNK N   1      27.733  19.228   3.772  0.00  0.00    -0.166 F 
HETATM   35  F   UNK N   1      26.947  17.158   4.079  0.00  0.00    -0.166 F 
ENDBRANCH   2  32
TORSDOF 9
ENDMDL
