MODEL 1
REMARK VINA RESULT:      -7.1      0.000      0.000
REMARK  10 active torsions:
REMARK  status: ('A' for Active; 'I' for Inactive)
REMARK    1  A    between atoms: C_7  and  C_5 
REMARK    2  A    between atoms: O_29  and  C_5 
REMARK    3  A    between atoms: O_32  and  C_7 
REMARK    4  A    between atoms: C_11  and  C_10 
REMARK    5  A    between atoms: N_28  and  C_10 
REMARK    6  A    between atoms: C_20  and  C_13 
REMARK    7  A    between atoms: N_25  and  C_15 
REMARK    8  A    between atoms: N_25  and  C_19 
REMARK    9  A    between atoms: O_31  and  C_20 
REMARK   10  A    between atoms: N_26  and  O_32 
ROOT
HETATM    1  C   UNK N   1      31.611  17.335   7.439  0.00  0.00     0.030 A 
HETATM    2  C   UNK N   1      30.558  16.859   6.675  0.00  0.00     0.005 A 
HETATM    3  C   UNK N   1      32.945  17.023   7.164  0.00  0.00     0.047 A 
HETATM    4  C   UNK N   1      30.843  15.985   5.611  0.00  0.00     0.165 A 
HETATM    5  C   UNK N   1      32.175  15.663   5.294  0.00  0.00     0.183 A 
HETATM    6  C   UNK N   1      33.255  16.208   6.044  0.00  0.00     0.089 A 
HETATM    7  F   UNK N   1      29.856  15.426   4.877  0.00  0.00    -0.202 F 
HETATM    8  F   UNK N   1      32.373  14.789   4.283  0.00  0.00    -0.200 F 
ENDROOT
BRANCH   3   9
HETATM    9  C   UNK N   1      33.968  17.549   8.114  0.00  0.00     0.172 C 
HETATM   10  N   UNK N   1      34.061  17.010   9.282  0.00  0.00    -0.244 N 
ATOM     11  HN  UNK N   1      33.401  16.279   9.541  1.00  0.00     0.196 HD
BRANCH  10  12
HETATM   12  O   UNK N   1      34.980  17.373  10.150  0.00  0.00    -0.276 OA
BRANCH  12  13
HETATM   13  C   UNK N   1      35.337  16.493  11.141  0.00  0.00     0.227 C 
BRANCH  13  14
HETATM   14  C   UNK N   1      34.823  15.106  10.828  0.00  0.00     0.192 C 
BRANCH  14  15
HETATM   15  O   UNK N   1      33.500  15.002  11.260  0.00  0.00    -0.399 OA
HETATM   16  H   UNK N   1      32.883  15.738  11.125  0.00  0.00     0.209 HD
ENDBRANCH  14  15
ENDBRANCH  13  14
ENDBRANCH  12  13
ENDBRANCH  10  12
BRANCH   9  17
HETATM   17  O   UNK N   1      34.825  18.528   7.754  0.00  0.00    -0.344 OA
HETATM   18  H   UNK N   1      35.130  18.580   6.868  0.00  0.00     0.219 HD
ENDBRANCH   9  17
ENDBRANCH   3   9
BRANCH   6  19
HETATM   19  N   UNK N   1      34.635  15.926   5.764  0.00  0.00    -0.350 N 
HETATM   20  H   UNK N   1      35.116  16.662   5.323  0.00  0.00     0.166 HD
BRANCH  19  21
HETATM   21  C   UNK N   1      35.432  14.764   6.011  0.00  0.00     0.071 A 
HETATM   22  C   UNK N   1      35.910  14.430   7.286  0.00  0.00     0.034 A 
HETATM   23  C   UNK N   1      36.700  13.293   7.480  0.00  0.00     0.020 A 
HETATM   24  C   UNK N   1      37.001  12.462   6.400  0.00  0.00     0.009 A 
HETATM   25  C   UNK N   1      36.497  12.759   5.133  0.00  0.00     0.062 A 
HETATM   26  I   UNK N   1      38.225  10.772   6.680  0.00  0.00    -0.044 I 
HETATM   27  C   UNK N   1      35.713  13.900   4.938  0.00  0.00     0.144 A 
HETATM   28  F   UNK N   1      35.228  14.170   3.701  0.00  0.00    -0.204 F 
ENDBRANCH  19  21
ENDBRANCH   6  19
BRANCH   2  29
HETATM   29  C   UNK N   1      29.191  17.353   7.094  0.00  0.00     0.201 C 
BRANCH  29  30
HETATM   30  N   UNK N   1      28.526  18.357   6.284  0.00  0.00    -0.222 N 
HETATM   31  C   UNK N   1      27.876  19.387   6.919  0.00  0.00     0.243 C 
HETATM   32  C   UNK N   1      27.259  20.509   6.124  0.00  0.00     0.107 C 
HETATM   33  O   UNK N   1      27.785  19.408   8.137  0.00  0.00    -0.271 OA
HETATM   34  C   UNK N   1      27.430  20.329   4.618  0.00  0.00     0.038 C 
HETATM   35  C   UNK N   1      27.617  18.857   4.297  0.00  0.00     0.202 C 
HETATM   36  O   UNK N   1      28.780  18.409   4.953  0.00  0.00    -0.275 OA
ENDBRANCH  29  30
ENDBRANCH   2  29
TORSDOF 10
ENDMDL
MODEL 2
REMARK VINA RESULT:      -7.1      4.222      8.179
REMARK  10 active torsions:
REMARK  status: ('A' for Active; 'I' for Inactive)
REMARK    1  A    between atoms: C_7  and  C_5 
REMARK    2  A    between atoms: O_29  and  C_5 
REMARK    3  A    between atoms: O_32  and  C_7 
REMARK    4  A    between atoms: C_11  and  C_10 
REMARK    5  A    between atoms: N_28  and  C_10 
REMARK    6  A    between atoms: C_20  and  C_13 
REMARK    7  A    between atoms: N_25  and  C_15 
REMARK    8  A    between atoms: N_25  and  C_19 
REMARK    9  A    between atoms: O_31  and  C_20 
REMARK   10  A    between atoms: N_26  and  O_32 
ROOT
HETATM    1  C   UNK N   1      32.780  17.227   6.191  0.00  0.00     0.030 A 
HETATM    2  C   UNK N   1      32.479  17.431   7.527  0.00  0.00     0.005 A 
HETATM    3  C   UNK N   1      31.797  17.059   5.213  0.00  0.00     0.047 A 
HETATM    4  C   UNK N   1      31.129  17.417   7.920  0.00  0.00     0.165 A 
HETATM    5  C   UNK N   1      30.112  17.269   6.961  0.00  0.00     0.183 A 
HETATM    6  C   UNK N   1      30.428  17.124   5.580  0.00  0.00     0.089 A 
HETATM    7  F   UNK N   1      30.773  17.533   9.219  0.00  0.00    -0.202 F 
HETATM    8  F   UNK N   1      28.839  17.228   7.413  0.00  0.00    -0.200 F 
ENDROOT
BRANCH   3   9
HETATM    9  C   UNK N   1      32.270  16.777   3.826  0.00  0.00     0.172 C 
HETATM   10  N   UNK N   1      33.090  15.799   3.640  0.00  0.00    -0.244 N 
ATOM     11  HN  UNK N   1      33.432  15.282   4.449  1.00  0.00     0.196 HD
BRANCH  10  12
HETATM   12  O   UNK N   1      33.499  15.446   2.441  0.00  0.00    -0.276 OA
BRANCH  12  13
HETATM   13  C   UNK N   1      34.330  14.361   2.319  0.00  0.00     0.227 C 
BRANCH  13  14
HETATM   14  C   UNK N   1      34.122  13.403   3.470  0.00  0.00     0.192 C 
BRANCH  14  15
HETATM   15  O   UNK N   1      32.845  12.849   3.377  0.00  0.00    -0.399 OA
HETATM   16  H   UNK N   1      32.699  11.917   3.603  0.00  0.00     0.209 HD
ENDBRANCH  14  15
ENDBRANCH  13  14
ENDBRANCH  12  13
ENDBRANCH  10  12
BRANCH   9  17
HETATM   17  O   UNK N   1      31.813  17.483   2.770  0.00  0.00    -0.344 OA
HETATM   18  H   UNK N   1      32.390  18.060   2.308  0.00  0.00     0.219 HD
ENDBRANCH   9  17
ENDBRANCH   3   9
BRANCH   6  19
HETATM   19  N   UNK N   1      29.435  16.979   4.553  0.00  0.00    -0.350 N 
HETATM   20  H   UNK N   1      29.570  16.198   3.968  0.00  0.00     0.166 HD
BRANCH  19  21
HETATM   21  C   UNK N   1      28.287  17.767   4.227  0.00  0.00     0.071 A 
HETATM   22  C   UNK N   1      28.261  19.162   4.370  0.00  0.00     0.034 A 
HETATM   23  C   UNK N   1      27.110  19.893   4.055  0.00  0.00     0.020 A 
HETATM   24  C   UNK N   1      25.980  19.236   3.568  0.00  0.00     0.009 A 
HETATM   25  C   UNK N   1      26.006  17.853   3.380  0.00  0.00     0.062 A 
HETATM   26  I   UNK N   1      24.233  20.327   3.132  0.00  0.00    -0.044 I 
HETATM   27  C   UNK N   1      27.154  17.121   3.703  0.00  0.00     0.144 A 
HETATM   28  F   UNK N   1      27.163  15.780   3.508  0.00  0.00    -0.204 F 
ENDBRANCH  19  21
ENDBRANCH   6  19
BRANCH   2  29
HETATM   29  C   UNK N   1      33.677  17.649   8.425  0.00  0.00     0.201 C 
BRANCH  29  30
HETATM   30  N   UNK N   1      34.060  16.602   9.355  0.00  0.00    -0.222 N 
HETATM   31  C   UNK N   1      35.095  16.843  10.225  0.00  0.00     0.243 C 
HETATM   32  C   UNK N   1      35.463  15.829  11.277  0.00  0.00     0.107 C 
HETATM   33  O   UNK N   1      35.734  17.882  10.158  0.00  0.00    -0.271 OA
HETATM   34  C   UNK N   1      34.595  14.575  11.218  0.00  0.00     0.038 C 
HETATM   35  C   UNK N   1      34.032  14.408   9.818  0.00  0.00     0.202 C 
HETATM   36  O   UNK N   1      33.239  15.536   9.527  0.00  0.00    -0.275 OA
ENDBRANCH  29  30
ENDBRANCH   2  29
TORSDOF 10
ENDMDL
MODEL 3
REMARK VINA RESULT:      -7.1      3.416      7.750
REMARK  10 active torsions:
REMARK  status: ('A' for Active; 'I' for Inactive)
REMARK    1  A    between atoms: C_7  and  C_5 
REMARK    2  A    between atoms: O_29  and  C_5 
REMARK    3  A    between atoms: O_32  and  C_7 
REMARK    4  A    between atoms: C_11  and  C_10 
REMARK    5  A    between atoms: N_28  and  C_10 
REMARK    6  A    between atoms: C_20  and  C_13 
REMARK    7  A    between atoms: N_25  and  C_15 
REMARK    8  A    between atoms: N_25  and  C_19 
REMARK    9  A    between atoms: O_31  and  C_20 
REMARK   10  A    between atoms: N_26  and  O_32 
ROOT
HETATM    1  C   UNK N   1      34.636  16.344  10.212  0.00  0.00     0.030 A 
HETATM    2  C   UNK N   1      35.579  15.407  10.598  0.00  0.00     0.005 A 
HETATM    3  C   UNK N   1      34.208  16.483   8.889  0.00  0.00     0.047 A 
HETATM    4  C   UNK N   1      36.168  14.599   9.608  0.00  0.00     0.165 A 
HETATM    5  C   UNK N   1      35.749  14.700   8.269  0.00  0.00     0.183 A 
HETATM    6  C   UNK N   1      34.731  15.621   7.891  0.00  0.00     0.089 A 
HETATM    7  F   UNK N   1      37.149  13.721   9.909  0.00  0.00    -0.202 F 
HETATM    8  F   UNK N   1      36.383  13.920   7.366  0.00  0.00    -0.200 F 
ENDROOT
BRANCH   3   9
HETATM    9  C   UNK N   1      33.238  17.581   8.608  0.00  0.00     0.172 C 
HETATM   10  N   UNK N   1      32.017  17.443   9.001  0.00  0.00    -0.244 N 
ATOM     11  HN  UNK N   1      31.738  16.568   9.443  1.00  0.00     0.196 HD
BRANCH  10  12
HETATM   12  O   UNK N   1      31.120  18.393   8.850  0.00  0.00    -0.276 OA
BRANCH  12  13
HETATM   13  C   UNK N   1      29.947  18.312   9.558  0.00  0.00     0.227 C 
BRANCH  13  14
HETATM   14  C   UNK N   1      28.764  18.271   8.618  0.00  0.00     0.192 C 
BRANCH  14  15
HETATM   15  O   UNK N   1      27.587  18.258   9.367  0.00  0.00    -0.399 OA
HETATM   16  H   UNK N   1      27.478  18.863  10.117  0.00  0.00     0.209 HD
ENDBRANCH  14  15
ENDBRANCH  13  14
ENDBRANCH  12  13
ENDBRANCH  10  12
BRANCH   9  17
HETATM   17  O   UNK N   1      33.626  18.728   8.011  0.00  0.00    -0.344 OA
HETATM   18  H   UNK N   1      33.127  19.512   8.133  0.00  0.00     0.219 HD
ENDBRANCH   9  17
ENDBRANCH   3   9
BRANCH   6  19
HETATM   19  N   UNK N   1      34.255  15.763   6.544  0.00  0.00    -0.350 N 
HETATM   20  H   UNK N   1      34.965  15.895   5.875  0.00  0.00     0.166 HD
BRANCH  19  21
HETATM   21  C   UNK N   1      32.931  15.748   6.001  0.00  0.00     0.071 A 
HETATM   22  C   UNK N   1      32.008  14.730   6.284  0.00  0.00     0.034 A 
HETATM   23  C   UNK N   1      30.729  14.747   5.719  0.00  0.00     0.020 A 
HETATM   24  C   UNK N   1      30.350  15.798   4.883  0.00  0.00     0.009 A 
HETATM   25  C   UNK N   1      31.244  16.839   4.627  0.00  0.00     0.062 A 
HETATM   26  I   UNK N   1      28.441  15.804   3.998  0.00  0.00    -0.044 I 
HETATM   27  C   UNK N   1      32.525  16.819   5.186  0.00  0.00     0.144 A 
HETATM   28  F   UNK N   1      33.378  17.843   4.932  0.00  0.00    -0.204 F 
ENDBRANCH  19  21
ENDBRANCH   6  19
BRANCH   2  29
HETATM   29  C   UNK N   1      35.870  15.369  12.082  0.00  0.00     0.201 C 
BRANCH  29  30
HETATM   30  N   UNK N   1      35.539  14.172  12.834  0.00  0.00    -0.222 N 
HETATM   31  C   UNK N   1      36.041  14.035  14.105  0.00  0.00     0.243 C 
HETATM   32  C   UNK N   1      35.645  12.863  14.964  0.00  0.00     0.107 C 
HETATM   33  O   UNK N   1      36.821  14.861  14.558  0.00  0.00    -0.271 OA
HETATM   34  C   UNK N   1      34.691  11.906  14.253  0.00  0.00     0.038 C 
HETATM   35  C   UNK N   1      34.862  12.036  12.750  0.00  0.00     0.202 C 
HETATM   36  O   UNK N   1      34.549  13.361  12.385  0.00  0.00    -0.275 OA
ENDBRANCH  29  30
ENDBRANCH   2  29
TORSDOF 10
ENDMDL
MODEL 4
REMARK VINA RESULT:      -7.0      4.015      8.267
REMARK  10 active torsions:
REMARK  status: ('A' for Active; 'I' for Inactive)
REMARK    1  A    between atoms: C_7  and  C_5 
REMARK    2  A    between atoms: O_29  and  C_5 
REMARK    3  A    between atoms: O_32  and  C_7 
REMARK    4  A    between atoms: C_11  and  C_10 
REMARK    5  A    between atoms: N_28  and  C_10 
REMARK    6  A    between atoms: C_20  and  C_13 
REMARK    7  A    between atoms: N_25  and  C_15 
REMARK    8  A    between atoms: N_25  and  C_19 
REMARK    9  A    between atoms: O_31  and  C_20 
REMARK   10  A    between atoms: N_26  and  O_32 
ROOT
HETATM    1  C   UNK N   1      34.888  14.674  11.506  0.00  0.00     0.030 A 
HETATM    2  C   UNK N   1      35.945  13.905  11.962  0.00  0.00     0.005 A 
HETATM    3  C   UNK N   1      34.216  14.401  10.312  0.00  0.00     0.047 A 
HETATM    4  C   UNK N   1      36.393  12.838  11.162  0.00  0.00     0.165 A 
HETATM    5  C   UNK N   1      35.730  12.524   9.962  0.00  0.00     0.183 A 
HETATM    6  C   UNK N   1      34.602  13.279   9.534  0.00  0.00     0.089 A 
HETATM    7  F   UNK N   1      37.468  12.100  11.513  0.00  0.00    -0.202 F 
HETATM    8  F   UNK N   1      36.236  11.510   9.227  0.00  0.00    -0.200 F 
ENDROOT
BRANCH   3   9
HETATM    9  C   UNK N   1      33.141  15.356   9.912  0.00  0.00     0.172 C 
HETATM   10  N   UNK N   1      33.478  16.460   9.336  0.00  0.00    -0.244 N 
ATOM     11  HN  UNK N   1      34.468  16.672   9.220  1.00  0.00     0.196 HD
BRANCH  10  12
HETATM   12  O   UNK N   1      32.588  17.321   8.895  0.00  0.00    -0.276 OA
BRANCH  12  13
HETATM   13  C   UNK N   1      33.014  18.382   8.136  0.00  0.00     0.227 C 
BRANCH  13  14
HETATM   14  C   UNK N   1      34.475  18.226   7.781  0.00  0.00     0.192 C 
BRANCH  14  15
HETATM   15  O   UNK N   1      35.224  19.149   8.511  0.00  0.00    -0.399 OA
HETATM   16  H   UNK N   1      34.923  20.068   8.590  0.00  0.00     0.209 HD
ENDBRANCH  14  15
ENDBRANCH  13  14
ENDBRANCH  12  13
ENDBRANCH  10  12
BRANCH   9  17
HETATM   17  O   UNK N   1      31.836  15.060  10.086  0.00  0.00    -0.344 OA
HETATM   18  H   UNK N   1      31.223  15.742  10.282  0.00  0.00     0.219 HD
ENDBRANCH   9  17
ENDBRANCH   3   9
BRANCH   6  19
HETATM   19  N   UNK N   1      33.877  13.001   8.325  0.00  0.00    -0.350 N 
HETATM   20  H   UNK N   1      33.536  12.081   8.261  0.00  0.00     0.166 HD
BRANCH  19  21
HETATM   21  C   UNK N   1      33.565  13.825   7.198  0.00  0.00     0.071 A 
HETATM   22  C   UNK N   1      32.252  14.031   6.750  0.00  0.00     0.034 A 
HETATM   23  C   UNK N   1      31.993  14.832   5.634  0.00  0.00     0.020 A 
HETATM   24  C   UNK N   1      33.047  15.457   4.966  0.00  0.00     0.009 A 
HETATM   25  C   UNK N   1      34.355  15.296   5.426  0.00  0.00     0.062 A 
HETATM   26  I   UNK N   1      32.665  16.630   3.260  0.00  0.00    -0.044 I 
HETATM   27  C   UNK N   1      34.614  14.489   6.538  0.00  0.00     0.144 A 
HETATM   28  F   UNK N   1      35.890  14.349   6.974  0.00  0.00    -0.204 F 
ENDBRANCH  19  21
ENDBRANCH   6  19
BRANCH   2  29
HETATM   29  C   UNK N   1      36.506  14.323  13.303  0.00  0.00     0.201 C 
BRANCH  29  30
HETATM   30  N   UNK N   1      35.924  13.770  14.513  0.00  0.00    -0.222 N 
HETATM   31  C   UNK N   1      36.486  14.100  15.722  0.00  0.00     0.243 C 
HETATM   32  C   UNK N   1      35.859  13.635  17.011  0.00  0.00     0.107 C 
HETATM   33  O   UNK N   1      37.505  14.772  15.771  0.00  0.00    -0.271 OA
HETATM   34  C   UNK N   1      34.611  12.784  16.787  0.00  0.00     0.038 C 
HETATM   35  C   UNK N   1      34.669  12.144  15.411  0.00  0.00     0.202 C 
HETATM   36  O   UNK N   1      34.708  13.173  14.450  0.00  0.00    -0.275 OA
ENDBRANCH  29  30
ENDBRANCH   2  29
TORSDOF 10
ENDMDL
MODEL 5
REMARK VINA RESULT:      -7.0      4.416      5.930
REMARK  10 active torsions:
REMARK  status: ('A' for Active; 'I' for Inactive)
REMARK    1  A    between atoms: C_7  and  C_5 
REMARK    2  A    between atoms: O_29  and  C_5 
REMARK    3  A    between atoms: O_32  and  C_7 
REMARK    4  A    between atoms: C_11  and  C_10 
REMARK    5  A    between atoms: N_28  and  C_10 
REMARK    6  A    between atoms: C_20  and  C_13 
REMARK    7  A    between atoms: N_25  and  C_15 
REMARK    8  A    between atoms: N_25  and  C_19 
REMARK    9  A    between atoms: O_31  and  C_20 
REMARK   10  A    between atoms: N_26  and  O_32 
ROOT
HETATM    1  C   UNK N   1      32.840  14.879   8.023  0.00  0.00     0.030 A 
HETATM    2  C   UNK N   1      32.812  16.263   8.013  0.00  0.00     0.005 A 
HETATM    3  C   UNK N   1      33.760  14.148   8.780  0.00  0.00     0.047 A 
HETATM    4  C   UNK N   1      33.783  16.960   8.755  0.00  0.00     0.165 A 
HETATM    5  C   UNK N   1      34.714  16.259   9.541  0.00  0.00     0.183 A 
HETATM    6  C   UNK N   1      34.694  14.836   9.597  0.00  0.00     0.089 A 
HETATM    7  F   UNK N   1      33.857  18.309   8.724  0.00  0.00    -0.202 F 
HETATM    8  F   UNK N   1      35.640  16.990  10.198  0.00  0.00    -0.200 F 
ENDROOT
BRANCH   3   9
HETATM    9  C   UNK N   1      33.719  12.664   8.638  0.00  0.00     0.172 C 
HETATM   10  N   UNK N   1      32.632  12.044   8.952  0.00  0.00    -0.244 N 
ATOM     11  HN  UNK N   1      31.854  12.578   9.337  1.00  0.00     0.196 HD
BRANCH  10  12
HETATM   12  O   UNK N   1      32.495  10.746   8.793  0.00  0.00    -0.276 OA
BRANCH  12  13
HETATM   13  C   UNK N   1      32.547   9.935   9.899  0.00  0.00     0.227 C 
BRANCH  13  14
HETATM   14  C   UNK N   1      31.767   8.662   9.659  0.00  0.00     0.192 C 
BRANCH  14  15
HETATM   15  O   UNK N   1      30.708   8.932   8.792  0.00  0.00    -0.399 OA
HETATM   16  H   UNK N   1      29.979   9.506   9.076  0.00  0.00     0.209 HD
ENDBRANCH  14  15
ENDBRANCH  13  14
ENDBRANCH  12  13
ENDBRANCH  10  12
BRANCH   9  17
HETATM   17  O   UNK N   1      34.766  11.975   8.137  0.00  0.00    -0.344 OA
HETATM   18  H   UNK N   1      34.618  11.192   7.644  0.00  0.00     0.219 HD
ENDBRANCH   9  17
ENDBRANCH   3   9
BRANCH   6  19
HETATM   19  N   UNK N   1      35.611  14.063  10.389  0.00  0.00    -0.350 N 
HETATM   20  H   UNK N   1      36.455  13.845   9.932  0.00  0.00     0.166 HD
BRANCH  19  21
HETATM   21  C   UNK N   1      35.514  13.555  11.722  0.00  0.00     0.071 A 
HETATM   22  C   UNK N   1      35.072  12.254  12.007  0.00  0.00     0.034 A 
HETATM   23  C   UNK N   1      34.978  11.803  13.327  0.00  0.00     0.020 A 
HETATM   24  C   UNK N   1      35.350  12.642  14.378  0.00  0.00     0.009 A 
HETATM   25  C   UNK N   1      35.832  13.923  14.107  0.00  0.00     0.062 A 
HETATM   26  I   UNK N   1      35.170  11.981  16.368  0.00  0.00    -0.044 I 
HETATM   27  C   UNK N   1      35.920  14.377  12.787  0.00  0.00     0.144 A 
HETATM   28  F   UNK N   1      36.396  15.623  12.543  0.00  0.00    -0.204 F 
ENDBRANCH  19  21
ENDBRANCH   6  19
BRANCH   2  29
HETATM   29  C   UNK N   1      31.707  16.873   7.179  0.00  0.00     0.201 C 
BRANCH  29  30
HETATM   30  N   UNK N   1      30.485  17.303   7.834  0.00  0.00    -0.222 N 
HETATM   31  C   UNK N   1      29.395  17.607   7.056  0.00  0.00     0.243 C 
HETATM   32  C   UNK N   1      28.075  17.959   7.691  0.00  0.00     0.107 C 
HETATM   33  O   UNK N   1      29.480  17.601   5.837  0.00  0.00    -0.271 OA
HETATM   34  C   UNK N   1      28.133  17.953   9.217  0.00  0.00     0.038 C 
HETATM   35  C   UNK N   1      29.561  18.188   9.675  0.00  0.00     0.202 C 
HETATM   36  O   UNK N   1      30.361  17.142   9.175  0.00  0.00    -0.275 OA
ENDBRANCH  29  30
ENDBRANCH   2  29
TORSDOF 10
ENDMDL
MODEL 6
REMARK VINA RESULT:      -6.9      6.827      9.913
REMARK  10 active torsions:
REMARK  status: ('A' for Active; 'I' for Inactive)
REMARK    1  A    between atoms: C_7  and  C_5 
REMARK    2  A    between atoms: O_29  and  C_5 
REMARK    3  A    between atoms: O_32  and  C_7 
REMARK    4  A    between atoms: C_11  and  C_10 
REMARK    5  A    between atoms: N_28  and  C_10 
REMARK    6  A    between atoms: C_20  and  C_13 
REMARK    7  A    between atoms: N_25  and  C_15 
REMARK    8  A    between atoms: N_25  and  C_19 
REMARK    9  A    between atoms: O_31  and  C_20 
REMARK   10  A    between atoms: N_26  and  O_32 
ROOT
HETATM    1  C   UNK N   1      35.364  12.723  12.080  0.00  0.00     0.030 A 
HETATM    2  C   UNK N   1      35.952  13.960  12.281  0.00  0.00     0.005 A 
HETATM    3  C   UNK N   1      34.948  11.904  13.133  0.00  0.00     0.047 A 
HETATM    4  C   UNK N   1      36.185  14.385  13.601  0.00  0.00     0.165 A 
HETATM    5  C   UNK N   1      35.764  13.596  14.686  0.00  0.00     0.183 A 
HETATM    6  C   UNK N   1      35.102  12.355  14.470  0.00  0.00     0.089 A 
HETATM    7  F   UNK N   1      36.825  15.547  13.863  0.00  0.00    -0.202 F 
HETATM    8  F   UNK N   1      36.054  14.049  15.926  0.00  0.00    -0.200 F 
ENDROOT
BRANCH   3   9
HETATM    9  C   UNK N   1      34.395  10.568  12.768  0.00  0.00     0.172 C 
HETATM   10  N   UNK N   1      33.573  10.488  11.778  0.00  0.00    -0.244 N 
ATOM     11  HN  UNK N   1      33.284  11.346  11.308  1.00  0.00     0.196 HD
BRANCH  10  12
HETATM   12  O   UNK N   1      33.095   9.339  11.353  0.00  0.00    -0.276 OA
BRANCH  12  13
HETATM   13  C   UNK N   1      33.178   9.042  10.016  0.00  0.00     0.227 C 
BRANCH  13  14
HETATM   14  C   UNK N   1      33.106  10.305   9.188  0.00  0.00     0.192 C 
BRANCH  14  15
HETATM   15  O   UNK N   1      31.966  11.023   9.549  0.00  0.00    -0.399 OA
HETATM   16  H   UNK N   1      31.800  11.899   9.169  0.00  0.00     0.209 HD
ENDBRANCH  14  15
ENDBRANCH  13  14
ENDBRANCH  12  13
ENDBRANCH  10  12
BRANCH   9  17
HETATM   17  O   UNK N   1      34.783   9.446  13.412  0.00  0.00    -0.344 OA
HETATM   18  H   UNK N   1      34.151   8.786  13.624  0.00  0.00     0.219 HD
ENDBRANCH   9  17
ENDBRANCH   3   9
BRANCH   6  19
HETATM   19  N   UNK N   1      34.640  11.509  15.535  0.00  0.00    -0.350 N 
HETATM   20  H   UNK N   1      33.687  11.270  15.477  0.00  0.00     0.166 HD
BRANCH  19  21
HETATM   21  C   UNK N   1      35.318  10.955  16.666  0.00  0.00     0.071 A 
HETATM   22  C   UNK N   1      36.073   9.775  16.593  0.00  0.00     0.034 A 
HETATM   23  C   UNK N   1      36.708   9.260  17.728  0.00  0.00     0.020 A 
HETATM   24  C   UNK N   1      36.613   9.935  18.945  0.00  0.00     0.009 A 
HETATM   25  C   UNK N   1      35.901  11.132  19.023  0.00  0.00     0.062 A 
HETATM   26  I   UNK N   1      37.532   9.140  20.664  0.00  0.00    -0.044 I 
HETATM   27  C   UNK N   1      35.260  11.644  17.890  0.00  0.00     0.144 A 
HETATM   28  F   UNK N   1      34.578  12.812  17.983  0.00  0.00    -0.204 F 
ENDBRANCH  19  21
ENDBRANCH   6  19
BRANCH   2  29
HETATM   29  C   UNK N   1      36.281  14.723  11.017  0.00  0.00     0.201 C 
BRANCH  29  30
HETATM   30  N   UNK N   1      35.197  15.162  10.157  0.00  0.00    -0.222 N 
HETATM   31  C   UNK N   1      35.004  16.510   9.979  0.00  0.00     0.243 C 
HETATM   32  C   UNK N   1      33.960  17.015   9.018  0.00  0.00     0.107 C 
HETATM   33  O   UNK N   1      35.674  17.321  10.602  0.00  0.00    -0.271 OA
HETATM   34  C   UNK N   1      33.188  15.887   8.338  0.00  0.00     0.038 C 
HETATM   35  C   UNK N   1      33.234  14.641   9.206  0.00  0.00     0.202 C 
HETATM   36  O   UNK N   1      34.582  14.259   9.353  0.00  0.00    -0.275 OA
ENDBRANCH  29  30
ENDBRANCH   2  29
TORSDOF 10
ENDMDL
MODEL 7
REMARK VINA RESULT:      -6.9      5.037      9.553
REMARK  10 active torsions:
REMARK  status: ('A' for Active; 'I' for Inactive)
REMARK    1  A    between atoms: C_7  and  C_5 
REMARK    2  A    between atoms: O_29  and  C_5 
REMARK    3  A    between atoms: O_32  and  C_7 
REMARK    4  A    between atoms: C_11  and  C_10 
REMARK    5  A    between atoms: N_28  and  C_10 
REMARK    6  A    between atoms: C_20  and  C_13 
REMARK    7  A    between atoms: N_25  and  C_15 
REMARK    8  A    between atoms: N_25  and  C_19 
REMARK    9  A    between atoms: O_31  and  C_20 
REMARK   10  A    between atoms: N_26  and  O_32 
ROOT
HETATM    1  C   UNK N   1      29.545  16.941   6.177  0.00  0.00     0.030 A 
HETATM    2  C   UNK N   1      29.475  17.503   7.441  0.00  0.00     0.005 A 
HETATM    3  C   UNK N   1      28.822  17.436   5.089  0.00  0.00     0.047 A 
HETATM    4  C   UNK N   1      28.600  18.585   7.646  0.00  0.00     0.165 A 
HETATM    5  C   UNK N   1      27.870  19.122   6.570  0.00  0.00     0.183 A 
HETATM    6  C   UNK N   1      27.998  18.578   5.260  0.00  0.00     0.089 A 
HETATM    7  F   UNK N   1      28.428  19.128   8.871  0.00  0.00    -0.202 F 
HETATM    8  F   UNK N   1      27.022  20.136   6.846  0.00  0.00    -0.200 F 
ENDROOT
BRANCH   3   9
HETATM    9  C   UNK N   1      28.942  16.686   3.805  0.00  0.00     0.172 C 
HETATM   10  N   UNK N   1      28.195  15.651   3.622  0.00  0.00    -0.244 N 
ATOM     11  HN  UNK N   1      27.585  15.344   4.378  1.00  0.00     0.196 HD
BRANCH  10  12
HETATM   12  O   UNK N   1      28.195  14.978   2.492  0.00  0.00    -0.276 OA
BRANCH  12  13
HETATM   13  C   UNK N   1      27.324  13.926   2.350  0.00  0.00     0.227 C 
BRANCH  13  14
HETATM   14  C   UNK N   1      25.897  14.393   2.529  0.00  0.00     0.192 C 
BRANCH  14  15
HETATM   15  O   UNK N   1      25.745  15.640   1.923  0.00  0.00    -0.399 OA
HETATM   16  H   UNK N   1      25.528  15.701   0.979  0.00  0.00     0.209 HD
ENDBRANCH  14  15
ENDBRANCH  13  14
ENDBRANCH  12  13
ENDBRANCH  10  12
BRANCH   9  17
HETATM   17  O   UNK N   1      29.767  17.104   2.821  0.00  0.00    -0.344 OA
HETATM   18  H   UNK N   1      30.230  17.914   2.911  0.00  0.00     0.219 HD
ENDBRANCH   9  17
ENDBRANCH   3   9
BRANCH   6  19
HETATM   19  N   UNK N   1      27.287  19.087   4.121  0.00  0.00    -0.350 N 
HETATM   20  H   UNK N   1      27.866  19.363   3.374  0.00  0.00     0.166 HD
BRANCH  19  21
HETATM   21  C   UNK N   1      25.889  19.266   3.879  0.00  0.00     0.071 A 
HETATM   22  C   UNK N   1      24.909  18.444   4.455  0.00  0.00     0.034 A 
HETATM   23  C   UNK N   1      23.553  18.645   4.179  0.00  0.00     0.020 A 
HETATM   24  C   UNK N   1      23.160  19.689   3.340  0.00  0.00     0.009 A 
HETATM   25  C   UNK N   1      24.121  20.541   2.794  0.00  0.00     0.062 A 
HETATM   26  I   UNK N   1      21.123  19.968   2.889  0.00  0.00    -0.044 I 
HETATM   27  C   UNK N   1      25.478  20.336   3.065  0.00  0.00     0.144 A 
HETATM   28  F   UNK N   1      26.397  21.177   2.530  0.00  0.00    -0.204 F 
ENDBRANCH  19  21
ENDBRANCH   6  19
BRANCH   2  29
HETATM   29  C   UNK N   1      30.374  16.863   8.475  0.00  0.00     0.201 C 
BRANCH  29  30
HETATM   30  N   UNK N   1      31.814  16.947   8.305  0.00  0.00    -0.222 N 
HETATM   31  C   UNK N   1      32.586  15.891   8.722  0.00  0.00     0.243 C 
HETATM   32  C   UNK N   1      34.073  15.885   8.475  0.00  0.00     0.107 C 
HETATM   33  O   UNK N   1      32.081  14.941   9.302  0.00  0.00    -0.271 OA
HETATM   34  C   UNK N   1      34.559  17.147   7.768  0.00  0.00     0.038 C 
HETATM   35  C   UNK N   1      33.591  18.286   8.031  0.00  0.00     0.202 C 
HETATM   36  O   UNK N   1      32.332  17.921   7.516  0.00  0.00    -0.275 OA
ENDBRANCH  29  30
ENDBRANCH   2  29
TORSDOF 10
ENDMDL
MODEL 8
REMARK VINA RESULT:      -6.8     13.026     16.521
REMARK  10 active torsions:
REMARK  status: ('A' for Active; 'I' for Inactive)
REMARK    1  A    between atoms: C_7  and  C_5 
REMARK    2  A    between atoms: O_29  and  C_5 
REMARK    3  A    between atoms: O_32  and  C_7 
REMARK    4  A    between atoms: C_11  and  C_10 
REMARK    5  A    between atoms: N_28  and  C_10 
REMARK    6  A    between atoms: C_20  and  C_13 
REMARK    7  A    between atoms: N_25  and  C_15 
REMARK    8  A    between atoms: N_25  and  C_19 
REMARK    9  A    between atoms: O_31  and  C_20 
REMARK   10  A    between atoms: N_26  and  O_32 
ROOT
HETATM    1  C   UNK N   1      26.749  26.102  -3.616  0.00  0.00     0.030 A 
HETATM    2  C   UNK N   1      25.987  27.038  -4.295  0.00  0.00     0.005 A 
HETATM    3  C   UNK N   1      27.037  24.840  -4.141  0.00  0.00     0.047 A 
HETATM    4  C   UNK N   1      25.439  26.682  -5.541  0.00  0.00     0.165 A 
HETATM    5  C   UNK N   1      25.722  25.426  -6.107  0.00  0.00     0.183 A 
HETATM    6  C   UNK N   1      26.560  24.494  -5.432  0.00  0.00     0.089 A 
HETATM    7  F   UNK N   1      24.624  27.521  -6.216  0.00  0.00    -0.202 F 
HETATM    8  F   UNK N   1      25.134  25.137  -7.288  0.00  0.00    -0.200 F 
ENDROOT
BRANCH   3   9
HETATM    9  C   UNK N   1      27.810  23.909  -3.268  0.00  0.00     0.172 C 
HETATM   10  N   UNK N   1      29.004  23.575  -3.625  0.00  0.00    -0.244 N 
ATOM     11  HN  UNK N   1      29.363  23.912  -4.517  1.00  0.00     0.196 HD
BRANCH  10  12
HETATM   12  O   UNK N   1      29.772  22.814  -2.877  0.00  0.00    -0.276 OA
BRANCH  12  13
HETATM   13  C   UNK N   1      31.131  23.003  -2.918  0.00  0.00     0.227 C 
BRANCH  13  14
HETATM   14  C   UNK N   1      31.840  21.697  -3.192  0.00  0.00     0.192 C 
BRANCH  14  15
HETATM   15  O   UNK N   1      32.501  21.284  -2.035  0.00  0.00    -0.399 OA
HETATM   16  H   UNK N   1      32.134  21.494  -1.162  0.00  0.00     0.209 HD
ENDBRANCH  14  15
ENDBRANCH  13  14
ENDBRANCH  12  13
ENDBRANCH  10  12
BRANCH   9  17
HETATM   17  O   UNK N   1      27.310  23.465  -2.095  0.00  0.00    -0.344 OA
HETATM   18  H   UNK N   1      26.707  22.746  -2.086  0.00  0.00     0.219 HD
ENDBRANCH   9  17
ENDBRANCH   3   9
BRANCH   6  19
HETATM   19  N   UNK N   1      26.894  23.202  -5.963  0.00  0.00    -0.350 N 
HETATM   20  H   UNK N   1      27.275  22.580  -5.302  0.00  0.00     0.166 HD
BRANCH  19  21
HETATM   21  C   UNK N   1      26.773  22.660  -7.281  0.00  0.00     0.071 A 
HETATM   22  C   UNK N   1      27.739  22.865  -8.276  0.00  0.00     0.034 A 
HETATM   23  C   UNK N   1      27.572  22.329  -9.557  0.00  0.00     0.020 A 
HETATM   24  C   UNK N   1      26.445  21.559  -9.849  0.00  0.00     0.009 A 
HETATM   25  C   UNK N   1      25.497  21.311  -8.856  0.00  0.00     0.062 A 
HETATM   26  I   UNK N   1      26.170  20.786 -11.787  0.00  0.00    -0.044 I 
HETATM   27  C   UNK N   1      25.660  21.853  -7.577  0.00  0.00     0.144 A 
HETATM   28  F   UNK N   1      24.731  21.597  -6.623  0.00  0.00    -0.204 F 
ENDBRANCH  19  21
ENDBRANCH   6  19
BRANCH   2  29
HETATM   29  C   UNK N   1      25.833  28.368  -3.590  0.00  0.00     0.201 C 
BRANCH  29  30
HETATM   30  N   UNK N   1      27.022  29.137  -3.270  0.00  0.00    -0.222 N 
HETATM   31  C   UNK N   1      27.651  29.823  -4.280  0.00  0.00     0.243 C 
HETATM   32  C   UNK N   1      28.827  30.717  -3.981  0.00  0.00     0.107 C 
HETATM   33  O   UNK N   1      27.271  29.716  -5.436  0.00  0.00    -0.271 OA
HETATM   34  C   UNK N   1      29.202  30.726  -2.501  0.00  0.00     0.038 C 
HETATM   35  C   UNK N   1      28.726  29.441  -1.846  0.00  0.00     0.202 C 
HETATM   36  O   UNK N   1      27.325  29.378  -1.970  0.00  0.00    -0.275 OA
ENDBRANCH  29  30
ENDBRANCH   2  29
TORSDOF 10
ENDMDL
MODEL 9
REMARK VINA RESULT:      -6.8     11.990     15.324
REMARK  10 active torsions:
REMARK  status: ('A' for Active; 'I' for Inactive)
REMARK    1  A    between atoms: C_7  and  C_5 
REMARK    2  A    between atoms: O_29  and  C_5 
REMARK    3  A    between atoms: O_32  and  C_7 
REMARK    4  A    between atoms: C_11  and  C_10 
REMARK    5  A    between atoms: N_28  and  C_10 
REMARK    6  A    between atoms: C_20  and  C_13 
REMARK    7  A    between atoms: N_25  and  C_15 
REMARK    8  A    between atoms: N_25  and  C_19 
REMARK    9  A    between atoms: O_31  and  C_20 
REMARK   10  A    between atoms: N_26  and  O_32 
ROOT
HETATM    1  C   UNK N   1      45.708  20.547   3.685  0.00  0.00     0.030 A 
HETATM    2  C   UNK N   1      45.926  19.194   3.489  0.00  0.00     0.005 A 
HETATM    3  C   UNK N   1      44.458  21.144   3.502  0.00  0.00     0.047 A 
HETATM    4  C   UNK N   1      44.856  18.400   3.038  0.00  0.00     0.165 A 
HETATM    5  C   UNK N   1      43.580  18.963   2.860  0.00  0.00     0.183 A 
HETATM    6  C   UNK N   1      43.349  20.342   3.126  0.00  0.00     0.089 A 
HETATM    7  F   UNK N   1      45.024  17.090   2.754  0.00  0.00    -0.202 F 
HETATM    8  F   UNK N   1      42.608  18.151   2.390  0.00  0.00    -0.200 F 
ENDROOT
BRANCH   3   9
HETATM    9  C   UNK N   1      44.386  22.624   3.681  0.00  0.00     0.172 C 
HETATM   10  N   UNK N   1      45.081  23.375   2.896  0.00  0.00    -0.244 N 
ATOM     11  HN  UNK N   1      45.697  22.937   2.213  1.00  0.00     0.196 HD
BRANCH  10  12
HETATM   12  O   UNK N   1      45.021  24.688   2.946  0.00  0.00    -0.276 OA
BRANCH  12  13
HETATM   13  C   UNK N   1      45.902  25.420   2.191  0.00  0.00     0.227 C 
BRANCH  13  14
HETATM   14  C   UNK N   1      45.320  25.703   0.825  0.00  0.00     0.192 C 
BRANCH  14  15
HETATM   15  O   UNK N   1      43.964  25.375   0.830  0.00  0.00    -0.399 OA
HETATM   16  H   UNK N   1      43.540  25.039   0.025  0.00  0.00     0.209 HD
ENDBRANCH  14  15
ENDBRANCH  13  14
ENDBRANCH  12  13
ENDBRANCH  10  12
BRANCH   9  17
HETATM   17  O   UNK N   1      43.572  23.183   4.601  0.00  0.00    -0.344 OA
HETATM   18  H   UNK N   1      42.643  23.073   4.532  0.00  0.00     0.219 HD
ENDBRANCH   9  17
ENDBRANCH   3   9
BRANCH   6  19
HETATM   19  N   UNK N   1      42.068  20.973   2.974  0.00  0.00    -0.350 N 
HETATM   20  H   UNK N   1      41.620  21.191   3.823  0.00  0.00     0.166 HD
BRANCH  19  21
HETATM   21  C   UNK N   1      41.326  21.340   1.806  0.00  0.00     0.071 A 
HETATM   22  C   UNK N   1      40.656  20.401   1.008  0.00  0.00     0.034 A 
HETATM   23  C   UNK N   1      39.956  20.803  -0.134  0.00  0.00     0.020 A 
HETATM   24  C   UNK N   1      39.897  22.154  -0.476  0.00  0.00     0.009 A 
HETATM   25  C   UNK N   1      40.523  23.104   0.333  0.00  0.00     0.062 A 
HETATM   26  I   UNK N   1      38.879  22.757  -2.217  0.00  0.00    -0.044 I 
HETATM   27  C   UNK N   1      41.230  22.702   1.471  0.00  0.00     0.144 A 
HETATM   28  F   UNK N   1      41.827  23.639   2.248  0.00  0.00    -0.204 F 
ENDBRANCH  19  21
ENDBRANCH   6  19
BRANCH   2  29
HETATM   29  C   UNK N   1      47.332  18.724   3.793  0.00  0.00     0.201 C 
BRANCH  29  30
HETATM   30  N   UNK N   1      47.526  17.395   4.342  0.00  0.00    -0.222 N 
HETATM   31  C   UNK N   1      48.062  16.423   3.533  0.00  0.00     0.243 C 
HETATM   32  C   UNK N   1      48.379  15.056   4.085  0.00  0.00     0.107 C 
HETATM   33  O   UNK N   1      48.286  16.649   2.354  0.00  0.00    -0.271 OA
HETATM   34  C   UNK N   1      48.019  14.918   5.562  0.00  0.00     0.038 C 
HETATM   35  C   UNK N   1      46.933  15.916   5.919  0.00  0.00     0.202 C 
HETATM   36  O   UNK N   1      47.432  17.212   5.683  0.00  0.00    -0.275 OA
ENDBRANCH  29  30
ENDBRANCH   2  29
TORSDOF 10
ENDMDL
