MODEL 1
REMARK VINA RESULT:      -5.8      0.000      0.000
REMARK  7 active torsions:
REMARK  status: ('A' for Active; 'I' for Inactive)
REMARK    1  A    between atoms: C_3  and  O_19 
REMARK    2  A    between atoms: C_4  and  N_8 
REMARK    3  A    between atoms: C_5  and  O_7 
REMARK       I    between atoms: N_8  and  C_9 
REMARK       I    between atoms: C_9  and  N_11 
REMARK    4  A    between atoms: N_11  and  C_12 
REMARK    5  A    between atoms: N_11  and  N_15 
REMARK    6  A    between atoms: C_12  and  C_13 
REMARK    7  A    between atoms: N_15  and  O_17 
ROOT
HETATM    1  N   UNK N   1      26.830  18.762   6.019  0.00  0.00    -0.332 N 
HETATM    2  C   UNK N   1      28.042  18.189   6.270  0.00  0.00     0.339 C 
HETATM    3  O   UNK N   1      28.723  17.738   5.364  0.00  0.00    -0.245 OA
HETATM    4  N   UNK N   1      28.485  18.104   7.555  0.00  0.00    -0.222 N 
HETATM    5  H   UNK N   1      26.338  19.056   6.820  0.00  0.00     0.164 HD
ENDROOT
BRANCH   1   6
HETATM    6  C   UNK N   1      26.145  19.012   4.751  0.00  0.00     0.143 C 
HETATM    7  C   UNK N   1      26.579  20.272   3.961  0.00  0.00     0.143 C 
HETATM    8  C   UNK N   1      25.712  20.457   2.713  0.00  0.00     0.034 C 
HETATM    9  C   UNK N   1      24.231  20.490   3.058  0.00  0.00     0.005 C 
HETATM   10  C   UNK N   1      23.845  19.189   3.740  0.00  0.00     0.034 C 
HETATM   11  C   UNK N   1      24.636  19.037   5.031  0.00  0.00     0.143 C 
BRANCH   7  12
HETATM   12  O   UNK N   1      27.896  20.144   3.521  0.00  0.00    -0.393 OA
HETATM   13  H   UNK N   1      28.611  20.798   3.556  0.00  0.00     0.210 HD
ENDBRANCH   7  12
BRANCH  11  14
HETATM   14  O   UNK N   1      24.248  17.854   5.662  0.00  0.00    -0.393 OA
HETATM   15  H   UNK N   1      24.838  17.119   5.893  0.00  0.00     0.210 HD
ENDBRANCH  11  14
ENDBRANCH   1   6
BRANCH   4  16
HETATM   16  C   UNK N   1      29.741  17.439   7.840  0.00  0.00     0.171 C 
BRANCH  16  17
HETATM   17  C   UNK N   1      30.581  18.308   8.760  0.00  0.00     0.136 C 
HETATM   18 Cl   UNK N   1      32.302  18.039   8.404  0.00  0.00    -0.129 Cl
ENDBRANCH  16  17
ENDBRANCH   4  16
BRANCH   4  19
HETATM   19  N   UNK N   1      27.737  18.652   8.576  0.00  0.00    -0.204 N 
ATOM     20  HN  UNK N   1      27.529  19.651   8.566  1.00  0.00     0.216 HD
BRANCH  19  21
HETATM   21  O   UNK N   1      27.330  17.978   9.473  0.00  0.00    -0.274 OA
ATOM     22  HO  UNK N   1      27.752  17.158   9.702  1.00  0.00     0.246 HD
ENDBRANCH  19  21
ENDBRANCH   4  19
TORSDOF 7
ENDMDL
MODEL 2
REMARK VINA RESULT:      -5.6      5.302      7.264
REMARK  7 active torsions:
REMARK  status: ('A' for Active; 'I' for Inactive)
REMARK    1  A    between atoms: C_3  and  O_19 
REMARK    2  A    between atoms: C_4  and  N_8 
REMARK    3  A    between atoms: C_5  and  O_7 
REMARK       I    between atoms: N_8  and  C_9 
REMARK       I    between atoms: C_9  and  N_11 
REMARK    4  A    between atoms: N_11  and  C_12 
REMARK    5  A    between atoms: N_11  and  N_15 
REMARK    6  A    between atoms: C_12  and  C_13 
REMARK    7  A    between atoms: N_15  and  O_17 
ROOT
HETATM    1  N   UNK N   1      32.940  16.527   8.245  0.00  0.00    -0.332 N 
HETATM    2  C   UNK N   1      33.936  16.924   9.087  0.00  0.00     0.339 C 
HETATM    3  O   UNK N   1      34.563  17.951   8.879  0.00  0.00    -0.245 OA
HETATM    4  N   UNK N   1      34.247  16.149  10.162  0.00  0.00    -0.222 N 
HETATM    5  H   UNK N   1      32.524  15.664   8.473  0.00  0.00     0.164 HD
ENDROOT
BRANCH   1   6
HETATM    6  C   UNK N   1      32.387  17.179   7.058  0.00  0.00     0.143 C 
HETATM    7  C   UNK N   1      30.925  16.827   6.686  0.00  0.00     0.143 C 
HETATM    8  C   UNK N   1      30.519  17.503   5.374  0.00  0.00     0.034 C 
HETATM    9  C   UNK N   1      31.484  17.166   4.247  0.00  0.00     0.005 C 
HETATM   10  C   UNK N   1      32.881  17.625   4.628  0.00  0.00     0.034 C 
HETATM   11  C   UNK N   1      33.332  16.892   5.883  0.00  0.00     0.143 C 
BRANCH   7  12
HETATM   12  O   UNK N   1      30.047  17.289   7.666  0.00  0.00    -0.393 OA
HETATM   13  H   UNK N   1      30.076  18.124   8.159  0.00  0.00     0.210 HD
ENDBRANCH   7  12
BRANCH  11  14
HETATM   14  O   UNK N   1      34.628  17.299   6.203  0.00  0.00    -0.393 OA
HETATM   15  H   UNK N   1      35.443  16.945   5.812  0.00  0.00     0.210 HD
ENDBRANCH  11  14
ENDBRANCH   1   6
BRANCH   4  16
HETATM   16  C   UNK N   1      35.347  16.527  11.028  0.00  0.00     0.171 C 
BRANCH  16  17
HETATM   17  C   UNK N   1      36.241  15.324  11.272  0.00  0.00     0.136 C 
HETATM   18 Cl   UNK N   1      36.135  14.859  12.984  0.00  0.00    -0.129 Cl
ENDBRANCH  16  17
ENDBRANCH   4  16
BRANCH   4  19
HETATM   19  N   UNK N   1      33.512  15.011  10.424  0.00  0.00    -0.204 N 
ATOM     20  HN  UNK N   1      33.938  14.095  10.283  1.00  0.00     0.216 HD
BRANCH  19  21
HETATM   21  O   UNK N   1      32.385  15.081  10.813  0.00  0.00    -0.274 OA
ATOM     22  HO  UNK N   1      31.687  15.383  10.243  1.00  0.00     0.246 HD
ENDBRANCH  19  21
ENDBRANCH   4  19
TORSDOF 7
ENDMDL
MODEL 3
REMARK VINA RESULT:      -5.6     10.618     12.435
REMARK  7 active torsions:
REMARK  status: ('A' for Active; 'I' for Inactive)
REMARK    1  A    between atoms: C_3  and  O_19 
REMARK    2  A    between atoms: C_4  and  N_8 
REMARK    3  A    between atoms: C_5  and  O_7 
REMARK       I    between atoms: N_8  and  C_9 
REMARK       I    between atoms: C_9  and  N_11 
REMARK    4  A    between atoms: N_11  and  C_12 
REMARK    5  A    between atoms: N_11  and  N_15 
REMARK    6  A    between atoms: C_12  and  C_13 
REMARK    7  A    between atoms: N_15  and  O_17 
ROOT
HETATM    1  N   UNK N   1      36.568  14.675  12.669  0.00  0.00    -0.332 N 
HETATM    2  C   UNK N   1      35.693  13.970  13.443  0.00  0.00     0.339 C 
HETATM    3  O   UNK N   1      34.627  13.581  12.992  0.00  0.00    -0.245 OA
HETATM    4  N   UNK N   1      36.008  13.718  14.743  0.00  0.00    -0.222 N 
HETATM    5  H   UNK N   1      37.378  14.981  13.136  0.00  0.00     0.164 HD
ENDROOT
BRANCH   1   6
HETATM    6  C   UNK N   1      36.495  15.046  11.257  0.00  0.00     0.143 C 
HETATM    7  C   UNK N   1      35.150  15.630  10.758  0.00  0.00     0.143 C 
HETATM    8  C   UNK N   1      35.190  15.877   9.247  0.00  0.00     0.034 C 
HETATM    9  C   UNK N   1      35.577  14.620   8.483  0.00  0.00     0.005 C 
HETATM   10  C   UNK N   1      36.947  14.153   8.945  0.00  0.00     0.034 C 
HETATM   11  C   UNK N   1      36.896  13.817  10.428  0.00  0.00     0.143 C 
BRANCH   7  12
HETATM   12  O   UNK N   1      34.898  16.862  11.360  0.00  0.00    -0.393 OA
HETATM   13  H   UNK N   1      35.369  17.702  11.240  0.00  0.00     0.210 HD
ENDBRANCH   7  12
BRANCH  11  14
HETATM   14  O   UNK N   1      38.151  13.359  10.831  0.00  0.00    -0.393 OA
HETATM   15  H   UNK N   1      38.328  12.513  11.272  0.00  0.00     0.210 HD
ENDBRANCH  11  14
ENDBRANCH   1   6
BRANCH   4  16
HETATM   16  C   UNK N   1      35.058  13.027  15.593  0.00  0.00     0.171 C 
BRANCH  16  17
HETATM   17  C   UNK N   1      35.315  13.388  17.045  0.00  0.00     0.136 C 
HETATM   18 Cl   UNK N   1      35.342  11.901  18.019  0.00  0.00    -0.129 Cl
ENDBRANCH  16  17
ENDBRANCH   4  16
BRANCH   4  19
HETATM   19  N   UNK N   1      37.230  14.118  15.243  0.00  0.00    -0.204 N 
ATOM     20  HN  UNK N   1      37.866  13.421  15.632  1.00  0.00     0.216 HD
BRANCH  19  21
HETATM   21  O   UNK N   1      37.556  15.266  15.230  0.00  0.00    -0.274 OA
ATOM     22  HO  UNK N   1      38.423  15.527  14.944  1.00  0.00     0.246 HD
ENDBRANCH  19  21
ENDBRANCH   4  19
TORSDOF 7
ENDMDL
MODEL 4
REMARK VINA RESULT:      -5.5      4.607      6.420
REMARK  7 active torsions:
REMARK  status: ('A' for Active; 'I' for Inactive)
REMARK    1  A    between atoms: C_3  and  O_19 
REMARK    2  A    between atoms: C_4  and  N_8 
REMARK    3  A    between atoms: C_5  and  O_7 
REMARK       I    between atoms: N_8  and  C_9 
REMARK       I    between atoms: C_9  and  N_11 
REMARK    4  A    between atoms: N_11  and  C_12 
REMARK    5  A    between atoms: N_11  and  N_15 
REMARK    6  A    between atoms: C_12  and  C_13 
REMARK    7  A    between atoms: N_15  and  O_17 
ROOT
HETATM    1  N   UNK N   1      31.911  16.901   8.974  0.00  0.00    -0.332 N 
HETATM    2  C   UNK N   1      32.723  15.817   9.131  0.00  0.00     0.339 C 
HETATM    3  O   UNK N   1      32.352  14.701   8.808  0.00  0.00    -0.245 OA
HETATM    4  N   UNK N   1      33.960  15.986   9.676  0.00  0.00    -0.222 N 
HETATM    5  H   UNK N   1      32.284  17.750   9.304  0.00  0.00     0.164 HD
ENDROOT
BRANCH   1   6
HETATM    6  C   UNK N   1      30.573  17.004   8.391  0.00  0.00     0.143 C 
HETATM    7  C   UNK N   1      30.477  16.917   6.847  0.00  0.00     0.143 C 
HETATM    8  C   UNK N   1      29.037  17.140   6.378  0.00  0.00     0.034 C 
HETATM    9  C   UNK N   1      28.471  18.450   6.905  0.00  0.00     0.005 C 
HETATM   10  C   UNK N   1      28.500  18.435   8.423  0.00  0.00     0.034 C 
HETATM   11  C   UNK N   1      29.938  18.305   8.903  0.00  0.00     0.143 C 
BRANCH   7  12
HETATM   12  O   UNK N   1      30.853  15.649   6.405  0.00  0.00    -0.393 OA
HETATM   13  H   UNK N   1      31.388  15.413   5.631  0.00  0.00     0.210 HD
ENDBRANCH   7  12
BRANCH  11  14
HETATM   14  O   UNK N   1      29.952  18.324  10.299  0.00  0.00    -0.393 OA
HETATM   15  H   UNK N   1      29.193  18.527  10.868  0.00  0.00     0.210 HD
ENDBRANCH  11  14
ENDBRANCH   1   6
BRANCH   4  16
HETATM   16  C   UNK N   1      34.808  14.833   9.907  0.00  0.00     0.171 C 
BRANCH  16  17
HETATM   17  C   UNK N   1      34.629  14.346  11.334  0.00  0.00     0.136 C 
HETATM   18 Cl   UNK N   1      35.948  14.988  12.338  0.00  0.00    -0.129 Cl
ENDBRANCH  16  17
ENDBRANCH   4  16
BRANCH   4  19
HETATM   19  N   UNK N   1      34.400  17.253  10.001  0.00  0.00    -0.204 N 
ATOM     20  HN  UNK N   1      33.718  17.982  10.211  1.00  0.00     0.216 HD
BRANCH  19  21
HETATM   21  O   UNK N   1      35.565  17.510  10.039  0.00  0.00    -0.274 OA
ATOM     22  HO  UNK N   1      36.005  17.907   9.297  1.00  0.00     0.246 HD
ENDBRANCH  19  21
ENDBRANCH   4  19
TORSDOF 7
ENDMDL
MODEL 5
REMARK VINA RESULT:      -5.4      4.478      6.227
REMARK  7 active torsions:
REMARK  status: ('A' for Active; 'I' for Inactive)
REMARK    1  A    between atoms: C_3  and  O_19 
REMARK    2  A    between atoms: C_4  and  N_8 
REMARK    3  A    between atoms: C_5  and  O_7 
REMARK       I    between atoms: N_8  and  C_9 
REMARK       I    between atoms: C_9  and  N_11 
REMARK    4  A    between atoms: N_11  and  C_12 
REMARK    5  A    between atoms: N_11  and  N_15 
REMARK    6  A    between atoms: C_12  and  C_13 
REMARK    7  A    between atoms: N_15  and  O_17 
ROOT
HETATM    1  N   UNK N   1      31.656  16.781   8.851  0.00  0.00    -0.332 N 
HETATM    2  C   UNK N   1      33.008  16.959   8.855  0.00  0.00     0.339 C 
HETATM    3  O   UNK N   1      33.517  17.925   8.310  0.00  0.00    -0.245 OA
HETATM    4  N   UNK N   1      33.800  16.031   9.461  0.00  0.00    -0.222 N 
HETATM    5  H   UNK N   1      31.347  15.950   9.278  0.00  0.00     0.164 HD
ENDROOT
BRANCH   1   6
HETATM    6  C   UNK N   1      30.592  17.629   8.314  0.00  0.00     0.143 C 
HETATM    7  C   UNK N   1      29.359  17.859   9.223  0.00  0.00     0.143 C 
HETATM    8  C   UNK N   1      28.291  18.678   8.495  0.00  0.00     0.034 C 
HETATM    9  C   UNK N   1      27.902  18.041   7.169  0.00  0.00     0.005 C 
HETATM   10  C   UNK N   1      29.131  17.933   6.284  0.00  0.00     0.034 C 
HETATM   11  C   UNK N   1      30.167  17.046   6.959  0.00  0.00     0.143 C 
BRANCH   7  12
HETATM   12  O   UNK N   1      29.718  18.585  10.358  0.00  0.00    -0.393 OA
HETATM   13  H   UNK N   1      30.142  18.267  11.171  0.00  0.00     0.210 HD
ENDBRANCH   7  12
BRANCH  11  14
HETATM   14  O   UNK N   1      31.277  16.930   6.121  0.00  0.00    -0.393 OA
HETATM   15  H   UNK N   1      31.568  16.116   5.679  0.00  0.00     0.210 HD
ENDBRANCH  11  14
ENDBRANCH   1   6
BRANCH   4  16
HETATM   16  C   UNK N   1      35.242  16.176   9.417  0.00  0.00     0.171 C 
BRANCH  16  17
HETATM   17  C   UNK N   1      35.804  16.117  10.826  0.00  0.00     0.136 C 
HETATM   18 Cl   UNK N   1      36.562  14.530  11.084  0.00  0.00    -0.129 Cl
ENDBRANCH  16  17
ENDBRANCH   4  16
BRANCH   4  19
HETATM   19  N   UNK N   1      33.225  14.962  10.116  0.00  0.00    -0.204 N 
ATOM     20  HN  UNK N   1      33.495  14.012   9.860  1.00  0.00     0.216 HD
BRANCH  19  21
HETATM   21  O   UNK N   1      32.416  15.129  10.978  0.00  0.00    -0.274 OA
ATOM     22  HO  UNK N   1      31.911  15.932  11.029  1.00  0.00     0.246 HD
ENDBRANCH  19  21
ENDBRANCH   4  19
TORSDOF 7
ENDMDL
MODEL 6
REMARK VINA RESULT:      -5.4     11.209     12.741
REMARK  7 active torsions:
REMARK  status: ('A' for Active; 'I' for Inactive)
REMARK    1  A    between atoms: C_3  and  O_19 
REMARK    2  A    between atoms: C_4  and  N_8 
REMARK    3  A    between atoms: C_5  and  O_7 
REMARK       I    between atoms: N_8  and  C_9 
REMARK       I    between atoms: C_9  and  N_11 
REMARK    4  A    between atoms: N_11  and  C_12 
REMARK    5  A    between atoms: N_11  and  N_15 
REMARK    6  A    between atoms: C_12  and  C_13 
REMARK    7  A    between atoms: N_15  and  O_17 
ROOT
HETATM    1  N   UNK N   1      28.843  24.444  -3.931  0.00  0.00    -0.332 N 
HETATM    2  C   UNK N   1      27.660  24.941  -3.471  0.00  0.00     0.339 C 
HETATM    3  O   UNK N   1      26.857  24.223  -2.897  0.00  0.00    -0.245 OA
HETATM    4  N   UNK N   1      27.365  26.255  -3.675  0.00  0.00    -0.222 N 
HETATM    5  H   UNK N   1      29.403  25.091  -4.418  0.00  0.00     0.164 HD
ENDROOT
BRANCH   1   6
HETATM    6  C   UNK N   1      29.416  23.103  -3.815  0.00  0.00     0.143 C 
HETATM    7  C   UNK N   1      30.673  22.957  -2.921  0.00  0.00     0.143 C 
HETATM    8  C   UNK N   1      31.215  21.526  -2.975  0.00  0.00     0.034 C 
HETATM    9  C   UNK N   1      31.485  21.081  -4.404  0.00  0.00     0.005 C 
HETATM   10  C   UNK N   1      30.195  21.151  -5.203  0.00  0.00     0.034 C 
HETATM   11  C   UNK N   1      29.694  22.587  -5.234  0.00  0.00     0.143 C 
BRANCH   7  12
HETATM   12  O   UNK N   1      30.358  23.218  -1.588  0.00  0.00    -0.393 OA
HETATM   13  H   UNK N   1      30.960  23.350  -0.839  0.00  0.00     0.210 HD
ENDBRANCH   7  12
BRANCH  11  14
HETATM   14  O   UNK N   1      28.527  22.642  -5.998  0.00  0.00    -0.393 OA
HETATM   15  H   UNK N   1      28.425  22.295  -6.898  0.00  0.00     0.210 HD
ENDBRANCH  11  14
ENDBRANCH   1   6
BRANCH   4  16
HETATM   16  C   UNK N   1      26.083  26.780  -3.248  0.00  0.00     0.171 C 
BRANCH  16  17
HETATM   17  C   UNK N   1      25.613  27.839  -4.229  0.00  0.00     0.136 C 
HETATM   18 Cl   UNK N   1      24.727  27.052  -5.554  0.00  0.00    -0.129 Cl
ENDBRANCH  16  17
ENDBRANCH   4  16
BRANCH   4  19
HETATM   19  N   UNK N   1      28.290  27.079  -4.284  0.00  0.00    -0.204 N 
ATOM     20  HN  UNK N   1      28.128  27.394  -5.241  1.00  0.00     0.216 HD
BRANCH  19  21
HETATM   21  O   UNK N   1      29.277  27.428  -3.710  0.00  0.00    -0.274 OA
ATOM     22  HO  UNK N   1      29.758  28.199  -3.986  1.00  0.00     0.246 HD
ENDBRANCH  19  21
ENDBRANCH   4  19
TORSDOF 7
ENDMDL
MODEL 7
REMARK VINA RESULT:      -5.3      8.607     12.329
REMARK  7 active torsions:
REMARK  status: ('A' for Active; 'I' for Inactive)
REMARK    1  A    between atoms: C_3  and  O_19 
REMARK    2  A    between atoms: C_4  and  N_8 
REMARK    3  A    between atoms: C_5  and  O_7 
REMARK       I    between atoms: N_8  and  C_9 
REMARK       I    between atoms: C_9  and  N_11 
REMARK    4  A    between atoms: N_11  and  C_12 
REMARK    5  A    between atoms: N_11  and  N_15 
REMARK    6  A    between atoms: C_12  and  C_13 
REMARK    7  A    between atoms: N_15  and  O_17 
ROOT
HETATM    1  N   UNK N   1      34.602  13.745  12.001  0.00  0.00    -0.332 N 
HETATM    2  C   UNK N   1      35.055  14.312  10.846  0.00  0.00     0.339 C 
HETATM    3  O   UNK N   1      36.207  14.152  10.477  0.00  0.00    -0.245 OA
HETATM    4  N   UNK N   1      34.210  15.084  10.108  0.00  0.00    -0.222 N 
HETATM    5  H   UNK N   1      33.672  13.968  12.235  0.00  0.00     0.164 HD
ENDROOT
BRANCH   1   6
HETATM    6  C   UNK N   1      35.276  12.856  12.947  0.00  0.00     0.143 C 
HETATM    7  C   UNK N   1      34.412  11.749  13.601  0.00  0.00     0.143 C 
HETATM    8  C   UNK N   1      35.222  10.965  14.636  0.00  0.00     0.034 C 
HETATM    9  C   UNK N   1      35.842  11.885  15.677  0.00  0.00     0.005 C 
HETATM   10  C   UNK N   1      36.755  12.882  14.985  0.00  0.00     0.034 C 
HETATM   11  C   UNK N   1      35.943  13.730  14.018  0.00  0.00     0.143 C 
BRANCH   7  12
HETATM   12  O   UNK N   1      33.987  10.830  12.642  0.00  0.00    -0.393 OA
HETATM   13  H   UNK N   1      34.266   9.908  12.522  0.00  0.00     0.210 HD
ENDBRANCH   7  12
BRANCH  11  14
HETATM   14  O   UNK N   1      36.788  14.663  13.414  0.00  0.00    -0.393 OA
HETATM   15  H   UNK N   1      37.398  15.255  13.880  0.00  0.00     0.210 HD
ENDBRANCH  11  14
ENDBRANCH   1   6
BRANCH   4  16
HETATM   16  C   UNK N   1      34.699  15.744   8.913  0.00  0.00     0.171 C 
BRANCH  16  17
HETATM   17  C   UNK N   1      34.688  17.248   9.121  0.00  0.00     0.136 C 
HETATM   18 Cl   UNK N   1      33.329  17.951   8.216  0.00  0.00    -0.129 Cl
ENDBRANCH  16  17
ENDBRANCH   4  16
BRANCH   4  19
HETATM   19  N   UNK N   1      32.895  15.230  10.499  0.00  0.00    -0.204 N 
ATOM     20  HN  UNK N   1      32.660  15.908  11.224  1.00  0.00     0.216 HD
BRANCH  19  21
HETATM   21  O   UNK N   1      32.029  14.575  10.004  0.00  0.00    -0.274 OA
ATOM     22  HO  UNK N   1      31.914  14.544   9.061  1.00  0.00     0.246 HD
ENDBRANCH  19  21
ENDBRANCH   4  19
TORSDOF 7
ENDMDL
MODEL 8
REMARK VINA RESULT:      -5.3     11.395     13.578
REMARK  7 active torsions:
REMARK  status: ('A' for Active; 'I' for Inactive)
REMARK    1  A    between atoms: C_3  and  O_19 
REMARK    2  A    between atoms: C_4  and  N_8 
REMARK    3  A    between atoms: C_5  and  O_7 
REMARK       I    between atoms: N_8  and  C_9 
REMARK       I    between atoms: C_9  and  N_11 
REMARK    4  A    between atoms: N_11  and  C_12 
REMARK    5  A    between atoms: N_11  and  N_15 
REMARK    6  A    between atoms: C_12  and  C_13 
REMARK    7  A    between atoms: N_15  and  O_17 
ROOT
HETATM    1  N   UNK N   1      36.698  13.876  13.022  0.00  0.00    -0.332 N 
HETATM    2  C   UNK N   1      36.265  14.314  11.806  0.00  0.00     0.339 C 
HETATM    3  O   UNK N   1      35.163  14.822  11.677  0.00  0.00    -0.245 OA
HETATM    4  N   UNK N   1      37.070  14.162  10.718  0.00  0.00    -0.222 N 
HETATM    5  H   UNK N   1      37.582  13.442  13.015  0.00  0.00     0.164 HD
ENDROOT
BRANCH   1   6
HETATM    6  C   UNK N   1      36.061  13.949  14.336  0.00  0.00     0.143 C 
HETATM    7  C   UNK N   1      36.997  14.151  15.554  0.00  0.00     0.143 C 
HETATM    8  C   UNK N   1      36.204  14.108  16.863  0.00  0.00     0.034 C 
HETATM    9  C   UNK N   1      35.390  12.830  16.985  0.00  0.00     0.005 C 
HETATM   10  C   UNK N   1      34.423  12.737  15.817  0.00  0.00     0.034 C 
HETATM   11  C   UNK N   1      35.204  12.688  14.512  0.00  0.00     0.143 C 
BRANCH   7  12
HETATM   12  O   UNK N   1      37.611  15.402  15.497  0.00  0.00    -0.393 OA
HETATM   13  H   UNK N   1      37.208  16.279  15.595  0.00  0.00     0.210 HD
ENDBRANCH   7  12
BRANCH  11  14
HETATM   14  O   UNK N   1      34.305  12.571  13.451  0.00  0.00    -0.393 OA
HETATM   15  H   UNK N   1      33.350  12.418  13.535  0.00  0.00     0.210 HD
ENDBRANCH  11  14
ENDBRANCH   1   6
BRANCH   4  16
HETATM   16  C   UNK N   1      36.595  14.565   9.409  0.00  0.00     0.171 C 
BRANCH  16  17
HETATM   17  C   UNK N   1      36.373  13.336   8.546  0.00  0.00     0.136 C 
HETATM   18 Cl   UNK N   1      35.457  13.802   7.095  0.00  0.00    -0.129 Cl
ENDBRANCH  16  17
ENDBRANCH   4  16
BRANCH   4  19
HETATM   19  N   UNK N   1      38.334  13.629  10.868  0.00  0.00    -0.204 N 
ATOM     20  HN  UNK N   1      39.146  14.173  10.575  1.00  0.00     0.216 HD
BRANCH  19  21
HETATM   21  O   UNK N   1      38.493  12.542  11.335  0.00  0.00    -0.274 OA
ATOM     22  HO  UNK N   1      38.231  12.348  12.227  1.00  0.00     0.246 HD
ENDBRANCH  19  21
ENDBRANCH   4  19
TORSDOF 7
ENDMDL
MODEL 9
REMARK VINA RESULT:      -5.3      6.271      8.057
REMARK  7 active torsions:
REMARK  status: ('A' for Active; 'I' for Inactive)
REMARK    1  A    between atoms: C_3  and  O_19 
REMARK    2  A    between atoms: C_4  and  N_8 
REMARK    3  A    between atoms: C_5  and  O_7 
REMARK       I    between atoms: N_8  and  C_9 
REMARK       I    between atoms: C_9  and  N_11 
REMARK    4  A    between atoms: N_11  and  C_12 
REMARK    5  A    between atoms: N_11  and  N_15 
REMARK    6  A    between atoms: C_12  and  C_13 
REMARK    7  A    between atoms: N_15  and  O_17 
ROOT
HETATM    1  N   UNK N   1      34.027  16.249   8.419  0.00  0.00    -0.332 N 
HETATM    2  C   UNK N   1      34.781  15.305   9.051  0.00  0.00     0.339 C 
HETATM    3  O   UNK N   1      34.932  14.194   8.568  0.00  0.00    -0.245 OA
HETATM    4  N   UNK N   1      35.355  15.604  10.249  0.00  0.00    -0.222 N 
HETATM    5  H   UNK N   1      33.930  17.097   8.909  0.00  0.00     0.164 HD
ENDROOT
BRANCH   1   6
HETATM    6  C   UNK N   1      33.342  16.204   7.128  0.00  0.00     0.143 C 
HETATM    7  C   UNK N   1      34.185  16.562   5.878  0.00  0.00     0.143 C 
HETATM    8  C   UNK N   1      33.315  16.569   4.618  0.00  0.00     0.034 C 
HETATM    9  C   UNK N   1      32.114  17.490   4.770  0.00  0.00     0.005 C 
HETATM   10  C   UNK N   1      31.274  17.029   5.949  0.00  0.00     0.034 C 
HETATM   11  C   UNK N   1      32.102  17.104   7.223  0.00  0.00     0.143 C 
BRANCH   7  12
HETATM   12  O   UNK N   1      35.183  15.610   5.673  0.00  0.00    -0.393 OA
HETATM   13  H   UNK N   1      35.263  14.724   6.061  0.00  0.00     0.210 HD
ENDBRANCH   7  12
BRANCH  11  14
HETATM   14  O   UNK N   1      31.308  16.708   8.302  0.00  0.00    -0.393 OA
HETATM   15  H   UNK N   1      31.624  16.547   9.205  0.00  0.00     0.210 HD
ENDBRANCH  11  14
ENDBRANCH   1   6
BRANCH   4  16
HETATM   16  C   UNK N   1      36.105  14.588  10.962  0.00  0.00     0.171 C 
BRANCH  16  17
HETATM   17  C   UNK N   1      35.340  14.166  12.204  0.00  0.00     0.136 C 
HETATM   18 Cl   UNK N   1      36.308  14.555  13.643  0.00  0.00    -0.129 Cl
ENDBRANCH  16  17
ENDBRANCH   4  16
BRANCH   4  19
HETATM   19  N   UNK N   1      35.223  16.872  10.776  0.00  0.00    -0.204 N 
ATOM     20  HN  UNK N   1      34.757  16.996  11.675  1.00  0.00     0.216 HD
BRANCH  19  21
HETATM   21  O   UNK N   1      35.644  17.828  10.197  0.00  0.00    -0.274 OA
ATOM     22  HO  UNK N   1      35.368  18.705  10.432  1.00  0.00     0.246 HD
ENDBRANCH  19  21
ENDBRANCH   4  19
TORSDOF 7
ENDMDL
