REMARK  5 active torsions:
REMARK  status: ('A' for Active; 'I' for Inactive)
REMARK    1  A    between atoms: C_2  and  C_4 
REMARK    2  A    between atoms: C_4  and  C_5 
REMARK    3  A    between atoms: C_4  and  O_10 
REMARK    4  A    between atoms: C_6  and  C_5 
REMARK    5  A    between atoms: C_5  and  O_9 
ROOT
HETATM    1  C   UNK N   1       3.485   2.319   0.519  0.00  0.00     0.180 C 
ENDROOT
BRANCH   1   2
HETATM    2  C   UNK N   1       3.303   1.310  -0.607  0.00  0.00     0.176 A 
HETATM    3  C   UNK N   1       2.949  -0.008  -0.037  0.00  0.00     0.203 A 
HETATM    4  O   UNK N   1       4.254   0.283  -0.472  0.00  0.00    -0.378 OA
ENDBRANCH   1   2
BRANCH   1   5
HETATM    5  C   UNK N   1       2.353   3.349   0.587  0.00  0.00     0.180 C 
BRANCH   5   6
HETATM    6  C   UNK N   1       2.338   4.297  -0.604  0.00  0.00     0.176 A 
HETATM    7  C   UNK N   1       1.762   5.600  -0.206  0.00  0.00     0.203 A 
HETATM    8  O   UNK N   1       3.155   5.408  -0.320  0.00  0.00    -0.378 OA
ENDBRANCH   5   6
BRANCH   5   9
HETATM    9  O   UNK N   1       1.116   2.708   0.701  0.00  0.00    -0.390 OA
HETATM   10  H   UNK N   1       0.301   3.228   0.779  0.00  0.00     0.210 HD
ENDBRANCH   5   9
ENDBRANCH   1   5
BRANCH   1  11
HETATM   11  O   UNK N   1       4.720   2.960   0.395  0.00  0.00    -0.390 OA
HETATM   12  H   UNK N   1       5.534   2.440   0.308  0.00  0.00     0.210 HD
ENDBRANCH   1  11
TORSDOF 5
