MODEL 1
REMARK VINA RESULT:      -6.1      0.000      0.000
REMARK  5 active torsions:
REMARK  status: ('A' for Active; 'I' for Inactive)
REMARK    1  A    between atoms: C_4  and  C_2 
REMARK    2  A    between atoms: O_17  and  C_2 
REMARK    3  A    between atoms: C_6  and  O_18 
REMARK    4  A    between atoms: C_8  and  N_16 
REMARK    5  A    between atoms: O_19  and  C_9 
ROOT
HETATM    1  C   UNK N   1      34.808  13.306  11.037  0.00  0.00     0.119 A 
HETATM    2  C   UNK N   1      35.384  12.574  12.070  0.00  0.00     0.065 A 
HETATM    3  C   UNK N   1      36.529  13.079  12.686  0.00  0.00     0.120 A 
HETATM    4  C   UNK N   1      36.492  14.953  11.240  0.00  0.00     0.227 A 
HETATM    5  I   UNK N   1      34.530  10.721  12.629  0.00  0.00    -0.039 I 
HETATM    6  N   UNK N   1      37.096  12.437  13.636  0.00  0.00    -0.384 N 
ATOM      7  HN  UNK N   1      37.925  12.826  14.085  1.00  0.00     0.157 HD
HETATM    8  N   UNK N   1      37.054  14.256  12.261  0.00  0.00    -0.307 N 
ATOM      9  HN  UNK N   1      37.888  14.625  12.719  1.00  0.00     0.171 HD
HETATM   10  N   UNK N   1      35.358  14.488  10.623  0.00  0.00    -0.292 N 
HETATM   11  H   UNK N   1      36.738  11.571  13.937  0.00  0.00     0.157 HD
ENDROOT
BRANCH  10  12
HETATM   12  C   UNK N   1      34.786  15.215   9.469  0.00  0.00     0.268 C 
HETATM   13  C   UNK N   1      33.312  14.911   9.179  0.00  0.00     0.250 C 
HETATM   14  C   UNK N   1      33.083  16.000   8.179  0.00  0.00     0.187 C 
HETATM   15  F   UNK N   1      32.545  15.145  10.316  0.00  0.00    -0.242 F 
HETATM   16  C   UNK N   1      33.780  17.163   8.887  0.00  0.00     0.179 C 
HETATM   17  O   UNK N   1      34.861  16.620   9.631  0.00  0.00    -0.353 OA
BRANCH  14  18
HETATM   18  O   UNK N   1      31.730  16.243   7.924  0.00  0.00    -0.390 OA
HETATM   19  H   UNK N   1      31.386  17.051   7.515  0.00  0.00     0.210 HD
ENDBRANCH  14  18
BRANCH  16  20
HETATM   20  C   UNK N   1      34.290  18.206   7.895  0.00  0.00     0.198 C 
BRANCH  20  21
HETATM   21  O   UNK N   1      35.195  19.075   8.506  0.00  0.00    -0.398 OA
HETATM   22  H   UNK N   1      34.901  19.673   9.210  0.00  0.00     0.209 HD
ENDBRANCH  20  21
ENDBRANCH  16  20
ENDBRANCH  10  12
BRANCH   4  23
HETATM   23  O   UNK N   1      37.064  16.105  10.842  0.00  0.00    -0.332 OA
HETATM   24  H   UNK N   1      37.971  16.272  11.004  0.00  0.00     0.221 HD
ENDBRANCH   4  23
TORSDOF 5
ENDMDL
MODEL 2
REMARK VINA RESULT:      -5.9      5.428      7.474
REMARK  5 active torsions:
REMARK  status: ('A' for Active; 'I' for Inactive)
REMARK    1  A    between atoms: C_4  and  C_2 
REMARK    2  A    between atoms: O_17  and  C_2 
REMARK    3  A    between atoms: C_6  and  O_18 
REMARK    4  A    between atoms: C_8  and  N_16 
REMARK    5  A    between atoms: O_19  and  C_9 
ROOT
HETATM    1  C   UNK N   1      29.995  17.327   6.246  0.00  0.00     0.119 A 
HETATM    2  C   UNK N   1      28.754  17.896   5.981  0.00  0.00     0.065 A 
HETATM    3  C   UNK N   1      28.130  18.632   6.990  0.00  0.00     0.120 A 
HETATM    4  C   UNK N   1      29.943  18.190   8.447  0.00  0.00     0.227 A 
HETATM    5  I   UNK N   1      27.853  17.590   4.092  0.00  0.00    -0.039 I 
HETATM    6  N   UNK N   1      26.986  19.169   6.793  0.00  0.00    -0.384 N 
ATOM      7  HN  UNK N   1      26.549  19.714   7.536  1.00  0.00     0.157 HD
HETATM    8  N   UNK N   1      28.738  18.766   8.195  0.00  0.00    -0.307 N 
ATOM      9  HN  UNK N   1      28.282  19.310   8.927  1.00  0.00     0.171 HD
HETATM   10  N   UNK N   1      30.587  17.471   7.471  0.00  0.00    -0.292 N 
HETATM   11  H   UNK N   1      26.524  19.060   5.931  0.00  0.00     0.157 HD
ENDROOT
BRANCH  10  12
HETATM   12  C   UNK N   1      31.866  16.791   7.767  0.00  0.00     0.268 C 
HETATM   13  C   UNK N   1      32.755  16.525   6.547  0.00  0.00     0.250 C 
HETATM   14  C   UNK N   1      33.985  16.110   7.292  0.00  0.00     0.187 C 
HETATM   15  F   UNK N   1      32.995  17.713   5.865  0.00  0.00    -0.242 F 
HETATM   16  C   UNK N   1      34.015  17.185   8.379  0.00  0.00     0.179 C 
HETATM   17  O   UNK N   1      32.669  17.532   8.670  0.00  0.00    -0.353 OA
BRANCH  14  18
HETATM   18  O   UNK N   1      35.135  16.099   6.498  0.00  0.00    -0.390 OA
HETATM   19  H   UNK N   1      35.890  15.506   6.635  0.00  0.00     0.210 HD
ENDBRANCH  14  18
BRANCH  16  20
HETATM   20  C   UNK N   1      34.721  16.695   9.641  0.00  0.00     0.198 C 
BRANCH  20  21
HETATM   21  O   UNK N   1      35.565  17.680  10.156  0.00  0.00    -0.398 OA
HETATM   22  H   UNK N   1      36.284  17.442  10.761  0.00  0.00     0.209 HD
ENDBRANCH  20  21
ENDBRANCH  16  20
ENDBRANCH  10  12
BRANCH   4  23
HETATM   23  O   UNK N   1      30.495  18.335   9.666  0.00  0.00    -0.332 OA
HETATM   24  H   UNK N   1      31.030  19.077   9.867  0.00  0.00     0.221 HD
ENDBRANCH   4  23
TORSDOF 5
ENDMDL
MODEL 3
REMARK VINA RESULT:      -5.9      4.194      6.322
REMARK  5 active torsions:
REMARK  status: ('A' for Active; 'I' for Inactive)
REMARK    1  A    between atoms: C_4  and  C_2 
REMARK    2  A    between atoms: O_17  and  C_2 
REMARK    3  A    between atoms: C_6  and  O_18 
REMARK    4  A    between atoms: C_8  and  N_16 
REMARK    5  A    between atoms: O_19  and  C_9 
ROOT
HETATM    1  C   UNK N   1      31.619  15.926   6.799  0.00  0.00     0.119 A 
HETATM    2  C   UNK N   1      31.113  16.135   5.520  0.00  0.00     0.065 A 
HETATM    3  C   UNK N   1      31.790  17.011   4.672  0.00  0.00     0.120 A 
HETATM    4  C   UNK N   1      33.383  17.440   6.370  0.00  0.00     0.227 A 
HETATM    5  I   UNK N   1      29.331  15.155   4.937  0.00  0.00    -0.039 I 
HETATM    6  N   UNK N   1      31.359  17.238   3.489  0.00  0.00    -0.384 N 
ATOM      7  HN  UNK N   1      31.872  17.871   2.877  1.00  0.00     0.157 HD
HETATM    8  N   UNK N   1      32.908  17.639   5.112  0.00  0.00    -0.307 N 
ATOM      9  HN  UNK N   1      33.404  18.275   4.486  1.00  0.00     0.171 HD
HETATM   10  N   UNK N   1      32.745  16.575   7.223  0.00  0.00    -0.292 N 
HETATM   11  H   UNK N   1      30.536  16.806   3.166  0.00  0.00     0.157 HD
ENDROOT
BRANCH  10  12
HETATM   12  C   UNK N   1      33.225  16.409   8.613  0.00  0.00     0.268 C 
HETATM   13  C   UNK N   1      32.819  15.093   9.285  0.00  0.00     0.250 C 
HETATM   14  C   UNK N   1      33.696  15.214  10.492  0.00  0.00     0.187 C 
HETATM   15  F   UNK N   1      33.230  14.015   8.508  0.00  0.00    -0.242 F 
HETATM   16  C   UNK N   1      34.994  15.681   9.832  0.00  0.00     0.179 C 
HETATM   17  O   UNK N   1      34.639  16.462   8.700  0.00  0.00    -0.353 OA
BRANCH  14  18
HETATM   18  O   UNK N   1      33.837  14.015  11.196  0.00  0.00    -0.390 OA
HETATM   19  H   UNK N   1      33.914  13.142  10.782  0.00  0.00     0.210 HD
ENDBRANCH  14  18
BRANCH  16  20
HETATM   20  C   UNK N   1      35.854  16.500  10.792  0.00  0.00     0.198 C 
BRANCH  20  21
HETATM   21  O   UNK N   1      37.160  16.009  10.834  0.00  0.00    -0.398 OA
HETATM   22  H   UNK N   1      37.344  15.137  11.216  0.00  0.00     0.209 HD
ENDBRANCH  20  21
ENDBRANCH  16  20
ENDBRANCH  10  12
BRANCH   4  23
HETATM   23  O   UNK N   1      34.484  18.105   6.766  0.00  0.00    -0.332 OA
HETATM   24  H   UNK N   1      34.476  18.629   7.542  0.00  0.00     0.221 HD
ENDBRANCH   4  23
TORSDOF 5
ENDMDL
MODEL 4
REMARK VINA RESULT:      -5.9      5.014      7.383
REMARK  5 active torsions:
REMARK  status: ('A' for Active; 'I' for Inactive)
REMARK    1  A    between atoms: C_4  and  C_2 
REMARK    2  A    between atoms: O_17  and  C_2 
REMARK    3  A    between atoms: C_6  and  O_18 
REMARK    4  A    between atoms: C_8  and  N_16 
REMARK    5  A    between atoms: O_19  and  C_9 
ROOT
HETATM    1  C   UNK N   1      30.527  16.647   6.601  0.00  0.00     0.119 A 
HETATM    2  C   UNK N   1      29.457  16.997   5.783  0.00  0.00     0.065 A 
HETATM    3  C   UNK N   1      29.729  17.538   4.526  0.00  0.00     0.120 A 
HETATM    4  C   UNK N   1      32.053  17.388   4.954  0.00  0.00     0.227 A 
HETATM    5  I   UNK N   1      27.482  16.734   6.491  0.00  0.00    -0.039 I 
HETATM    6  N   UNK N   1      28.777  17.879   3.743  0.00  0.00    -0.384 N 
ATOM      7  HN  UNK N   1      28.992  18.262   2.823  1.00  0.00     0.157 HD
HETATM    8  N   UNK N   1      31.016  17.718   4.139  0.00  0.00    -0.307 N 
ATOM      9  HN  UNK N   1      31.211  18.108   3.216  1.00  0.00     0.171 HD
HETATM   10  N   UNK N   1      31.817  16.842   6.191  0.00  0.00    -0.292 N 
HETATM   11  H   UNK N   1      27.839  17.775   4.022  0.00  0.00     0.157 HD
ENDROOT
BRANCH  10  12
HETATM   12  C   UNK N   1      32.944  16.545   7.101  0.00  0.00     0.268 C 
HETATM   13  C   UNK N   1      33.741  17.770   7.564  0.00  0.00     0.250 C 
HETATM   14  C   UNK N   1      34.550  17.085   8.621  0.00  0.00     0.187 C 
HETATM   15  F   UNK N   1      32.888  18.699   8.150  0.00  0.00    -0.242 F 
HETATM   16  C   UNK N   1      33.459  16.247   9.290  0.00  0.00     0.179 C 
HETATM   17  O   UNK N   1      32.517  15.897   8.287  0.00  0.00    -0.353 OA
BRANCH  14  18
HETATM   18  O   UNK N   1      35.178  17.973   9.499  0.00  0.00    -0.390 OA
HETATM   19  H   UNK N   1      35.417  17.761  10.414  0.00  0.00     0.210 HD
ENDBRANCH  14  18
BRANCH  16  20
HETATM   20  C   UNK N   1      34.032  14.990   9.941  0.00  0.00     0.198 C 
BRANCH  20  21
HETATM   21  O   UNK N   1      33.579  14.858  11.254  0.00  0.00    -0.398 OA
HETATM   22  H   UNK N   1      33.829  15.509  11.928  0.00  0.00     0.209 HD
ENDBRANCH  20  21
ENDBRANCH  16  20
ENDBRANCH  10  12
BRANCH   4  23
HETATM   23  O   UNK N   1      33.312  17.607   4.531  0.00  0.00    -0.332 OA
HETATM   24  H   UNK N   1      33.941  16.913   4.518  0.00  0.00     0.221 HD
ENDBRANCH   4  23
TORSDOF 5
ENDMDL
MODEL 5
REMARK VINA RESULT:      -5.8      1.975      2.754
REMARK  5 active torsions:
REMARK  status: ('A' for Active; 'I' for Inactive)
REMARK    1  A    between atoms: C_4  and  C_2 
REMARK    2  A    between atoms: O_17  and  C_2 
REMARK    3  A    between atoms: C_6  and  O_18 
REMARK    4  A    between atoms: C_8  and  N_16 
REMARK    5  A    between atoms: O_19  and  C_9 
ROOT
HETATM    1  C   UNK N   1      34.476  14.444   9.873  0.00  0.00     0.119 A 
HETATM    2  C   UNK N   1      35.311  13.684  10.685  0.00  0.00     0.065 A 
HETATM    3  C   UNK N   1      36.295  14.338  11.426  0.00  0.00     0.120 A 
HETATM    4  C   UNK N   1      35.609  16.415  10.521  0.00  0.00     0.227 A 
HETATM    5  I   UNK N   1      35.083  11.581  10.728  0.00  0.00    -0.039 I 
HETATM    6  N   UNK N   1      37.089  13.680  12.182  0.00  0.00    -0.384 N 
ATOM      7  HN  UNK N   1      37.795  14.174  12.727  1.00  0.00     0.157 HD
HETATM    8  N   UNK N   1      36.419  15.686  11.331  0.00  0.00    -0.307 N 
ATOM      9  HN  UNK N   1      37.136  16.162  11.880  1.00  0.00     0.171 HD
HETATM   10  N   UNK N   1      34.623  15.801   9.789  0.00  0.00    -0.292 N 
HETATM   11  H   UNK N   1      37.024  12.700  12.241  0.00  0.00     0.157 HD
ENDROOT
BRANCH  10  12
HETATM   12  C   UNK N   1      33.785  16.588   8.859  0.00  0.00     0.268 C 
HETATM   13  C   UNK N   1      34.511  17.100   7.610  0.00  0.00     0.250 C 
HETATM   14  C   UNK N   1      33.303  17.568   6.861  0.00  0.00     0.187 C 
HETATM   15  F   UNK N   1      35.103  16.038   6.934  0.00  0.00    -0.242 F 
HETATM   16  C   UNK N   1      32.366  16.382   7.101  0.00  0.00     0.179 C 
HETATM   17  O   UNK N   1      32.677  15.846   8.379  0.00  0.00    -0.353 OA
BRANCH  14  18
HETATM   18  O   UNK N   1      33.549  17.809   5.507  0.00  0.00    -0.390 OA
HETATM   19  H   UNK N   1      33.388  17.169   4.798  0.00  0.00     0.210 HD
ENDBRANCH  14  18
BRANCH  16  20
HETATM   20  C   UNK N   1      30.899  16.801   7.045  0.00  0.00     0.198 C 
BRANCH  20  21
HETATM   21  O   UNK N   1      30.590  17.375   5.811  0.00  0.00    -0.398 OA
HETATM   22  H   UNK N   1      29.747  17.836   5.682  0.00  0.00     0.209 HD
ENDBRANCH  20  21
ENDBRANCH  16  20
ENDBRANCH  10  12
BRANCH   4  23
HETATM   23  O   UNK N   1      35.787  17.748  10.446  0.00  0.00    -0.332 OA
HETATM   24  H   UNK N   1      35.896  18.262  11.221  0.00  0.00     0.221 HD
ENDBRANCH   4  23
TORSDOF 5
ENDMDL
MODEL 6
REMARK VINA RESULT:      -5.6      4.052      6.091
REMARK  5 active torsions:
REMARK  status: ('A' for Active; 'I' for Inactive)
REMARK    1  A    between atoms: C_4  and  C_2 
REMARK    2  A    between atoms: O_17  and  C_2 
REMARK    3  A    between atoms: C_6  and  O_18 
REMARK    4  A    between atoms: C_8  and  N_16 
REMARK    5  A    between atoms: O_19  and  C_9 
ROOT
HETATM    1  C   UNK N   1      34.101  14.424   5.924  0.00  0.00     0.119 A 
HETATM    2  C   UNK N   1      33.650  14.303   4.613  0.00  0.00     0.065 A 
HETATM    3  C   UNK N   1      33.379  15.468   3.893  0.00  0.00     0.120 A 
HETATM    4  C   UNK N   1      33.976  16.779   5.772  0.00  0.00     0.227 A 
HETATM    5  I   UNK N   1      33.356  12.378   3.789  0.00  0.00    -0.039 I 
HETATM    6  N   UNK N   1      32.957  15.406   2.688  0.00  0.00    -0.384 N 
ATOM      7  HN  UNK N   1      32.776  16.266   2.171  1.00  0.00     0.157 HD
HETATM    8  N   UNK N   1      33.552  16.676   4.485  0.00  0.00    -0.307 N 
ATOM      9  HN  UNK N   1      33.359  17.525   3.953  1.00  0.00     0.171 HD
HETATM   10  N   UNK N   1      34.263  15.652   6.501  0.00  0.00    -0.292 N 
HETATM   11  H   UNK N   1      32.806  14.535   2.255  0.00  0.00     0.157 HD
ENDROOT
BRANCH  10  12
HETATM   12  C   UNK N   1      34.662  15.765   7.921  0.00  0.00     0.268 C 
HETATM   13  C   UNK N   1      33.520  15.594   8.929  0.00  0.00     0.250 C 
HETATM   14  C   UNK N   1      34.363  15.505  10.162  0.00  0.00     0.187 C 
HETATM   15  F   UNK N   1      32.870  14.384   8.712  0.00  0.00    -0.242 F 
HETATM   16  C   UNK N   1      35.457  14.557   9.668  0.00  0.00     0.179 C 
HETATM   17  O   UNK N   1      35.636  14.800   8.281  0.00  0.00    -0.353 OA
BRANCH  14  18
HETATM   18  O   UNK N   1      33.670  15.014  11.272  0.00  0.00    -0.390 OA
HETATM   19  H   UNK N   1      33.570  15.490  12.110  0.00  0.00     0.210 HD
ENDBRANCH  14  18
BRANCH  16  20
HETATM   20  C   UNK N   1      36.771  14.771  10.417  0.00  0.00     0.198 C 
BRANCH  20  21
HETATM   21  O   UNK N   1      36.838  16.059  10.949  0.00  0.00    -0.398 OA
HETATM   22  H   UNK N   1      36.763  16.199  11.906  0.00  0.00     0.209 HD
ENDBRANCH  20  21
ENDBRANCH  16  20
ENDBRANCH  10  12
BRANCH   4  23
HETATM   23  O   UNK N   1      34.111  18.002   6.320  0.00  0.00    -0.332 OA
HETATM   24  H   UNK N   1      34.382  18.733   5.802  0.00  0.00     0.221 HD
ENDBRANCH   4  23
TORSDOF 5
ENDMDL
MODEL 7
REMARK VINA RESULT:      -5.6      3.905      6.307
REMARK  5 active torsions:
REMARK  status: ('A' for Active; 'I' for Inactive)
REMARK    1  A    between atoms: C_4  and  C_2 
REMARK    2  A    between atoms: O_17  and  C_2 
REMARK    3  A    between atoms: C_6  and  O_18 
REMARK    4  A    between atoms: C_8  and  N_16 
REMARK    5  A    between atoms: O_19  and  C_9 
ROOT
HETATM    1  C   UNK N   1      31.671  16.444   8.846  0.00  0.00     0.119 A 
HETATM    2  C   UNK N   1      30.627  17.026   8.135  0.00  0.00     0.065 A 
HETATM    3  C   UNK N   1      30.637  16.932   6.743  0.00  0.00     0.120 A 
HETATM    4  C   UNK N   1      32.683  15.743   6.828  0.00  0.00     0.227 A 
HETATM    5  I   UNK N   1      29.103  18.053   9.182  0.00  0.00    -0.039 I 
HETATM    6  N   UNK N   1      29.700  17.456   6.047  0.00  0.00    -0.384 N 
ATOM      7  HN  UNK N   1      29.716  17.368   5.031  1.00  0.00     0.157 HD
HETATM    8  N   UNK N   1      31.659  16.292   6.122  0.00  0.00    -0.307 N 
ATOM      9  HN  UNK N   1      31.660  16.220   5.104  1.00  0.00     0.171 HD
HETATM   10  N   UNK N   1      32.694  15.808   8.199  0.00  0.00    -0.292 N 
HETATM   11  H   UNK N   1      28.966  17.943   6.484  0.00  0.00     0.157 HD
ENDROOT
BRANCH  10  12
HETATM   12  C   UNK N   1      33.840  15.268   8.961  0.00  0.00     0.268 C 
HETATM   13  C   UNK N   1      35.001  16.248   9.164  0.00  0.00     0.250 C 
HETATM   14  C   UNK N   1      35.768  15.436  10.160  0.00  0.00     0.187 C 
HETATM   15  F   UNK N   1      34.539  17.415   9.763  0.00  0.00    -0.242 F 
HETATM   16  C   UNK N   1      34.626  14.982  11.070  0.00  0.00     0.179 C 
HETATM   17  O   UNK N   1      33.467  14.845  10.261  0.00  0.00    -0.353 OA
BRANCH  14  18
HETATM   18  O   UNK N   1      36.750  16.168  10.833  0.00  0.00    -0.390 OA
HETATM   19  H   UNK N   1      36.959  17.097  10.655  0.00  0.00     0.210 HD
ENDBRANCH  14  18
BRANCH  16  20
HETATM   20  C   UNK N   1      34.947  13.661  11.765  0.00  0.00     0.198 C 
BRANCH  20  21
HETATM   21  O   UNK N   1      34.879  13.797  13.152  0.00  0.00    -0.398 OA
HETATM   22  H   UNK N   1      35.142  13.065  13.731  0.00  0.00     0.209 HD
ENDBRANCH  20  21
ENDBRANCH  16  20
ENDBRANCH  10  12
BRANCH   4  23
HETATM   23  O   UNK N   1      33.685  15.137   6.164  0.00  0.00    -0.332 OA
HETATM   24  H   UNK N   1      34.036  15.511   5.380  0.00  0.00     0.221 HD
ENDBRANCH   4  23
TORSDOF 5
ENDMDL
MODEL 8
REMARK VINA RESULT:      -5.6      6.306      8.517
REMARK  5 active torsions:
REMARK  status: ('A' for Active; 'I' for Inactive)
REMARK    1  A    between atoms: C_4  and  C_2 
REMARK    2  A    between atoms: O_17  and  C_2 
REMARK    3  A    between atoms: C_6  and  O_18 
REMARK    4  A    between atoms: C_8  and  N_16 
REMARK    5  A    between atoms: O_19  and  C_9 
ROOT
HETATM    1  C   UNK N   1      28.719  18.223   6.199  0.00  0.00     0.119 A 
HETATM    2  C   UNK N   1      27.754  19.215   6.061  0.00  0.00     0.065 A 
HETATM    3  C   UNK N   1      27.215  19.785   7.215  0.00  0.00     0.120 A 
HETATM    4  C   UNK N   1      28.565  18.373   8.553  0.00  0.00     0.227 A 
HETATM    5  I   UNK N   1      27.119  19.783   4.125  0.00  0.00    -0.039 I 
HETATM    6  N   UNK N   1      26.321  20.696   7.137  0.00  0.00    -0.384 N 
ATOM      7  HN  UNK N   1      25.946  21.111   7.990  1.00  0.00     0.157 HD
HETATM    8  N   UNK N   1      27.634  19.355   8.432  0.00  0.00    -0.307 N 
ATOM      9  HN  UNK N   1      27.242  19.779   9.273  1.00  0.00     0.171 HD
HETATM   10  N   UNK N   1      29.122  17.803   7.436  0.00  0.00    -0.292 N 
HETATM   11  H   UNK N   1      25.992  21.000   6.261  0.00  0.00     0.157 HD
ENDROOT
BRANCH  10  12
HETATM   12  C   UNK N   1      30.087  16.690   7.570  0.00  0.00     0.268 C 
HETATM   13  C   UNK N   1      30.829  16.319   6.281  0.00  0.00     0.250 C 
HETATM   14  C   UNK N   1      31.839  15.402   6.897  0.00  0.00     0.187 C 
HETATM   15  F   UNK N   1      31.466  17.440   5.759  0.00  0.00    -0.242 F 
HETATM   16  C   UNK N   1      32.239  16.229   8.119  0.00  0.00     0.179 C 
HETATM   17  O   UNK N   1      31.096  16.969   8.525  0.00  0.00    -0.353 OA
BRANCH  14  18
HETATM   18  O   UNK N   1      32.914  15.114   6.052  0.00  0.00    -0.390 OA
HETATM   19  H   UNK N   1      33.085  15.564   5.211  0.00  0.00     0.210 HD
ENDBRANCH  14  18
BRANCH  16  20
HETATM   20  C   UNK N   1      32.730  15.345   9.264  0.00  0.00     0.198 C 
BRANCH  20  21
HETATM   21  O   UNK N   1      31.742  15.192  10.237  0.00  0.00    -0.398 OA
HETATM   22  H   UNK N   1      31.891  15.508  11.141  0.00  0.00     0.209 HD
ENDBRANCH  20  21
ENDBRANCH  16  20
ENDBRANCH  10  12
BRANCH   4  23
HETATM   23  O   UNK N   1      28.931  17.968   9.783  0.00  0.00    -0.332 OA
HETATM   24  H   UNK N   1      29.672  18.348  10.214  0.00  0.00     0.221 HD
ENDBRANCH   4  23
TORSDOF 5
ENDMDL
MODEL 9
REMARK VINA RESULT:      -5.6     16.884     19.403
REMARK  5 active torsions:
REMARK  status: ('A' for Active; 'I' for Inactive)
REMARK    1  A    between atoms: C_4  and  C_2 
REMARK    2  A    between atoms: O_17  and  C_2 
REMARK    3  A    between atoms: C_6  and  O_18 
REMARK    4  A    between atoms: C_8  and  N_16 
REMARK    5  A    between atoms: O_19  and  C_9 
ROOT
HETATM    1  C   UNK N   1      27.794  22.978  -6.219  0.00  0.00     0.119 A 
HETATM    2  C   UNK N   1      26.766  23.304  -7.097  0.00  0.00     0.065 A 
HETATM    3  C   UNK N   1      26.649  24.627  -7.524  0.00  0.00     0.120 A 
HETATM    4  C   UNK N   1      28.516  25.229  -6.198  0.00  0.00     0.227 A 
HETATM    5  I   UNK N   1      25.410  21.801  -7.710  0.00  0.00    -0.039 I 
HETATM    6  N   UNK N   1      25.716  24.974  -8.327  0.00  0.00    -0.384 N 
ATOM      7  HN  UNK N   1      25.652  25.942  -8.639  1.00  0.00     0.157 HD
HETATM    8  N   UNK N   1      27.527  25.556  -7.070  0.00  0.00    -0.307 N 
ATOM      9  HN  UNK N   1      27.442  26.522  -7.389  1.00  0.00     0.171 HD
HETATM   10  N   UNK N   1      28.664  23.933  -5.771  0.00  0.00    -0.292 N 
HETATM   11  H   UNK N   1      25.060  24.313  -8.645  0.00  0.00     0.157 HD
ENDROOT
BRANCH  10  12
HETATM   12  C   UNK N   1      29.700  23.591  -4.772  0.00  0.00     0.268 C 
HETATM   13  C   UNK N   1      29.359  23.975  -3.328  0.00  0.00     0.250 C 
HETATM   14  C   UNK N   1      30.480  23.240  -2.663  0.00  0.00     0.187 C 
HETATM   15  F   UNK N   1      28.142  23.412  -2.961  0.00  0.00    -0.242 F 
HETATM   16  C   UNK N   1      30.417  21.914  -3.423  0.00  0.00     0.179 C 
HETATM   17  O   UNK N   1      29.977  22.201  -4.743  0.00  0.00    -0.353 OA
BRANCH  14  18
HETATM   18  O   UNK N   1      30.304  23.092  -1.284  0.00  0.00    -0.390 OA
HETATM   19  H   UNK N   1      30.119  23.821  -0.674  0.00  0.00     0.210 HD
ENDBRANCH  14  18
BRANCH  16  20
HETATM   20  C   UNK N   1      31.776  21.217  -3.458  0.00  0.00     0.198 C 
BRANCH  20  21
HETATM   21  O   UNK N   1      32.396  21.271  -2.209  0.00  0.00    -0.398 OA
HETATM   22  H   UNK N   1      31.865  21.290  -1.398  0.00  0.00     0.209 HD
ENDBRANCH  20  21
ENDBRANCH  16  20
ENDBRANCH  10  12
BRANCH   4  23
HETATM   23  O   UNK N   1      29.348  26.193  -5.760  0.00  0.00    -0.332 OA
HETATM   24  H   UNK N   1      30.048  25.992  -5.172  0.00  0.00     0.221 HD
ENDBRANCH   4  23
TORSDOF 5
ENDMDL
