MODEL 1
REMARK VINA RESULT:      -6.7      0.000      0.000
REMARK  6 active torsions:
REMARK  status: ('A' for Active; 'I' for Inactive)
REMARK    1  A    between atoms: O_2  and  C_3 
REMARK    2  A    between atoms: C_12  and  C_5 
REMARK    3  A    between atoms: C_8  and  O_9 
REMARK    4  A    between atoms: C_16  and  N_26 
REMARK    5  A    between atoms: C_17  and  N_25 
REMARK    6  A    between atoms: C_20  and  N_24 
ROOT
HETATM    1  C   UNK N   1      23.178  18.075   4.617  0.00  0.00     0.102 A 
HETATM    2  C   UNK N   1      22.338  18.892   3.663  0.00  0.00    -0.008 A 
HETATM    3  C   UNK N   1      22.849  20.013   2.985  0.00  0.00     0.013 A 
HETATM    4  C   UNK N   1      22.091  20.724   2.080  0.00  0.00     0.032 A 
HETATM    5  C   UNK N   1      20.778  20.349   1.855  0.00  0.00     0.055 A 
HETATM    6  C   UNK N   1      20.229  19.247   2.542  0.00  0.00     0.087 A 
HETATM    7  C   UNK N   1      21.022  18.503   3.439  0.00  0.00     0.113 A 
HETATM    8  O   UNK N   1      20.519  17.405   4.066  0.00  0.00    -0.290 OA
HETATM    9  C   UNK N   1      21.235  16.580   4.891  0.00  0.00     0.159 A 
HETATM   10  C   UNK N   1      22.517  16.846   5.211  0.00  0.00     0.086 A 
HETATM   11  C   UNK N   1      23.234  15.949   6.108  0.00  0.00     0.100 C 
HETATM   12  N   UNK N   1      23.828  15.255   6.820  0.00  0.00    -0.191 NA
ENDROOT
BRANCH   9  13
HETATM   13  N   UNK N   1      20.613  15.416   5.400  0.00  0.00    -0.379 N 
HETATM   14  H   UNK N   1      20.171  15.429   6.280  0.00  0.00     0.158 HD
HETATM   15  H   UNK N   1      20.622  14.586   4.871  0.00  0.00     0.158 HD
ENDBRANCH   9  13
BRANCH   1  16
HETATM   16  C   UNK N   1      24.672  18.163   4.499  0.00  0.00    -0.040 A 
HETATM   17  C   UNK N   1      25.342  19.095   5.256  0.00  0.00     0.048 A 
HETATM   18  C   UNK N   1      26.695  19.135   5.374  0.00  0.00     0.103 A 
HETATM   19  C   UNK N   1      27.467  18.159   4.687  0.00  0.00     0.118 A 
HETATM   20  C   UNK N   1      26.783  17.219   3.841  0.00  0.00     0.047 A 
HETATM   21  C   UNK N   1      25.403  17.246   3.773  0.00  0.00     0.030 A 
HETATM   22 Br   UNK N   1      27.575  15.823   2.795  0.00  0.00    -0.048 Br
BRANCH  18  23
HETATM   23  O   UNK N   1      27.173  20.092   6.207  0.00  0.00    -0.353 OA
HETATM   24  C   UNK N   1      27.117  21.444   6.008  0.00  0.00     0.210 C 
ENDBRANCH  18  23
BRANCH  19  25
HETATM   25  O   UNK N   1      28.806  18.140   4.878  0.00  0.00    -0.352 OA
HETATM   26  C   UNK N   1      29.448  17.375   5.817  0.00  0.00     0.210 C 
ENDBRANCH  19  25
ENDBRANCH   1  16
BRANCH   6  27
HETATM   27  N   UNK N   1      18.886  18.883   2.325  0.00  0.00    -0.395 N 
HETATM   28  H   UNK N   1      18.649  18.275   1.589  0.00  0.00     0.156 HD
HETATM   29  H   UNK N   1      18.181  19.238   2.914  0.00  0.00     0.156 HD
ENDBRANCH   6  27
BRANCH   5  30
HETATM   30  N   UNK N   1      20.010  21.085   0.932  0.00  0.00    -0.397 N 
HETATM   31  H   UNK N   1      20.313  21.970   0.626  0.00  0.00     0.156 HD
HETATM   32  H   UNK N   1      19.166  20.712   0.590  0.00  0.00     0.156 HD
ENDBRANCH   5  30
TORSDOF 6
ENDMDL
MODEL 2
REMARK VINA RESULT:      -6.7      4.756      8.217
REMARK  6 active torsions:
REMARK  status: ('A' for Active; 'I' for Inactive)
REMARK    1  A    between atoms: O_2  and  C_3 
REMARK    2  A    between atoms: C_12  and  C_5 
REMARK    3  A    between atoms: C_8  and  O_9 
REMARK    4  A    between atoms: C_16  and  N_26 
REMARK    5  A    between atoms: C_17  and  N_25 
REMARK    6  A    between atoms: C_20  and  N_24 
ROOT
HETATM    1  C   UNK N   1      29.185  17.004   6.197  0.00  0.00     0.102 A 
HETATM    2  C   UNK N   1      30.291  16.749   5.199  0.00  0.00    -0.008 A 
HETATM    3  C   UNK N   1      30.060  16.724   3.813  0.00  0.00     0.013 A 
HETATM    4  C   UNK N   1      31.082  16.538   2.907  0.00  0.00     0.032 A 
HETATM    5  C   UNK N   1      32.369  16.334   3.372  0.00  0.00     0.055 A 
HETATM    6  C   UNK N   1      32.626  16.323   4.759  0.00  0.00     0.087 A 
HETATM    7  C   UNK N   1      31.581  16.550   5.677  0.00  0.00     0.113 A 
HETATM    8  O   UNK N   1      31.828  16.597   7.015  0.00  0.00    -0.290 OA
HETATM    9  C   UNK N   1      30.893  16.886   7.971  0.00  0.00     0.159 A 
HETATM   10  C   UNK N   1      29.598  17.083   7.653  0.00  0.00     0.086 A 
HETATM   11  C   UNK N   1      28.635  17.370   8.709  0.00  0.00     0.100 C 
HETATM   12  N   UNK N   1      27.848  17.599   9.527  0.00  0.00    -0.191 NA
ENDROOT
BRANCH   9  13
HETATM   13  N   UNK N   1      31.308  16.997   9.320  0.00  0.00    -0.379 N 
HETATM   14  H   UNK N   1      31.814  17.785   9.624  0.00  0.00     0.158 HD
HETATM   15  H   UNK N   1      31.090  16.280   9.959  0.00  0.00     0.158 HD
ENDBRANCH   9  13
BRANCH   1  16
HETATM   16  C   UNK N   1      27.940  17.690   5.713  0.00  0.00    -0.040 A 
HETATM   17  C   UNK N   1      27.891  19.064   5.730  0.00  0.00     0.048 A 
HETATM   18  C   UNK N   1      26.903  19.789   5.144  0.00  0.00     0.103 A 
HETATM   19  C   UNK N   1      25.863  19.096   4.466  0.00  0.00     0.118 A 
HETATM   20  C   UNK N   1      25.867  17.659   4.495  0.00  0.00     0.047 A 
HETATM   21  C   UNK N   1      26.908  16.995   5.116  0.00  0.00     0.030 A 
HETATM   22 Br   UNK N   1      24.585  16.487   3.686  0.00  0.00    -0.048 Br
BRANCH  18  23
HETATM   23  O   UNK N   1      27.052  21.134   5.218  0.00  0.00    -0.353 OA
HETATM   24  C   UNK N   1      27.040  21.891   6.358  0.00  0.00     0.210 C 
ENDBRANCH  18  23
BRANCH  19  25
HETATM   25  O   UNK N   1      24.930  19.817   3.802  0.00  0.00    -0.352 OA
HETATM   26  C   UNK N   1      25.110  20.367   2.559  0.00  0.00     0.210 C 
ENDBRANCH  19  25
ENDBRANCH   1  16
BRANCH   6  27
HETATM   27  N   UNK N   1      33.934  16.093   5.228  0.00  0.00    -0.395 N 
HETATM   28  H   UNK N   1      34.230  16.478   6.084  0.00  0.00     0.156 HD
HETATM   29  H   UNK N   1      34.556  15.544   4.696  0.00  0.00     0.156 HD
ENDBRANCH   6  27
BRANCH   5  30
HETATM   30  N   UNK N   1      33.406  16.140   2.440  0.00  0.00    -0.397 N 
HETATM   31  H   UNK N   1      34.100  16.826   2.317  0.00  0.00     0.156 HD
HETATM   32  H   UNK N   1      33.436  15.313   1.907  0.00  0.00     0.156 HD
ENDBRANCH   5  30
TORSDOF 6
ENDMDL
MODEL 3
REMARK VINA RESULT:      -6.6     17.317     19.231
REMARK  6 active torsions:
REMARK  status: ('A' for Active; 'I' for Inactive)
REMARK    1  A    between atoms: O_2  and  C_3 
REMARK    2  A    between atoms: C_12  and  C_5 
REMARK    3  A    between atoms: C_8  and  O_9 
REMARK    4  A    between atoms: C_16  and  N_26 
REMARK    5  A    between atoms: C_17  and  N_25 
REMARK    6  A    between atoms: C_20  and  N_24 
ROOT
HETATM    1  C   UNK N   1      36.254  11.496  15.048  0.00  0.00     0.102 A 
HETATM    2  C   UNK N   1      35.872  11.876  16.460  0.00  0.00    -0.008 A 
HETATM    3  C   UNK N   1      35.642  10.914  17.459  0.00  0.00     0.013 A 
HETATM    4  C   UNK N   1      35.340  11.270  18.756  0.00  0.00     0.032 A 
HETATM    5  C   UNK N   1      35.224  12.610  19.081  0.00  0.00     0.055 A 
HETATM    6  C   UNK N   1      35.420  13.597  18.092  0.00  0.00     0.087 A 
HETATM    7  C   UNK N   1      35.763  13.225  16.777  0.00  0.00     0.113 A 
HETATM    8  O   UNK N   1      36.008  14.171  15.828  0.00  0.00    -0.290 OA
HETATM    9  C   UNK N   1      36.421  13.906  14.550  0.00  0.00     0.159 A 
HETATM   10  C   UNK N   1      36.550  12.642  14.101  0.00  0.00     0.086 A 
HETATM   11  C   UNK N   1      36.975  12.409  12.725  0.00  0.00     0.100 C 
HETATM   12  N   UNK N   1      37.309  12.194  11.638  0.00  0.00    -0.191 NA
ENDROOT
BRANCH   9  13
HETATM   13  N   UNK N   1      36.733  14.989  13.696  0.00  0.00    -0.379 N 
HETATM   14  H   UNK N   1      37.537  14.962  13.128  0.00  0.00     0.158 HD
HETATM   15  H   UNK N   1      36.143  15.777  13.669  0.00  0.00     0.158 HD
ENDBRANCH   9  13
BRANCH   1  16
HETATM   16  C   UNK N   1      36.843  10.134  14.816  0.00  0.00    -0.040 A 
HETATM   17  C   UNK N   1      36.057   9.162  14.244  0.00  0.00     0.048 A 
HETATM   18  C   UNK N   1      36.536   7.965  13.815  0.00  0.00     0.103 A 
HETATM   19  C   UNK N   1      37.926   7.699  13.954  0.00  0.00     0.118 A 
HETATM   20  C   UNK N   1      38.747   8.681  14.609  0.00  0.00     0.047 A 
HETATM   21  C   UNK N   1      38.182   9.874  15.019  0.00  0.00     0.030 A 
HETATM   22 Br   UNK N   1      40.631   8.570  14.942  0.00  0.00    -0.048 Br
BRANCH  18  23
HETATM   23  O   UNK N   1      35.621   7.154  13.229  0.00  0.00    -0.353 OA
HETATM   24  C   UNK N   1      34.980   7.378  12.042  0.00  0.00     0.210 C 
ENDBRANCH  18  23
BRANCH  19  25
HETATM   25  O   UNK N   1      38.419   6.548  13.444  0.00  0.00    -0.352 OA
HETATM   26  C   UNK N   1      38.942   6.416  12.183  0.00  0.00     0.210 C 
ENDBRANCH  19  25
ENDBRANCH   1  16
BRANCH   6  27
HETATM   27  N   UNK N   1      35.280  14.958  18.422  0.00  0.00    -0.395 N 
HETATM   28  H   UNK N   1      34.694  15.542  17.889  0.00  0.00     0.156 HD
HETATM   29  H   UNK N   1      35.771  15.329  19.191  0.00  0.00     0.156 HD
ENDBRANCH   6  27
BRANCH   5  30
HETATM   30  N   UNK N   1      34.911  12.963  20.407  0.00  0.00    -0.397 N 
HETATM   31  H   UNK N   1      35.310  12.472  21.161  0.00  0.00     0.156 HD
HETATM   32  H   UNK N   1      34.290  13.707  20.582  0.00  0.00     0.156 HD
ENDBRANCH   5  30
TORSDOF 6
ENDMDL
MODEL 4
REMARK VINA RESULT:      -6.4      5.002      7.410
REMARK  6 active torsions:
REMARK  status: ('A' for Active; 'I' for Inactive)
REMARK    1  A    between atoms: O_2  and  C_3 
REMARK    2  A    between atoms: C_12  and  C_5 
REMARK    3  A    between atoms: C_8  and  O_9 
REMARK    4  A    between atoms: C_16  and  N_26 
REMARK    5  A    between atoms: C_17  and  N_25 
REMARK    6  A    between atoms: C_20  and  N_24 
ROOT
HETATM    1  C   UNK N   1      30.078  17.389   6.459  0.00  0.00     0.102 A 
HETATM    2  C   UNK N   1      28.914  18.194   5.929  0.00  0.00    -0.008 A 
HETATM    3  C   UNK N   1      28.537  18.165   4.575  0.00  0.00     0.013 A 
HETATM    4  C   UNK N   1      27.445  18.865   4.108  0.00  0.00     0.032 A 
HETATM    5  C   UNK N   1      26.718  19.649   4.986  0.00  0.00     0.055 A 
HETATM    6  C   UNK N   1      27.092  19.722   6.344  0.00  0.00     0.087 A 
HETATM    7  C   UNK N   1      28.187  18.975   6.820  0.00  0.00     0.113 A 
HETATM    8  O   UNK N   1      28.522  18.995   8.140  0.00  0.00    -0.290 OA
HETATM    9  C   UNK N   1      29.518  18.245   8.704  0.00  0.00     0.159 A 
HETATM   10  C   UNK N   1      30.316  17.457   7.955  0.00  0.00     0.086 A 
HETATM   11  C   UNK N   1      31.376  16.691   8.598  0.00  0.00     0.100 C 
HETATM   12  N   UNK N   1      32.227  16.072   9.082  0.00  0.00    -0.191 NA
ENDROOT
BRANCH   9  13
HETATM   13  N   UNK N   1      29.696  18.291  10.107  0.00  0.00    -0.379 N 
HETATM   14  H   UNK N   1      30.326  18.930  10.510  0.00  0.00     0.158 HD
HETATM   15  H   UNK N   1      29.186  17.677  10.684  0.00  0.00     0.158 HD
ENDBRANCH   9  13
BRANCH   1  16
HETATM   16  C   UNK N   1      30.543  16.206   5.660  0.00  0.00    -0.040 A 
HETATM   17  C   UNK N   1      29.772  15.067   5.653  0.00  0.00     0.048 A 
HETATM   18  C   UNK N   1      29.992  14.016   4.821  0.00  0.00     0.103 A 
HETATM   19  C   UNK N   1      31.072  14.093   3.899  0.00  0.00     0.118 A 
HETATM   20  C   UNK N   1      31.924  15.249   3.940  0.00  0.00     0.047 A 
HETATM   21  C   UNK N   1      31.634  16.276   4.819  0.00  0.00     0.030 A 
HETATM   22 Br   UNK N   1      33.449  15.597   2.833  0.00  0.00    -0.048 Br
BRANCH  18  23
HETATM   23  O   UNK N   1      29.096  13.004   4.921  0.00  0.00    -0.353 OA
HETATM   24  C   UNK N   1      27.774  13.051   4.573  0.00  0.00     0.210 C 
ENDBRANCH  18  23
BRANCH  19  25
HETATM   25  O   UNK N   1      31.236  13.088   3.009  0.00  0.00    -0.352 OA
HETATM   26  C   UNK N   1      32.054  12.004   3.199  0.00  0.00     0.210 C 
ENDBRANCH  19  25
ENDBRANCH   1  16
BRANCH   6  27
HETATM   27  N   UNK N   1      26.362  20.539   7.229  0.00  0.00    -0.395 N 
HETATM   28  H   UNK N   1      25.916  20.147   8.015  0.00  0.00     0.156 HD
HETATM   29  H   UNK N   1      26.296  21.507   7.061  0.00  0.00     0.156 HD
ENDBRANCH   6  27
BRANCH   5  30
HETATM   30  N   UNK N   1      25.608  20.364   4.498  0.00  0.00    -0.397 N 
HETATM   31  H   UNK N   1      24.947  19.923   3.917  0.00  0.00     0.156 HD
HETATM   32  H   UNK N   1      25.491  21.311   4.741  0.00  0.00     0.156 HD
ENDBRANCH   5  30
TORSDOF 6
ENDMDL
MODEL 5
REMARK VINA RESULT:      -6.4      6.155      8.782
REMARK  6 active torsions:
REMARK  status: ('A' for Active; 'I' for Inactive)
REMARK    1  A    between atoms: O_2  and  C_3 
REMARK    2  A    between atoms: C_12  and  C_5 
REMARK    3  A    between atoms: C_8  and  O_9 
REMARK    4  A    between atoms: C_16  and  N_26 
REMARK    5  A    between atoms: C_17  and  N_25 
REMARK    6  A    between atoms: C_20  and  N_24 
ROOT
HETATM    1  C   UNK N   1      30.877  16.140   6.229  0.00  0.00     0.102 A 
HETATM    2  C   UNK N   1      29.854  17.119   6.757  0.00  0.00    -0.008 A 
HETATM    3  C   UNK N   1      29.696  17.370   8.132  0.00  0.00     0.013 A 
HETATM    4  C   UNK N   1      28.795  18.300   8.603  0.00  0.00     0.032 A 
HETATM    5  C   UNK N   1      27.995  18.982   7.704  0.00  0.00     0.055 A 
HETATM    6  C   UNK N   1      28.109  18.730   6.321  0.00  0.00     0.087 A 
HETATM    7  C   UNK N   1      29.059  17.804   5.845  0.00  0.00     0.113 A 
HETATM    8  O   UNK N   1      29.216  17.593   4.510  0.00  0.00    -0.290 OA
HETATM    9  C   UNK N   1      30.161  16.773   3.955  0.00  0.00     0.159 A 
HETATM   10  C   UNK N   1      30.989  16.034   4.721  0.00  0.00     0.086 A 
HETATM   11  C   UNK N   1      31.967  15.161   4.084  0.00  0.00     0.100 C 
HETATM   12  N   UNK N   1      32.753  14.458   3.606  0.00  0.00    -0.191 NA
ENDROOT
BRANCH   9  13
HETATM   13  N   UNK N   1      30.278  16.721   2.546  0.00  0.00    -0.379 N 
HETATM   14  H   UNK N   1      31.051  16.282   2.124  0.00  0.00     0.158 HD
HETATM   15  H   UNK N   1      29.580  17.128   1.983  0.00  0.00     0.158 HD
ENDBRANCH   9  13
BRANCH   1  16
HETATM   16  C   UNK N   1      32.036  15.780   7.113  0.00  0.00    -0.040 A 
HETATM   17  C   UNK N   1      32.779  16.793   7.674  0.00  0.00     0.048 A 
HETATM   18  C   UNK N   1      33.720  16.590   8.634  0.00  0.00     0.103 A 
HETATM   19  C   UNK N   1      33.948  15.265   9.094  0.00  0.00     0.118 A 
HETATM   20  C   UNK N   1      33.224  14.191   8.470  0.00  0.00     0.047 A 
HETATM   21  C   UNK N   1      32.285  14.480   7.498  0.00  0.00     0.030 A 
HETATM   22 Br   UNK N   1      33.353  12.324   8.880  0.00  0.00    -0.048 Br
BRANCH  18  23
HETATM   23  O   UNK N   1      34.312  17.714   9.105  0.00  0.00    -0.353 OA
HETATM   24  C   UNK N   1      34.857  18.721   8.356  0.00  0.00     0.210 C 
ENDBRANCH  18  23
BRANCH  19  25
HETATM   25  O   UNK N   1      34.817  15.074  10.113  0.00  0.00    -0.352 OA
HETATM   26  C   UNK N   1      36.147  14.780   9.958  0.00  0.00     0.210 C 
ENDBRANCH  19  25
ENDBRANCH   1  16
BRANCH   6  27
HETATM   27  N   UNK N   1      27.278  19.412   5.412  0.00  0.00    -0.395 N 
HETATM   28  H   UNK N   1      26.362  19.663   5.668  0.00  0.00     0.156 HD
HETATM   29  H   UNK N   1      27.615  19.638   4.514  0.00  0.00     0.156 HD
ENDBRANCH   6  27
BRANCH   5  30
HETATM   30  N   UNK N   1      27.073  19.927   8.196  0.00  0.00    -0.397 N 
HETATM   31  H   UNK N   1      27.311  20.881   8.236  0.00  0.00     0.156 HD
HETATM   32  H   UNK N   1      26.185  19.632   8.500  0.00  0.00     0.156 HD
ENDBRANCH   5  30
TORSDOF 6
ENDMDL
MODEL 6
REMARK VINA RESULT:      -6.2      4.447      8.005
REMARK  6 active torsions:
REMARK  status: ('A' for Active; 'I' for Inactive)
REMARK    1  A    between atoms: O_2  and  C_3 
REMARK    2  A    between atoms: C_12  and  C_5 
REMARK    3  A    between atoms: C_8  and  O_9 
REMARK    4  A    between atoms: C_16  and  N_26 
REMARK    5  A    between atoms: C_17  and  N_25 
REMARK    6  A    between atoms: C_20  and  N_24 
ROOT
HETATM    1  C   UNK N   1      28.526  17.041   4.915  0.00  0.00     0.102 A 
HETATM    2  C   UNK N   1      28.887  17.494   6.310  0.00  0.00    -0.008 A 
HETATM    3  C   UNK N   1      28.128  18.448   7.010  0.00  0.00     0.013 A 
HETATM    4  C   UNK N   1      28.436  18.820   8.301  0.00  0.00     0.032 A 
HETATM    5  C   UNK N   1      29.545  18.269   8.917  0.00  0.00     0.055 A 
HETATM    6  C   UNK N   1      30.344  17.331   8.229  0.00  0.00     0.087 A 
HETATM    7  C   UNK N   1      30.001  16.929   6.923  0.00  0.00     0.113 A 
HETATM    8  O   UNK N   1      30.733  15.984   6.271  0.00  0.00    -0.290 OA
HETATM    9  C   UNK N   1      30.431  15.479   5.036  0.00  0.00     0.159 A 
HETATM   10  C   UNK N   1      29.390  15.947   4.318  0.00  0.00     0.086 A 
HETATM   11  C   UNK N   1      29.119  15.389   2.999  0.00  0.00     0.100 C 
HETATM   12  N   UNK N   1      28.881  14.967   1.948  0.00  0.00    -0.191 NA
ENDROOT
BRANCH   9  13
HETATM   13  N   UNK N   1      31.224  14.428   4.516  0.00  0.00    -0.379 N 
HETATM   14  H   UNK N   1      32.197  14.541   4.412  0.00  0.00     0.158 HD
HETATM   15  H   UNK N   1      30.801  13.579   4.256  0.00  0.00     0.158 HD
ENDBRANCH   9  13
BRANCH   1  16
HETATM   16  C   UNK N   1      27.115  17.247   4.446  0.00  0.00    -0.040 A 
HETATM   17  C   UNK N   1      26.162  16.314   4.786  0.00  0.00     0.048 A 
HETATM   18  C   UNK N   1      24.831  16.493   4.584  0.00  0.00     0.103 A 
HETATM   19  C   UNK N   1      24.389  17.711   3.999  0.00  0.00     0.118 A 
HETATM   20  C   UNK N   1      25.378  18.667   3.581  0.00  0.00     0.047 A 
HETATM   21  C   UNK N   1      26.715  18.408   3.819  0.00  0.00     0.030 A 
HETATM   22 Br   UNK N   1      25.062  20.366   2.754  0.00  0.00    -0.048 Br
BRANCH  18  23
HETATM   23  O   UNK N   1      24.040  15.488   5.032  0.00  0.00    -0.353 OA
HETATM   24  C   UNK N   1      23.778  15.179   6.338  0.00  0.00     0.210 C 
ENDBRANCH  18  23
BRANCH  19  25
HETATM   25  O   UNK N   1      23.059  17.929   3.883  0.00  0.00    -0.352 OA
HETATM   26  C   UNK N   1      22.255  18.392   4.893  0.00  0.00     0.210 C 
ENDBRANCH  19  25
ENDBRANCH   1  16
BRANCH   6  27
HETATM   27  N   UNK N   1      31.483  16.789   8.854  0.00  0.00    -0.395 N 
HETATM   28  H   UNK N   1      32.245  16.476   8.314  0.00  0.00     0.156 HD
HETATM   29  H   UNK N   1      31.519  16.722   9.836  0.00  0.00     0.156 HD
ENDBRANCH   6  27
BRANCH   5  30
HETATM   30  N   UNK N   1      29.854  18.659  10.234  0.00  0.00    -0.397 N 
HETATM   31  H   UNK N   1      29.612  18.083  10.994  0.00  0.00     0.156 HD
HETATM   32  H   UNK N   1      30.316  19.513  10.396  0.00  0.00     0.156 HD
ENDBRANCH   5  30
TORSDOF 6
ENDMDL
MODEL 7
REMARK VINA RESULT:      -6.2     17.151     19.503
REMARK  6 active torsions:
REMARK  status: ('A' for Active; 'I' for Inactive)
REMARK    1  A    between atoms: O_2  and  C_3 
REMARK    2  A    between atoms: C_12  and  C_5 
REMARK    3  A    between atoms: C_8  and  O_9 
REMARK    4  A    between atoms: C_16  and  N_26 
REMARK    5  A    between atoms: C_17  and  N_25 
REMARK    6  A    between atoms: C_20  and  N_24 
ROOT
HETATM    1  C   UNK N   1      36.270  11.352  14.913  0.00  0.00     0.102 A 
HETATM    2  C   UNK N   1      35.905  11.706  16.336  0.00  0.00    -0.008 A 
HETATM    3  C   UNK N   1      35.700  10.728  17.324  0.00  0.00     0.013 A 
HETATM    4  C   UNK N   1      35.413  11.061  18.631  0.00  0.00     0.032 A 
HETATM    5  C   UNK N   1      35.288  12.394  18.977  0.00  0.00     0.055 A 
HETATM    6  C   UNK N   1      35.458  13.398  18.000  0.00  0.00     0.087 A 
HETATM    7  C   UNK N   1      35.786  13.050  16.675  0.00  0.00     0.113 A 
HETATM    8  O   UNK N   1      36.007  14.012  15.737  0.00  0.00    -0.290 OA
HETATM    9  C   UNK N   1      36.404  13.771  14.450  0.00  0.00     0.159 A 
HETATM   10  C   UNK N   1      36.540  12.515  13.979  0.00  0.00     0.086 A 
HETATM   11  C   UNK N   1      36.947  12.308  12.595  0.00  0.00     0.100 C 
HETATM   12  N   UNK N   1      37.268  12.113  11.499  0.00  0.00    -0.191 NA
ENDROOT
BRANCH   9  13
HETATM   13  N   UNK N   1      36.692  14.870  13.607  0.00  0.00    -0.379 N 
HETATM   14  H   UNK N   1      36.879  14.731  12.651  0.00  0.00     0.158 HD
HETATM   15  H   UNK N   1      36.707  15.781  13.980  0.00  0.00     0.158 HD
ENDBRANCH   9  13
BRANCH   1  16
HETATM   16  C   UNK N   1      36.871  10.001  14.653  0.00  0.00    -0.040 A 
HETATM   17  C   UNK N   1      38.140   9.740  15.116  0.00  0.00     0.048 A 
HETATM   18  C   UNK N   1      38.703   8.503  15.107  0.00  0.00     0.103 A 
HETATM   19  C   UNK N   1      37.943   7.413  14.601  0.00  0.00     0.118 A 
HETATM   20  C   UNK N   1      36.641   7.683  14.055  0.00  0.00     0.047 A 
HETATM   21  C   UNK N   1      36.140   8.971  14.099  0.00  0.00     0.030 A 
HETATM   22 Br   UNK N   1      35.424   6.412  13.297  0.00  0.00    -0.048 Br
BRANCH  18  23
HETATM   23  O   UNK N   1      39.941   8.430  15.653  0.00  0.00    -0.353 OA
HETATM   24  C   UNK N   1      41.128   8.650  15.009  0.00  0.00     0.210 C 
ENDBRANCH  18  23
BRANCH  19  25
HETATM   25  O   UNK N   1      38.467   6.169  14.678  0.00  0.00    -0.352 OA
HETATM   26  C   UNK N   1      38.247   5.294  15.710  0.00  0.00     0.210 C 
ENDBRANCH  19  25
ENDBRANCH   1  16
BRANCH   6  27
HETATM   27  N   UNK N   1      35.308  14.753  18.353  0.00  0.00    -0.395 N 
HETATM   28  H   UNK N   1      34.882  15.385  17.730  0.00  0.00     0.156 HD
HETATM   29  H   UNK N   1      35.632  15.070  19.228  0.00  0.00     0.156 HD
ENDBRANCH   6  27
BRANCH   5  30
HETATM   30  N   UNK N   1      34.991  12.724  20.313  0.00  0.00    -0.397 N 
HETATM   31  H   UNK N   1      35.049  13.657  20.620  0.00  0.00     0.156 HD
HETATM   32  H   UNK N   1      34.722  12.017  20.944  0.00  0.00     0.156 HD
ENDBRANCH   5  30
TORSDOF 6
ENDMDL
MODEL 8
REMARK VINA RESULT:      -6.2      3.041      7.125
REMARK  6 active torsions:
REMARK  status: ('A' for Active; 'I' for Inactive)
REMARK    1  A    between atoms: O_2  and  C_3 
REMARK    2  A    between atoms: C_12  and  C_5 
REMARK    3  A    between atoms: C_8  and  O_9 
REMARK    4  A    between atoms: C_16  and  N_26 
REMARK    5  A    between atoms: C_17  and  N_25 
REMARK    6  A    between atoms: C_20  and  N_24 
ROOT
HETATM    1  C   UNK N   1      24.516  18.343   4.547  0.00  0.00     0.102 A 
HETATM    2  C   UNK N   1      25.777  17.590   4.902  0.00  0.00    -0.008 A 
HETATM    3  C   UNK N   1      25.756  16.402   5.654  0.00  0.00     0.013 A 
HETATM    4  C   UNK N   1      26.906  15.696   5.933  0.00  0.00     0.032 A 
HETATM    5  C   UNK N   1      28.123  16.184   5.493  0.00  0.00     0.055 A 
HETATM    6  C   UNK N   1      28.179  17.389   4.761  0.00  0.00     0.087 A 
HETATM    7  C   UNK N   1      26.995  18.086   4.450  0.00  0.00     0.113 A 
HETATM    8  O   UNK N   1      27.033  19.220   3.698  0.00  0.00    -0.290 OA
HETATM    9  C   UNK N   1      25.931  19.919   3.284  0.00  0.00     0.159 A 
HETATM   10  C   UNK N   1      24.688  19.562   3.663  0.00  0.00     0.086 A 
HETATM   11  C   UNK N   1      23.546  20.348   3.211  0.00  0.00     0.100 C 
HETATM   12  N   UNK N   1      22.621  20.954   2.868  0.00  0.00    -0.191 NA
ENDROOT
BRANCH   9  13
HETATM   13  N   UNK N   1      26.110  21.028   2.423  0.00  0.00    -0.379 N 
HETATM   14  H   UNK N   1      26.829  21.028   1.751  0.00  0.00     0.158 HD
HETATM   15  H   UNK N   1      25.512  21.806   2.498  0.00  0.00     0.158 HD
ENDBRANCH   9  13
BRANCH   1  16
HETATM   16  C   UNK N   1      23.212  17.599   4.587  0.00  0.00    -0.040 A 
HETATM   17  C   UNK N   1      22.438  17.682   5.721  0.00  0.00     0.048 A 
HETATM   18  C   UNK N   1      21.164  17.214   5.796  0.00  0.00     0.103 A 
HETATM   19  C   UNK N   1      20.592  16.611   4.643  0.00  0.00     0.118 A 
HETATM   20  C   UNK N   1      21.413  16.460   3.472  0.00  0.00     0.047 A 
HETATM   21  C   UNK N   1      22.701  16.962   3.477  0.00  0.00     0.030 A 
HETATM   22 Br   UNK N   1      20.903  15.672   1.802  0.00  0.00    -0.048 Br
BRANCH  18  23
HETATM   23  O   UNK N   1      20.539  17.433   6.978  0.00  0.00    -0.353 OA
HETATM   24  C   UNK N   1      20.462  16.563   8.031  0.00  0.00     0.210 C 
ENDBRANCH  18  23
BRANCH  19  25
HETATM   25  O   UNK N   1      19.295  16.229   4.688  0.00  0.00    -0.352 OA
HETATM   26  C   UNK N   1      18.868  14.955   4.958  0.00  0.00     0.210 C 
ENDBRANCH  19  25
ENDBRANCH   1  16
BRANCH   6  27
HETATM   27  N   UNK N   1      29.423  17.893   4.334  0.00  0.00    -0.395 N 
HETATM   28  H   UNK N   1      30.123  18.110   4.990  0.00  0.00     0.156 HD
HETATM   29  H   UNK N   1      29.592  18.029   3.373  0.00  0.00     0.156 HD
ENDBRANCH   6  27
BRANCH   5  30
HETATM   30  N   UNK N   1      29.293  15.457   5.786  0.00  0.00    -0.397 N 
HETATM   31  H   UNK N   1      29.242  14.614   6.291  0.00  0.00     0.156 HD
HETATM   32  H   UNK N   1      30.167  15.795   5.484  0.00  0.00     0.156 HD
ENDBRANCH   5  30
TORSDOF 6
ENDMDL
MODEL 9
REMARK VINA RESULT:      -6.1     11.600     13.235
REMARK  6 active torsions:
REMARK  status: ('A' for Active; 'I' for Inactive)
REMARK    1  A    between atoms: O_2  and  C_3 
REMARK    2  A    between atoms: C_12  and  C_5 
REMARK    3  A    between atoms: C_8  and  O_9 
REMARK    4  A    between atoms: C_16  and  N_26 
REMARK    5  A    between atoms: C_17  and  N_25 
REMARK    6  A    between atoms: C_20  and  N_24 
ROOT
HETATM    1  C   UNK N   1      29.108  23.123  -5.066  0.00  0.00     0.102 A 
HETATM    2  C   UNK N   1      28.862  22.526  -6.432  0.00  0.00    -0.008 A 
HETATM    3  C   UNK N   1      28.144  23.206  -7.431  0.00  0.00     0.013 A 
HETATM    4  C   UNK N   1      27.965  22.675  -8.690  0.00  0.00     0.032 A 
HETATM    5  C   UNK N   1      28.474  21.420  -8.973  0.00  0.00     0.055 A 
HETATM    6  C   UNK N   1      29.174  20.700  -7.982  0.00  0.00     0.087 A 
HETATM    7  C   UNK N   1      29.383  21.266  -6.708  0.00  0.00     0.113 A 
HETATM    8  O   UNK N   1      30.104  20.603  -5.763  0.00  0.00    -0.290 OA
HETATM    9  C   UNK N   1      30.422  21.105  -4.530  0.00  0.00     0.159 A 
HETATM   10  C   UNK N   1      29.968  22.307  -4.121  0.00  0.00     0.086 A 
HETATM   11  C   UNK N   1      30.319  22.792  -2.791  0.00  0.00     0.100 C 
HETATM   12  N   UNK N   1      30.579  23.202  -1.740  0.00  0.00    -0.191 NA
ENDROOT
BRANCH   9  13
HETATM   13  N   UNK N   1      31.261  20.347  -3.680  0.00  0.00    -0.379 N 
HETATM   14  H   UNK N   1      31.775  20.785  -2.964  0.00  0.00     0.158 HD
HETATM   15  H   UNK N   1      31.332  19.373  -3.806  0.00  0.00     0.158 HD
ENDBRANCH   9  13
BRANCH   1  16
HETATM   16  C   UNK N   1      29.000  24.613  -4.915  0.00  0.00    -0.040 A 
HETATM   17  C   UNK N   1      27.882  25.137  -4.309  0.00  0.00     0.048 A 
HETATM   18  C   UNK N   1      27.765  26.442  -3.948  0.00  0.00     0.103 A 
HETATM   19  C   UNK N   1      28.856  27.317  -4.201  0.00  0.00     0.118 A 
HETATM   20  C   UNK N   1      30.004  26.797  -4.891  0.00  0.00     0.047 A 
HETATM   21  C   UNK N   1      30.045  25.456  -5.227  0.00  0.00     0.030 A 
HETATM   22 Br   UNK N   1      31.592  27.756  -5.371  0.00  0.00    -0.048 Br
BRANCH  18  23
HETATM   23  O   UNK N   1      26.611  26.763  -3.314  0.00  0.00    -0.353 OA
HETATM   24  C   UNK N   1      25.637  27.605  -3.776  0.00  0.00     0.210 C 
ENDBRANCH  18  23
BRANCH  19  25
HETATM   25  O   UNK N   1      28.777  28.593  -3.759  0.00  0.00    -0.352 OA
HETATM   26  C   UNK N   1      29.287  29.037  -2.566  0.00  0.00     0.210 C 
ENDBRANCH  19  25
ENDBRANCH   1  16
BRANCH   6  27
HETATM   27  N   UNK N   1      29.671  19.414  -8.268  0.00  0.00    -0.395 N 
HETATM   28  H   UNK N   1      29.978  19.191  -9.176  0.00  0.00     0.156 HD
HETATM   29  H   UNK N   1      29.713  18.735  -7.556  0.00  0.00     0.156 HD
ENDBRANCH   6  27
BRANCH   5  30
HETATM   30  N   UNK N   1      28.283  20.884 -10.261  0.00  0.00    -0.397 N 
HETATM   31  H   UNK N   1      27.869  19.998 -10.375  0.00  0.00     0.156 HD
HETATM   32  H   UNK N   1      28.564  21.398 -11.052  0.00  0.00     0.156 HD
ENDBRANCH   5  30
TORSDOF 6
ENDMDL
