MODEL 1
REMARK VINA RESULT:      -7.8      0.000      0.000
REMARK  14 active torsions:
REMARK  status: ('A' for Active; 'I' for Inactive)
REMARK    1  A    between atoms: C_2  and  C_3 
REMARK    2  A    between atoms: C_2  and  C_13 
REMARK    3  A    between atoms: C_3  and  C_4 
REMARK    4  A    between atoms: C_3  and  O_12 
REMARK    5  A    between atoms: C_7  and  O_11 
REMARK    6  A    between atoms: C_13  and  C_14 
REMARK    7  A    between atoms: C_13  and  N_36 
REMARK       I    between atoms: C_14  and  N_16 
REMARK    8  A    between atoms: C_17  and  N_16 
REMARK    9  A    between atoms: C_18  and  C_17 
REMARK   10  A    between atoms: C_17  and  C_33 
REMARK   11  A    between atoms: C_19  and  O_32 
REMARK   12  A    between atoms: C_20  and  O_31 
REMARK   13  A    between atoms: C_21  and  N_23 
REMARK   14  A    between atoms: C_33  and  O_35 
ROOT
HETATM    1  C   UNK N   1      35.386  11.586  12.834  0.00  0.00     0.214 C 
ENDROOT
BRANCH   1   2
HETATM    2  N   UNK N   1      35.236  12.885  12.221  0.00  0.00    -0.343 N 
HETATM    3  C   UNK N   1      36.164  13.413  11.398  0.00  0.00     0.241 C 
HETATM    4  O   UNK N   1      37.123  12.749  11.030  0.00  0.00    -0.271 OA
HETATM    5  H   UNK N   1      34.422  13.405  12.412  0.00  0.00     0.163 HD
BRANCH   3   6
HETATM    6  C   UNK N   1      36.000  14.825  10.920  0.00  0.00     0.173 C 
BRANCH   6   7
HETATM    7  C   UNK N   1      34.945  14.929   9.826  0.00  0.00     0.048 C 
HETATM    8  C   UNK N   1      35.328  13.959   8.712  0.00  0.00     0.015 C 
BRANCH   7   9
HETATM    9  C   UNK N   1      34.751  16.402   9.398  0.00  0.00     0.174 C 
BRANCH   9  10
HETATM   10  C   UNK N   1      33.523  16.671   8.581  0.00  0.00     0.038 A 
HETATM   11  C   UNK N   1      33.661  17.111   7.257  0.00  0.00     0.030 A 
HETATM   12  C   UNK N   1      32.525  17.318   6.480  0.00  0.00     0.040 A 
HETATM   13  C   UNK N   1      31.266  17.089   7.031  0.00  0.00     0.081 A 
HETATM   14  C   UNK N   1      31.161  16.676   8.362  0.00  0.00     0.124 A 
HETATM   15  N   UNK N   1      32.282  16.479   9.107  0.00  0.00    -0.364 N 
ATOM     16  HN  UNK N   1      32.191  16.182  10.079  1.00  0.00     0.165 HD
BRANCH  13  17
HETATM   17  O   UNK N   1      30.164  17.263   6.288  0.00  0.00    -0.359 OA
HETATM   18  H   UNK N   1      29.560  16.559   6.148  0.00  0.00     0.217 HD
ENDBRANCH  13  17
ENDBRANCH   9  10
BRANCH   9  19
HETATM   19  O   UNK N   1      34.834  17.234  10.516  0.00  0.00    -0.389 OA
HETATM   20  H   UNK N   1      34.969  16.851  11.396  0.00  0.00     0.210 HD
ENDBRANCH   9  19
ENDBRANCH   7   9
ENDBRANCH   6   7
BRANCH   6  21
HETATM   21  N   UNK N   1      37.275  15.381  10.496  0.00  0.00    -0.418 N 
HETATM   22  H   UNK N   1      37.330  15.940   9.645  0.00  0.00     0.150 HD
HETATM   23  H   UNK N   1      38.115  15.212  11.051  0.00  0.00     0.150 HD
ENDBRANCH   6  21
ENDBRANCH   3   6
ENDBRANCH   1   2
BRANCH   1  24
HETATM   24  C   UNK N   1      35.626  11.790  14.328  0.00  0.00     0.188 C 
HETATM   25  C   UNK N   1      36.997  12.325  14.749  0.00  0.00     0.182 C 
HETATM   26  C   UNK N   1      36.665  13.737  15.069  0.00  0.00     0.198 C 
HETATM   27  C   UNK N   1      35.291  13.552  15.712  0.00  0.00     0.263 C 
HETATM   28  O   UNK N   1      34.640  12.701  14.804  0.00  0.00    -0.353 OA
BRANCH  25  29
HETATM   29  O   UNK N   1      37.994  12.210  13.780  0.00  0.00    -0.390 OA
HETATM   30  H   UNK N   1      38.830  11.721  13.717  0.00  0.00     0.210 HD
ENDBRANCH  25  29
BRANCH  26  31
HETATM   31  O   UNK N   1      37.618  14.356  15.880  0.00  0.00    -0.388 OA
HETATM   32  H   UNK N   1      37.902  13.945  16.712  0.00  0.00     0.210 HD
ENDBRANCH  26  31
BRANCH  27  33
HETATM   33  N   UNK N   1      35.284  12.904  17.050  0.00  0.00    -0.280 N 
HETATM   34  C   UNK N   1      35.186  11.545  17.135  0.00  0.00     0.104 A 
HETATM   35  C   UNK N   1      35.152  10.903  18.368  0.00  0.00     0.092 A 
HETATM   36  C   UNK N   1      35.236  11.664  19.525  0.00  0.00     0.250 A 
HETATM   37  O   UNK N   1      35.197  11.126  20.615  0.00  0.00    -0.268 OA
HETATM   38  N   UNK N   1      35.370  13.018  19.439  0.00  0.00    -0.275 N 
HETATM   39  C   UNK N   1      35.401  13.644  18.228  0.00  0.00     0.331 A 
HETATM   40  H   UNK N   1      35.444  13.551  20.264  0.00  0.00     0.173 HD
HETATM   41  O   UNK N   1      35.545  14.856  18.201  0.00  0.00    -0.246 OA
ENDBRANCH  27  33
ENDBRANCH   1  24
BRANCH   1  42
HETATM   42  C   UNK N   1      34.112  10.801  12.675  0.00  0.00     0.166 C 
HETATM   43  O   UNK N   1      33.804  10.329  11.590  0.00  0.00    -0.648 OA
BRANCH  42  44
HETATM   44  O   UNK N   1      33.286  10.644  13.725  0.00  0.00    -0.775 OA
HETATM   45  H   UNK N   1      33.062  10.001  14.368  0.00  0.00     0.167 HD
ENDBRANCH  42  44
ENDBRANCH   1  42
TORSDOF 14
ENDMDL
MODEL 2
REMARK VINA RESULT:      -7.6      1.807      2.405
REMARK  14 active torsions:
REMARK  status: ('A' for Active; 'I' for Inactive)
REMARK    1  A    between atoms: C_2  and  C_3 
REMARK    2  A    between atoms: C_2  and  C_13 
REMARK    3  A    between atoms: C_3  and  C_4 
REMARK    4  A    between atoms: C_3  and  O_12 
REMARK    5  A    between atoms: C_7  and  O_11 
REMARK    6  A    between atoms: C_13  and  C_14 
REMARK    7  A    between atoms: C_13  and  N_36 
REMARK       I    between atoms: C_14  and  N_16 
REMARK    8  A    between atoms: C_17  and  N_16 
REMARK    9  A    between atoms: C_18  and  C_17 
REMARK   10  A    between atoms: C_17  and  C_33 
REMARK   11  A    between atoms: C_19  and  O_32 
REMARK   12  A    between atoms: C_20  and  O_31 
REMARK   13  A    between atoms: C_21  and  N_23 
REMARK   14  A    between atoms: C_33  and  O_35 
ROOT
HETATM    1  C   UNK N   1      35.321  12.364  11.283  0.00  0.00     0.214 C 
ENDROOT
BRANCH   1   2
HETATM    2  N   UNK N   1      34.561  13.583  11.135  0.00  0.00    -0.343 N 
HETATM    3  C   UNK N   1      34.833  14.499  10.184  0.00  0.00     0.241 C 
HETATM    4  O   UNK N   1      35.663  14.271   9.316  0.00  0.00    -0.271 OA
HETATM    5  H   UNK N   1      33.813  13.750  11.753  0.00  0.00     0.163 HD
BRANCH   3   6
HETATM    6  C   UNK N   1      34.090  15.803  10.190  0.00  0.00     0.173 C 
BRANCH   6   7
HETATM    7  C   UNK N   1      33.528  16.135   8.814  0.00  0.00     0.048 C 
HETATM    8  C   UNK N   1      33.581  17.651   8.640  0.00  0.00     0.015 C 
BRANCH   7   9
HETATM    9  C   UNK N   1      32.137  15.486   8.625  0.00  0.00     0.174 C 
BRANCH   9  10
HETATM   10  C   UNK N   1      30.980  16.440   8.653  0.00  0.00     0.038 A 
HETATM   11  C   UNK N   1      30.471  16.938   7.446  0.00  0.00     0.030 A 
HETATM   12  C   UNK N   1      29.369  17.787   7.464  0.00  0.00     0.040 A 
HETATM   13  C   UNK N   1      28.791  18.134   8.683  0.00  0.00     0.081 A 
HETATM   14  C   UNK N   1      29.338  17.642   9.871  0.00  0.00     0.124 A 
HETATM   15  N   UNK N   1      30.415  16.813   9.834  0.00  0.00    -0.364 N 
ATOM     16  HN  UNK N   1      30.808  16.464  10.709  1.00  0.00     0.165 HD
BRANCH  13  17
HETATM   17  O   UNK N   1      27.715  18.934   8.714  0.00  0.00    -0.359 OA
HETATM   18  H   UNK N   1      26.874  18.602   8.961  0.00  0.00     0.217 HD
ENDBRANCH  13  17
ENDBRANCH   9  10
BRANCH   9  19
HETATM   19  O   UNK N   1      32.139  14.692   7.477  0.00  0.00    -0.389 OA
HETATM   20  H   UNK N   1      32.521  15.031   6.653  0.00  0.00     0.210 HD
ENDBRANCH   9  19
ENDBRANCH   7   9
ENDBRANCH   6   7
BRANCH   6  21
HETATM   21  N   UNK N   1      34.926  16.874  10.707  0.00  0.00    -0.418 N 
HETATM   22  H   UNK N   1      35.654  16.667  11.391  0.00  0.00     0.150 HD
HETATM   23  H   UNK N   1      34.785  17.832  10.386  0.00  0.00     0.150 HD
ENDBRANCH   6  21
ENDBRANCH   3   6
ENDBRANCH   1   2
BRANCH   1  24
HETATM   24  C   UNK N   1      35.505  12.097  12.775  0.00  0.00     0.188 C 
HETATM   25  C   UNK N   1      36.865  12.447  13.385  0.00  0.00     0.182 C 
HETATM   26  C   UNK N   1      36.537  13.701  14.110  0.00  0.00     0.198 C 
HETATM   27  C   UNK N   1      35.136  13.359  14.619  0.00  0.00     0.263 C 
HETATM   28  O   UNK N   1      34.512  12.841  13.473  0.00  0.00    -0.353 OA
BRANCH  25  29
HETATM   29  O   UNK N   1      37.897  12.611  12.461  0.00  0.00    -0.390 OA
HETATM   30  H   UNK N   1      38.409  13.369  12.138  0.00  0.00     0.210 HD
ENDBRANCH  25  29
BRANCH  26  31
HETATM   31  O   UNK N   1      37.464  14.021  15.103  0.00  0.00    -0.388 OA
HETATM   32  H   UNK N   1      38.223  14.593  14.905  0.00  0.00     0.210 HD
ENDBRANCH  26  31
BRANCH  27  33
HETATM   33  N   UNK N   1      35.070  12.334  15.694  0.00  0.00    -0.280 N 
HETATM   34  C   UNK N   1      34.827  11.033  15.363  0.00  0.00     0.104 A 
HETATM   35  C   UNK N   1      34.733  10.048  16.341  0.00  0.00     0.092 A 
HETATM   36  C   UNK N   1      34.909  10.402  17.671  0.00  0.00     0.250 A 
HETATM   37  O   UNK N   1      34.821   9.561  18.545  0.00  0.00    -0.268 OA
HETATM   38  N   UNK N   1      35.188  11.696  17.998  0.00  0.00    -0.275 N 
HETATM   39  C   UNK N   1      35.277  12.659  17.036  0.00  0.00     0.331 A 
HETATM   40  H   UNK N   1      35.326  11.938  18.942  0.00  0.00     0.173 HD
HETATM   41  O   UNK N   1      35.552  13.799  17.375  0.00  0.00    -0.246 OA
ENDBRANCH  27  33
ENDBRANCH   1  24
BRANCH   1  42
HETATM   42  C   UNK N   1      34.548  11.211  10.700  0.00  0.00     0.166 C 
HETATM   43  O   UNK N   1      34.846  10.753   9.607  0.00  0.00    -0.648 OA
BRANCH  42  44
HETATM   44  O   UNK N   1      33.499  10.701  11.370  0.00  0.00    -0.775 OA
HETATM   45  H   UNK N   1      32.563  10.733  11.362  0.00  0.00     0.167 HD
ENDBRANCH  42  44
ENDBRANCH   1  42
TORSDOF 14
ENDMDL
MODEL 3
REMARK VINA RESULT:      -7.5      5.622      8.045
REMARK  14 active torsions:
REMARK  status: ('A' for Active; 'I' for Inactive)
REMARK    1  A    between atoms: C_2  and  C_3 
REMARK    2  A    between atoms: C_2  and  C_13 
REMARK    3  A    between atoms: C_3  and  C_4 
REMARK    4  A    between atoms: C_3  and  O_12 
REMARK    5  A    between atoms: C_7  and  O_11 
REMARK    6  A    between atoms: C_13  and  C_14 
REMARK    7  A    between atoms: C_13  and  N_36 
REMARK       I    between atoms: C_14  and  N_16 
REMARK    8  A    between atoms: C_17  and  N_16 
REMARK    9  A    between atoms: C_18  and  C_17 
REMARK   10  A    between atoms: C_17  and  C_33 
REMARK   11  A    between atoms: C_19  and  O_32 
REMARK   12  A    between atoms: C_20  and  O_31 
REMARK   13  A    between atoms: C_21  and  N_23 
REMARK   14  A    between atoms: C_33  and  O_35 
ROOT
HETATM    1  C   UNK N   1      33.324  17.264   8.730  0.00  0.00     0.214 C 
ENDROOT
BRANCH   1   2
HETATM    2  N   UNK N   1      32.095  16.949   8.040  0.00  0.00    -0.343 N 
HETATM    3  C   UNK N   1      30.938  17.598   8.281  0.00  0.00     0.241 C 
HETATM    4  O   UNK N   1      30.912  18.580   9.009  0.00  0.00    -0.271 OA
HETATM    5  H   UNK N   1      32.103  16.231   7.366  0.00  0.00     0.163 HD
BRANCH   3   6
HETATM    6  C   UNK N   1      29.677  17.113   7.627  0.00  0.00     0.173 C 
BRANCH   6   7
HETATM    7  C   UNK N   1      29.414  17.833   6.311  0.00  0.00     0.048 C 
HETATM    8  C   UNK N   1      28.276  18.824   6.538  0.00  0.00     0.015 C 
BRANCH   7   9
HETATM    9  C   UNK N   1      29.199  16.812   5.169  0.00  0.00     0.174 C 
BRANCH   9  10
HETATM   10  C   UNK N   1      30.427  16.477   4.375  0.00  0.00     0.038 A 
HETATM   11  C   UNK N   1      31.416  17.453   4.196  0.00  0.00     0.030 A 
HETATM   12  C   UNK N   1      32.578  17.133   3.500  0.00  0.00     0.040 A 
HETATM   13  C   UNK N   1      32.738  15.848   2.986  0.00  0.00     0.081 A 
HETATM   14  C   UNK N   1      31.721  14.905   3.159  0.00  0.00     0.124 A 
HETATM   15  N   UNK N   1      30.592  15.236   3.842  0.00  0.00    -0.364 N 
ATOM     16  HN  UNK N   1      29.856  14.539   3.958  1.00  0.00     0.165 HD
BRANCH  13  17
HETATM   17  O   UNK N   1      33.862  15.520   2.332  0.00  0.00    -0.359 OA
HETATM   18  H   UNK N   1      34.499  16.171   2.112  0.00  0.00     0.217 HD
ENDBRANCH  13  17
ENDBRANCH   9  10
BRANCH   9  19
HETATM   19  O   UNK N   1      28.565  15.673   5.667  0.00  0.00    -0.389 OA
HETATM   20  H   UNK N   1      27.654  15.730   5.996  0.00  0.00     0.210 HD
ENDBRANCH   9  19
ENDBRANCH   7   9
ENDBRANCH   6   7
BRANCH   6  21
HETATM   21  N   UNK N   1      28.548  17.219   8.537  0.00  0.00    -0.418 N 
HETATM   22  H   UNK N   1      28.388  18.084   9.052  0.00  0.00     0.150 HD
HETATM   23  H   UNK N   1      27.916  16.427   8.659  0.00  0.00     0.150 HD
ENDBRANCH   6  21
ENDBRANCH   3   6
ENDBRANCH   1   2
BRANCH   1  24
HETATM   24  C   UNK N   1      34.078  15.959   8.977  0.00  0.00     0.188 C 
HETATM   25  C   UNK N   1      33.336  14.855   9.736  0.00  0.00     0.182 C 
HETATM   26  C   UNK N   1      33.000  13.925   8.628  0.00  0.00     0.198 C 
HETATM   27  C   UNK N   1      34.268  14.044   7.782  0.00  0.00     0.263 C 
HETATM   28  O   UNK N   1      34.458  15.434   7.709  0.00  0.00    -0.353 OA
BRANCH  25  29
HETATM   29  O   UNK N   1      32.212  15.284  10.443  0.00  0.00    -0.390 OA
HETATM   30  H   UNK N   1      31.353  15.657  10.194  0.00  0.00     0.210 HD
ENDBRANCH  25  29
BRANCH  26  31
HETATM   31  O   UNK N   1      32.701  12.634   9.065  0.00  0.00    -0.388 OA
HETATM   32  H   UNK N   1      32.236  12.491   9.905  0.00  0.00     0.210 HD
ENDBRANCH  26  31
BRANCH  27  33
HETATM   33  N   UNK N   1      35.493  13.432   8.361  0.00  0.00    -0.280 N 
HETATM   34  C   UNK N   1      36.418  14.232   8.968  0.00  0.00     0.104 A 
HETATM   35  C   UNK N   1      37.588  13.702   9.500  0.00  0.00     0.092 A 
HETATM   36  C   UNK N   1      37.801  12.332   9.424  0.00  0.00     0.250 A 
HETATM   37  O   UNK N   1      38.822  11.846   9.872  0.00  0.00    -0.268 OA
HETATM   38  N   UNK N   1      36.861  11.530   8.849  0.00  0.00    -0.275 N 
HETATM   39  C   UNK N   1      35.715  12.055   8.327  0.00  0.00     0.331 A 
HETATM   40  H   UNK N   1      37.011  10.558   8.811  0.00  0.00     0.173 HD
HETATM   41  O   UNK N   1      34.892  11.293   7.843  0.00  0.00    -0.246 OA
ENDBRANCH  27  33
ENDBRANCH   1  24
BRANCH   1  42
HETATM   42  C   UNK N   1      34.185  18.137   7.859  0.00  0.00     0.166 C 
HETATM   43  O   UNK N   1      34.855  19.035   8.348  0.00  0.00    -0.648 OA
BRANCH  42  44
HETATM   44  O   UNK N   1      34.193  17.953   6.526  0.00  0.00    -0.775 OA
HETATM   45  H   UNK N   1      33.719  18.224   5.765  0.00  0.00     0.167 HD
ENDBRANCH  42  44
ENDBRANCH   1  42
TORSDOF 14
ENDMDL
MODEL 4
REMARK VINA RESULT:      -7.5      4.624      7.883
REMARK  14 active torsions:
REMARK  status: ('A' for Active; 'I' for Inactive)
REMARK    1  A    between atoms: C_2  and  C_3 
REMARK    2  A    between atoms: C_2  and  C_13 
REMARK    3  A    between atoms: C_3  and  C_4 
REMARK    4  A    between atoms: C_3  and  O_12 
REMARK    5  A    between atoms: C_7  and  O_11 
REMARK    6  A    between atoms: C_13  and  C_14 
REMARK    7  A    between atoms: C_13  and  N_36 
REMARK       I    between atoms: C_14  and  N_16 
REMARK    8  A    between atoms: C_17  and  N_16 
REMARK    9  A    between atoms: C_18  and  C_17 
REMARK   10  A    between atoms: C_17  and  C_33 
REMARK   11  A    between atoms: C_19  and  O_32 
REMARK   12  A    between atoms: C_20  and  O_31 
REMARK   13  A    between atoms: C_21  and  N_23 
REMARK   14  A    between atoms: C_33  and  O_35 
ROOT
HETATM    1  C   UNK N   1      33.043  16.957   8.170  0.00  0.00     0.214 C 
ENDROOT
BRANCH   1   2
HETATM    2  N   UNK N   1      32.357  16.442   7.007  0.00  0.00    -0.343 N 
HETATM    3  C   UNK N   1      31.016  16.475   6.880  0.00  0.00     0.241 C 
HETATM    4  O   UNK N   1      30.325  17.068   7.696  0.00  0.00    -0.271 OA
HETATM    5  H   UNK N   1      32.893  16.052   6.279  0.00  0.00     0.163 HD
BRANCH   3   6
HETATM    6  C   UNK N   1      30.375  15.789   5.709  0.00  0.00     0.173 C 
BRANCH   6   7
HETATM    7  C   UNK N   1      28.889  16.110   5.614  0.00  0.00     0.048 C 
HETATM    8  C   UNK N   1      28.140  14.799   5.387  0.00  0.00     0.015 C 
BRANCH   7   9
HETATM    9  C   UNK N   1      28.639  17.217   4.564  0.00  0.00     0.174 C 
BRANCH   9  10
HETATM   10  C   UNK N   1      28.091  18.501   5.112  0.00  0.00     0.038 A 
HETATM   11  C   UNK N   1      27.542  19.444   4.232  0.00  0.00     0.030 A 
HETATM   12  C   UNK N   1      26.991  20.617   4.740  0.00  0.00     0.040 A 
HETATM   13  C   UNK N   1      26.998  20.839   6.115  0.00  0.00     0.081 A 
HETATM   14  C   UNK N   1      27.577  19.892   6.963  0.00  0.00     0.124 A 
HETATM   15  N   UNK N   1      28.111  18.751   6.450  0.00  0.00    -0.364 N 
ATOM     16  HN  UNK N   1      28.535  18.070   7.079  1.00  0.00     0.165 HD
BRANCH  13  17
HETATM   17  O   UNK N   1      26.451  21.954   6.619  0.00  0.00    -0.359 OA
HETATM   18  H   UNK N   1      26.133  22.633   6.056  0.00  0.00     0.217 HD
ENDBRANCH  13  17
ENDBRANCH   9  10
BRANCH   9  19
HETATM   19  O   UNK N   1      29.793  17.417   3.805  0.00  0.00    -0.389 OA
HETATM   20  H   UNK N   1      29.865  17.026   2.920  0.00  0.00     0.210 HD
ENDBRANCH   9  19
ENDBRANCH   7   9
ENDBRANCH   6   7
BRANCH   6  21
HETATM   21  N   UNK N   1      30.619  14.356   5.751  0.00  0.00    -0.418 N 
HETATM   22  H   UNK N   1      31.574  14.001   5.712  0.00  0.00     0.150 HD
HETATM   23  H   UNK N   1      29.834  13.707   5.819  0.00  0.00     0.150 HD
ENDBRANCH   6  21
ENDBRANCH   3   6
ENDBRANCH   1   2
BRANCH   1  24
HETATM   24  C   UNK N   1      33.739  15.791   8.867  0.00  0.00     0.188 C 
HETATM   25  C   UNK N   1      32.860  14.835   9.677  0.00  0.00     0.182 C 
HETATM   26  C   UNK N   1      32.797  13.664   8.765  0.00  0.00     0.198 C 
HETATM   27  C   UNK N   1      34.223  13.676   8.213  0.00  0.00     0.263 C 
HETATM   28  O   UNK N   1      34.405  15.025   7.868  0.00  0.00    -0.353 OA
BRANCH  25  29
HETATM   29  O   UNK N   1      31.598  15.334  10.005  0.00  0.00    -0.390 OA
HETATM   30  H   UNK N   1      30.689  15.015   9.892  0.00  0.00     0.210 HD
ENDBRANCH  25  29
BRANCH  26  31
HETATM   31  O   UNK N   1      32.424  12.484   9.411  0.00  0.00    -0.388 OA
HETATM   32  H   UNK N   1      31.891  12.510  10.221  0.00  0.00     0.210 HD
ENDBRANCH  26  31
BRANCH  27  33
HETATM   33  N   UNK N   1      35.291  13.287   9.170  0.00  0.00    -0.280 N 
HETATM   34  C   UNK N   1      36.050  14.259   9.756  0.00  0.00     0.104 A 
HETATM   35  C   UNK N   1      37.076  13.936  10.637  0.00  0.00     0.092 A 
HETATM   36  C   UNK N   1      37.313  12.601  10.933  0.00  0.00     0.250 A 
HETATM   37  O   UNK N   1      38.212  12.292  11.692  0.00  0.00    -0.268 OA
HETATM   38  N   UNK N   1      36.531  11.633  10.375  0.00  0.00    -0.275 N 
HETATM   39  C   UNK N   1      35.527  11.954   9.510  0.00  0.00     0.331 A 
HETATM   40  H   UNK N   1      36.695  10.688  10.600  0.00  0.00     0.173 HD
HETATM   41  O   UNK N   1      34.840  11.055   9.053  0.00  0.00    -0.246 OA
ENDBRANCH  27  33
ENDBRANCH   1  24
BRANCH   1  42
HETATM   42  C   UNK N   1      34.102  17.937   7.741  0.00  0.00     0.166 C 
HETATM   43  O   UNK N   1      34.574  18.731   8.541  0.00  0.00    -0.648 OA
BRANCH  42  44
HETATM   44  O   UNK N   1      34.509  17.964   6.459  0.00  0.00    -0.775 OA
HETATM   45  H   UNK N   1      35.213  17.652   5.926  0.00  0.00     0.167 HD
ENDBRANCH  42  44
ENDBRANCH   1  42
TORSDOF 14
ENDMDL
MODEL 5
REMARK VINA RESULT:      -7.4      5.078      7.848
REMARK  14 active torsions:
REMARK  status: ('A' for Active; 'I' for Inactive)
REMARK    1  A    between atoms: C_2  and  C_3 
REMARK    2  A    between atoms: C_2  and  C_13 
REMARK    3  A    between atoms: C_3  and  C_4 
REMARK    4  A    between atoms: C_3  and  O_12 
REMARK    5  A    between atoms: C_7  and  O_11 
REMARK    6  A    between atoms: C_13  and  C_14 
REMARK    7  A    between atoms: C_13  and  N_36 
REMARK       I    between atoms: C_14  and  N_16 
REMARK    8  A    between atoms: C_17  and  N_16 
REMARK    9  A    between atoms: C_18  and  C_17 
REMARK   10  A    between atoms: C_17  and  C_33 
REMARK   11  A    between atoms: C_19  and  O_32 
REMARK   12  A    between atoms: C_20  and  O_31 
REMARK   13  A    between atoms: C_21  and  N_23 
REMARK   14  A    between atoms: C_33  and  O_35 
ROOT
HETATM    1  C   UNK N   1      32.690  15.251   6.246  0.00  0.00     0.214 C 
ENDROOT
BRANCH   1   2
HETATM    2  N   UNK N   1      31.578  15.540   7.122  0.00  0.00    -0.343 N 
HETATM    3  C   UNK N   1      31.041  16.771   7.235  0.00  0.00     0.241 C 
HETATM    4  O   UNK N   1      31.394  17.677   6.493  0.00  0.00    -0.271 OA
HETATM    5  H   UNK N   1      31.197  14.806   7.657  0.00  0.00     0.163 HD
BRANCH   3   6
HETATM    6  C   UNK N   1      29.985  17.017   8.272  0.00  0.00     0.173 C 
BRANCH   6   7
HETATM    7  C   UNK N   1      29.532  18.471   8.279  0.00  0.00     0.048 C 
HETATM    8  C   UNK N   1      30.034  19.112   9.570  0.00  0.00     0.015 C 
BRANCH   7   9
HETATM    9  C   UNK N   1      28.008  18.565   8.030  0.00  0.00     0.174 C 
BRANCH   9  10
HETATM   10  C   UNK N   1      27.615  19.160   6.711  0.00  0.00     0.038 A 
HETATM   11  C   UNK N   1      28.167  18.642   5.531  0.00  0.00     0.030 A 
HETATM   12  C   UNK N   1      27.770  19.161   4.302  0.00  0.00     0.040 A 
HETATM   13  C   UNK N   1      26.834  20.191   4.262  0.00  0.00     0.081 A 
HETATM   14  C   UNK N   1      26.322  20.704   5.457  0.00  0.00     0.124 A 
HETATM   15  N   UNK N   1      26.721  20.185   6.650  0.00  0.00    -0.364 N 
ATOM     16  HN  UNK N   1      26.344  20.572   7.515  1.00  0.00     0.165 HD
BRANCH  13  17
HETATM   17  O   UNK N   1      26.426  20.685   3.084  0.00  0.00    -0.359 OA
HETATM   18  H   UNK N   1      25.954  21.494   3.038  0.00  0.00     0.217 HD
ENDBRANCH  13  17
ENDBRANCH   9  10
BRANCH   9  19
HETATM   19  O   UNK N   1      27.417  17.319   8.244  0.00  0.00    -0.389 OA
HETATM   20  H   UNK N   1      27.865  16.658   8.795  0.00  0.00     0.210 HD
ENDBRANCH   9  19
ENDBRANCH   7   9
ENDBRANCH   6   7
BRANCH   6  21
HETATM   21  N   UNK N   1      30.437  16.584   9.584  0.00  0.00    -0.418 N 
HETATM   22  H   UNK N   1      30.340  15.606   9.859  0.00  0.00     0.150 HD
HETATM   23  H   UNK N   1      30.851  17.257  10.229  0.00  0.00     0.150 HD
ENDBRANCH   6  21
ENDBRANCH   3   6
ENDBRANCH   1   2
BRANCH   1  24
HETATM   24  C   UNK N   1      33.959  15.192   7.094  0.00  0.00     0.188 C 
HETATM   25  C   UNK N   1      34.691  16.512   7.349  0.00  0.00     0.182 C 
HETATM   26  C   UNK N   1      34.305  16.783   8.757  0.00  0.00     0.198 C 
HETATM   27  C   UNK N   1      34.329  15.363   9.322  0.00  0.00     0.263 C 
HETATM   28  O   UNK N   1      33.610  14.638   8.358  0.00  0.00    -0.353 OA
BRANCH  25  29
HETATM   29  O   UNK N   1      34.346  17.551   6.484  0.00  0.00    -0.390 OA
HETATM   30  H   UNK N   1      34.484  17.724   5.539  0.00  0.00     0.210 HD
ENDBRANCH  25  29
BRANCH  26  31
HETATM   31  O   UNK N   1      35.155  17.687   9.396  0.00  0.00    -0.388 OA
HETATM   32  H   UNK N   1      34.984  17.966  10.310  0.00  0.00     0.210 HD
ENDBRANCH  26  31
BRANCH  27  33
HETATM   33  N   UNK N   1      35.674  14.746   9.466  0.00  0.00    -0.280 N 
HETATM   34  C   UNK N   1      36.130  13.901   8.496  0.00  0.00     0.104 A 
HETATM   35  C   UNK N   1      37.371  13.284   8.605  0.00  0.00     0.092 A 
HETATM   36  C   UNK N   1      38.161  13.553   9.714  0.00  0.00     0.250 A 
HETATM   37  O   UNK N   1      39.246  13.018   9.838  0.00  0.00    -0.268 OA
HETATM   38  N   UNK N   1      37.720  14.425  10.665  0.00  0.00    -0.275 N 
HETATM   39  C   UNK N   1      36.501  15.026  10.555  0.00  0.00     0.331 A 
HETATM   40  H   UNK N   1      38.291  14.623  11.443  0.00  0.00     0.173 HD
HETATM   41  O   UNK N   1      36.160  15.817  11.421  0.00  0.00    -0.246 OA
ENDBRANCH  27  33
ENDBRANCH   1  24
BRANCH   1  42
HETATM   42  C   UNK N   1      32.497  13.901   5.610  0.00  0.00     0.166 C 
HETATM   43  O   UNK N   1      33.394  13.388   4.957  0.00  0.00    -0.648 OA
BRANCH  42  44
HETATM   44  O   UNK N   1      31.317  13.266   5.730  0.00  0.00    -0.775 OA
HETATM   45  H   UNK N   1      30.817  12.602   5.300  0.00  0.00     0.167 HD
ENDBRANCH  42  44
ENDBRANCH   1  42
TORSDOF 14
ENDMDL
MODEL 6
REMARK VINA RESULT:      -7.2      9.086     13.485
REMARK  14 active torsions:
REMARK  status: ('A' for Active; 'I' for Inactive)
REMARK    1  A    between atoms: C_2  and  C_3 
REMARK    2  A    between atoms: C_2  and  C_13 
REMARK    3  A    between atoms: C_3  and  C_4 
REMARK    4  A    between atoms: C_3  and  O_12 
REMARK    5  A    between atoms: C_7  and  O_11 
REMARK    6  A    between atoms: C_13  and  C_14 
REMARK    7  A    between atoms: C_13  and  N_36 
REMARK       I    between atoms: C_14  and  N_16 
REMARK    8  A    between atoms: C_17  and  N_16 
REMARK    9  A    between atoms: C_18  and  C_17 
REMARK   10  A    between atoms: C_17  and  C_33 
REMARK   11  A    between atoms: C_19  and  O_32 
REMARK   12  A    between atoms: C_20  and  O_31 
REMARK   13  A    between atoms: C_21  and  N_23 
REMARK   14  A    between atoms: C_33  and  O_35 
ROOT
HETATM    1  C   UNK N   1      21.758  16.448   6.444  0.00  0.00     0.214 C 
ENDROOT
BRANCH   1   2
HETATM    2  N   UNK N   1      23.094  16.824   6.046  0.00  0.00    -0.343 N 
HETATM    3  C   UNK N   1      23.432  17.060   4.763  0.00  0.00     0.241 C 
HETATM    4  O   UNK N   1      22.578  17.092   3.888  0.00  0.00    -0.271 OA
HETATM    5  H   UNK N   1      23.786  16.912   6.741  0.00  0.00     0.163 HD
BRANCH   3   6
HETATM    6  C   UNK N   1      24.871  17.303   4.417  0.00  0.00     0.173 C 
BRANCH   6   7
HETATM    7  C   UNK N   1      25.683  17.704   5.642  0.00  0.00     0.048 C 
HETATM    8  C   UNK N   1      26.438  18.987   5.305  0.00  0.00     0.015 C 
BRANCH   7   9
HETATM    9  C   UNK N   1      26.552  16.520   6.128  0.00  0.00     0.174 C 
BRANCH   9  10
HETATM   10  C   UNK N   1      27.693  16.895   7.026  0.00  0.00     0.038 A 
HETATM   11  C   UNK N   1      29.006  16.804   6.543  0.00  0.00     0.030 A 
HETATM   12  C   UNK N   1      30.065  17.194   7.357  0.00  0.00     0.040 A 
HETATM   13  C   UNK N   1      29.806  17.665   8.642  0.00  0.00     0.081 A 
HETATM   14  C   UNK N   1      28.488  17.719   9.103  0.00  0.00     0.124 A 
HETATM   15  N   UNK N   1      27.465  17.333   8.294  0.00  0.00    -0.364 N 
ATOM     16  HN  UNK N   1      26.507  17.373   8.645  1.00  0.00     0.165 HD
BRANCH  13  17
HETATM   17  O   UNK N   1      30.815  18.065   9.429  0.00  0.00    -0.359 OA
HETATM   18  H   UNK N   1      31.337  18.811   9.203  0.00  0.00     0.217 HD
ENDBRANCH  13  17
ENDBRANCH   9  10
BRANCH   9  19
HETATM   19  O   UNK N   1      25.738  15.536   6.691  0.00  0.00    -0.389 OA
HETATM   20  H   UNK N   1      25.125  15.765   7.406  0.00  0.00     0.210 HD
ENDBRANCH   9  19
ENDBRANCH   7   9
ENDBRANCH   6   7
BRANCH   6  21
HETATM   21  N   UNK N   1      24.990  18.279   3.347  0.00  0.00    -0.418 N 
HETATM   22  H   UNK N   1      24.288  18.312   2.607  0.00  0.00     0.150 HD
HETATM   23  H   UNK N   1      25.774  18.932   3.335  0.00  0.00     0.150 HD
ENDBRANCH   6  21
ENDBRANCH   3   6
ENDBRANCH   1   2
BRANCH   1  24
HETATM   24  C   UNK N   1      21.865  15.295   7.441  0.00  0.00     0.188 C 
HETATM   25  C   UNK N   1      20.737  14.260   7.437  0.00  0.00     0.182 C 
HETATM   26  C   UNK N   1      21.396  13.125   6.742  0.00  0.00     0.198 C 
HETATM   27  C   UNK N   1      22.808  13.239   7.317  0.00  0.00     0.263 C 
HETATM   28  O   UNK N   1      23.085  14.609   7.178  0.00  0.00    -0.353 OA
BRANCH  25  29
HETATM   29  O   UNK N   1      19.564  14.674   6.805  0.00  0.00    -0.390 OA
HETATM   30  H   UNK N   1      18.693  14.274   6.656  0.00  0.00     0.210 HD
ENDBRANCH  25  29
BRANCH  26  31
HETATM   31  O   UNK N   1      20.764  11.901   6.967  0.00  0.00    -0.388 OA
HETATM   32  H   UNK N   1      21.276  11.121   7.235  0.00  0.00     0.210 HD
ENDBRANCH  26  31
BRANCH  27  33
HETATM   33  N   UNK N   1      22.954  12.873   8.750  0.00  0.00    -0.280 N 
HETATM   34  C   UNK N   1      21.882  12.363   9.423  0.00  0.00     0.104 A 
HETATM   35  C   UNK N   1      21.970  12.031  10.771  0.00  0.00     0.092 A 
HETATM   36  C   UNK N   1      23.179  12.209  11.429  0.00  0.00     0.250 A 
HETATM   37  O   UNK N   1      23.279  11.937  12.610  0.00  0.00    -0.268 OA
HETATM   38  N   UNK N   1      24.260  12.686  10.748  0.00  0.00    -0.275 N 
HETATM   39  C   UNK N   1      24.167  13.011   9.426  0.00  0.00     0.331 A 
HETATM   40  H   UNK N   1      25.118  12.796  11.216  0.00  0.00     0.173 HD
HETATM   41  O   UNK N   1      25.168  13.413   8.853  0.00  0.00    -0.246 OA
ENDBRANCH  27  33
ENDBRANCH   1  24
BRANCH   1  42
HETATM   42  C   UNK N   1      21.093  17.602   7.145  0.00  0.00     0.166 C 
HETATM   43  O   UNK N   1      21.233  18.744   6.730  0.00  0.00    -0.648 OA
BRANCH  42  44
HETATM   44  O   UNK N   1      20.368  17.384   8.256  0.00  0.00    -0.775 OA
HETATM   45  H   UNK N   1      20.377  16.842   9.020  0.00  0.00     0.167 HD
ENDBRANCH  42  44
ENDBRANCH   1  42
TORSDOF 14
ENDMDL
MODEL 7
REMARK VINA RESULT:      -7.2      2.861      9.658
REMARK  14 active torsions:
REMARK  status: ('A' for Active; 'I' for Inactive)
REMARK    1  A    between atoms: C_2  and  C_3 
REMARK    2  A    between atoms: C_2  and  C_13 
REMARK    3  A    between atoms: C_3  and  C_4 
REMARK    4  A    between atoms: C_3  and  O_12 
REMARK    5  A    between atoms: C_7  and  O_11 
REMARK    6  A    between atoms: C_13  and  C_14 
REMARK    7  A    between atoms: C_13  and  N_36 
REMARK       I    between atoms: C_14  and  N_16 
REMARK    8  A    between atoms: C_17  and  N_16 
REMARK    9  A    between atoms: C_18  and  C_17 
REMARK   10  A    between atoms: C_17  and  C_33 
REMARK   11  A    between atoms: C_19  and  O_32 
REMARK   12  A    between atoms: C_20  and  O_31 
REMARK   13  A    between atoms: C_21  and  N_23 
REMARK   14  A    between atoms: C_33  and  O_35 
ROOT
HETATM    1  C   UNK N   1      34.455  16.177   8.877  0.00  0.00     0.214 C 
ENDROOT
BRANCH   1   2
HETATM    2  N   UNK N   1      34.074  14.910   9.456  0.00  0.00    -0.343 N 
HETATM    3  C   UNK N   1      34.559  13.732   9.014  0.00  0.00     0.241 C 
HETATM    4  O   UNK N   1      35.452  13.698   8.179  0.00  0.00    -0.271 OA
HETATM    5  H   UNK N   1      33.434  14.907  10.205  0.00  0.00     0.163 HD
BRANCH   3   6
HETATM    6  C   UNK N   1      34.003  12.456   9.573  0.00  0.00     0.173 C 
BRANCH   6   7
HETATM    7  C   UNK N   1      35.109  11.481   9.954  0.00  0.00     0.048 C 
HETATM    8  C   UNK N   1      35.186  10.411   8.868  0.00  0.00     0.015 C 
BRANCH   7   9
HETATM    9  C   UNK N   1      34.900  10.960  11.396  0.00  0.00     0.174 C 
BRANCH   9  10
HETATM   10  C   UNK N   1      35.566  11.771  12.468  0.00  0.00     0.038 A 
HETATM   11  C   UNK N   1      36.638  11.217  13.181  0.00  0.00     0.030 A 
HETATM   12  C   UNK N   1      37.289  11.982  14.145  0.00  0.00     0.040 A 
HETATM   13  C   UNK N   1      36.861  13.284  14.391  0.00  0.00     0.081 A 
HETATM   14  C   UNK N   1      35.772  13.798  13.681  0.00  0.00     0.124 A 
HETATM   15  N   UNK N   1      35.148  13.037  12.743  0.00  0.00    -0.364 N 
ATOM     16  HN  UNK N   1      34.351  13.422  12.235  1.00  0.00     0.165 HD
BRANCH  13  17
HETATM   17  O   UNK N   1      37.493  14.040  15.301  0.00  0.00    -0.359 OA
HETATM   18  H   UNK N   1      37.021  14.448  16.000  0.00  0.00     0.217 HD
ENDBRANCH  13  17
ENDBRANCH   9  10
BRANCH   9  19
HETATM   19  O   UNK N   1      33.537  10.780  11.639  0.00  0.00    -0.389 OA
HETATM   20  H   UNK N   1      32.920  10.686  10.897  0.00  0.00     0.210 HD
ENDBRANCH   9  19
ENDBRANCH   7   9
ENDBRANCH   6   7
BRANCH   6  21
HETATM   21  N   UNK N   1      33.049  11.859   8.653  0.00  0.00    -0.418 N 
HETATM   22  H   UNK N   1      33.063  12.117   7.666  0.00  0.00     0.150 HD
HETATM   23  H   UNK N   1      32.365  11.183   8.994  0.00  0.00     0.150 HD
ENDBRANCH   6  21
ENDBRANCH   3   6
ENDBRANCH   1   2
BRANCH   1  24
HETATM   24  C   UNK N   1      33.198  16.842   8.319  0.00  0.00     0.188 C 
HETATM   25  C   UNK N   1      33.343  17.621   7.009  0.00  0.00     0.182 C 
HETATM   26  C   UNK N   1      32.724  16.676   6.045  0.00  0.00     0.198 C 
HETATM   27  C   UNK N   1      31.582  16.128   6.901  0.00  0.00     0.263 C 
HETATM   28  O   UNK N   1      32.226  15.822   8.111  0.00  0.00    -0.353 OA
BRANCH  25  29
HETATM   29  O   UNK N   1      34.653  17.960   6.670  0.00  0.00    -0.390 OA
HETATM   30  H   UNK N   1      35.432  17.460   6.379  0.00  0.00     0.210 HD
ENDBRANCH  25  29
BRANCH  26  31
HETATM   31  O   UNK N   1      32.329  17.285   4.854  0.00  0.00    -0.388 OA
HETATM   32  H   UNK N   1      31.467  17.082   4.456  0.00  0.00     0.210 HD
ENDBRANCH  26  31
BRANCH  27  33
HETATM   33  N   UNK N   1      30.473  17.076   7.185  0.00  0.00    -0.280 N 
HETATM   34  C   UNK N   1      30.411  17.687   8.404  0.00  0.00     0.104 A 
HETATM   35  C   UNK N   1      29.377  18.562   8.718  0.00  0.00     0.092 A 
HETATM   36  C   UNK N   1      28.404  18.823   7.763  0.00  0.00     0.250 A 
HETATM   37  O   UNK N   1      27.483  19.575   8.017  0.00  0.00    -0.268 OA
HETATM   38  N   UNK N   1      28.486  18.240   6.533  0.00  0.00    -0.275 N 
HETATM   39  C   UNK N   1      29.502  17.381   6.230  0.00  0.00     0.331 A 
HETATM   40  H   UNK N   1      27.801  18.440   5.855  0.00  0.00     0.173 HD
HETATM   41  O   UNK N   1      29.545  16.901   5.109  0.00  0.00    -0.246 OA
ENDBRANCH  27  33
ENDBRANCH   1  24
BRANCH   1  42
HETATM   42  C   UNK N   1      35.015  17.075   9.946  0.00  0.00     0.166 C 
HETATM   43  O   UNK N   1      35.550  18.134   9.651  0.00  0.00    -0.648 OA
BRANCH  42  44
HETATM   44  O   UNK N   1      34.959  16.697  11.236  0.00  0.00    -0.775 OA
HETATM   45  H   UNK N   1      34.842  15.922  11.748  0.00  0.00     0.167 HD
ENDBRANCH  42  44
ENDBRANCH   1  42
TORSDOF 14
ENDMDL
MODEL 8
REMARK VINA RESULT:      -7.2     11.455     17.035
REMARK  14 active torsions:
REMARK  status: ('A' for Active; 'I' for Inactive)
REMARK    1  A    between atoms: C_2  and  C_3 
REMARK    2  A    between atoms: C_2  and  C_13 
REMARK    3  A    between atoms: C_3  and  C_4 
REMARK    4  A    between atoms: C_3  and  O_12 
REMARK    5  A    between atoms: C_7  and  O_11 
REMARK    6  A    between atoms: C_13  and  C_14 
REMARK    7  A    between atoms: C_13  and  N_36 
REMARK       I    between atoms: C_14  and  N_16 
REMARK    8  A    between atoms: C_17  and  N_16 
REMARK    9  A    between atoms: C_18  and  C_17 
REMARK   10  A    between atoms: C_17  and  C_33 
REMARK   11  A    between atoms: C_19  and  O_32 
REMARK   12  A    between atoms: C_20  and  O_31 
REMARK   13  A    between atoms: C_21  and  N_23 
REMARK   14  A    between atoms: C_33  and  O_35 
ROOT
HETATM    1  C   UNK N   1      19.866  14.735   5.241  0.00  0.00     0.214 C 
ENDROOT
BRANCH   1   2
HETATM    2  N   UNK N   1      21.058  13.919   5.239  0.00  0.00    -0.343 N 
HETATM    3  C   UNK N   1      21.782  13.685   6.352  0.00  0.00     0.241 C 
HETATM    4  O   UNK N   1      21.380  14.053   7.447  0.00  0.00    -0.271 OA
HETATM    5  H   UNK N   1      21.352  13.517   4.390  0.00  0.00     0.163 HD
BRANCH   3   6
HETATM    6  C   UNK N   1      23.083  12.949   6.237  0.00  0.00     0.173 C 
BRANCH   6   7
HETATM    7  C   UNK N   1      23.956  13.155   7.468  0.00  0.00     0.048 C 
HETATM    8  C   UNK N   1      25.248  13.832   7.019  0.00  0.00     0.015 C 
BRANCH   7   9
HETATM    9  C   UNK N   1      24.128  11.825   8.240  0.00  0.00     0.174 C 
BRANCH   9  10
HETATM   10  C   UNK N   1      23.856  11.904   9.712  0.00  0.00     0.038 A 
HETATM   11  C   UNK N   1      22.531  11.872  10.168  0.00  0.00     0.030 A 
HETATM   12  C   UNK N   1      22.274  11.898  11.536  0.00  0.00     0.040 A 
HETATM   13  C   UNK N   1      23.339  11.963  12.432  0.00  0.00     0.081 A 
HETATM   14  C   UNK N   1      24.648  12.021  11.945  0.00  0.00     0.124 A 
HETATM   15  N   UNK N   1      24.879  11.994  10.605  0.00  0.00    -0.364 N 
ATOM     16  HN  UNK N   1      25.839  12.041  10.262  1.00  0.00     0.165 HD
BRANCH  13  17
HETATM   17  O   UNK N   1      23.108  11.967  13.753  0.00  0.00    -0.359 OA
HETATM   18  H   UNK N   1      23.604  12.516  14.328  0.00  0.00     0.217 HD
ENDBRANCH  13  17
ENDBRANCH   9  10
BRANCH   9  19
HETATM   19  O   UNK N   1      23.386  10.820   7.618  0.00  0.00    -0.389 OA
HETATM   20  H   UNK N   1      23.688   9.899   7.657  0.00  0.00     0.210 HD
ENDBRANCH   9  19
ENDBRANCH   7   9
ENDBRANCH   6   7
BRANCH   6  21
HETATM   21  N   UNK N   1      23.779  13.313   5.013  0.00  0.00    -0.418 N 
HETATM   22  H   UNK N   1      23.274  13.333   4.127  0.00  0.00     0.150 HD
HETATM   23  H   UNK N   1      24.771  13.549   5.041  0.00  0.00     0.150 HD
ENDBRANCH   6  21
ENDBRANCH   3   6
ENDBRANCH   1   2
BRANCH   1  24
HETATM   24  C   UNK N   1      20.253  16.143   4.796  0.00  0.00     0.188 C 
HETATM   25  C   UNK N   1      20.572  17.161   5.895  0.00  0.00     0.182 C 
HETATM   26  C   UNK N   1      22.053  17.215   5.811  0.00  0.00     0.198 C 
HETATM   27  C   UNK N   1      22.242  17.106   4.298  0.00  0.00     0.263 C 
HETATM   28  O   UNK N   1      21.401  16.032   3.961  0.00  0.00    -0.353 OA
BRANCH  25  29
HETATM   29  O   UNK N   1      20.113  16.814   7.166  0.00  0.00    -0.390 OA
HETATM   30  H   UNK N   1      20.259  16.061   7.761  0.00  0.00     0.210 HD
ENDBRANCH  25  29
BRANCH  26  31
HETATM   31  O   UNK N   1      22.596  18.362   6.392  0.00  0.00    -0.388 OA
HETATM   32  H   UNK N   1      23.487  18.349   6.775  0.00  0.00     0.210 HD
ENDBRANCH  26  31
BRANCH  27  33
HETATM   33  N   UNK N   1      21.828  18.294   3.506  0.00  0.00    -0.280 N 
HETATM   34  C   UNK N   1      20.606  18.299   2.898  0.00  0.00     0.104 A 
HETATM   35  C   UNK N   1      20.191  19.380   2.128  0.00  0.00     0.092 A 
HETATM   36  C   UNK N   1      21.033  20.475   1.997  0.00  0.00     0.250 A 
HETATM   37  O   UNK N   1      20.698  21.428   1.320  0.00  0.00    -0.268 OA
HETATM   38  N   UNK N   1      22.239  20.484   2.634  0.00  0.00    -0.275 N 
HETATM   39  C   UNK N   1      22.642  19.420   3.387  0.00  0.00     0.331 A 
HETATM   40  H   UNK N   1      22.826  21.269   2.549  0.00  0.00     0.173 HD
HETATM   41  O   UNK N   1      23.720  19.485   3.957  0.00  0.00    -0.246 OA
ENDBRANCH  27  33
ENDBRANCH   1  24
BRANCH   1  42
HETATM   42  C   UNK N   1      18.878  14.191   4.245  0.00  0.00     0.166 C 
HETATM   43  O   UNK N   1      18.052  13.355   4.581  0.00  0.00    -0.648 OA
BRANCH  42  44
HETATM   44  O   UNK N   1      18.923  14.601   2.964  0.00  0.00    -0.775 OA
HETATM   45  H   UNK N   1      19.377  15.222   2.429  0.00  0.00     0.167 HD
ENDBRANCH  42  44
ENDBRANCH   1  42
TORSDOF 14
ENDMDL
MODEL 9
REMARK VINA RESULT:      -7.1      3.703      9.945
REMARK  14 active torsions:
REMARK  status: ('A' for Active; 'I' for Inactive)
REMARK    1  A    between atoms: C_2  and  C_3 
REMARK    2  A    between atoms: C_2  and  C_13 
REMARK    3  A    between atoms: C_3  and  C_4 
REMARK    4  A    between atoms: C_3  and  O_12 
REMARK    5  A    between atoms: C_7  and  O_11 
REMARK    6  A    between atoms: C_13  and  C_14 
REMARK    7  A    between atoms: C_13  and  N_36 
REMARK       I    between atoms: C_14  and  N_16 
REMARK    8  A    between atoms: C_17  and  N_16 
REMARK    9  A    between atoms: C_18  and  C_17 
REMARK   10  A    between atoms: C_17  and  C_33 
REMARK   11  A    between atoms: C_19  and  O_32 
REMARK   12  A    between atoms: C_20  and  O_31 
REMARK   13  A    between atoms: C_21  and  N_23 
REMARK   14  A    between atoms: C_33  and  O_35 
ROOT
HETATM    1  C   UNK N   1      34.048  17.199   7.214  0.00  0.00     0.214 C 
ENDROOT
BRANCH   1   2
HETATM    2  N   UNK N   1      34.132  15.788   7.511  0.00  0.00    -0.343 N 
HETATM    3  C   UNK N   1      34.828  14.923   6.746  0.00  0.00     0.241 C 
HETATM    4  O   UNK N   1      35.532  15.325   5.831  0.00  0.00    -0.271 OA
HETATM    5  H   UNK N   1      33.663  15.445   8.306  0.00  0.00     0.163 HD
BRANCH   3   6
HETATM    6  C   UNK N   1      34.746  13.455   7.042  0.00  0.00     0.173 C 
BRANCH   6   7
HETATM    7  C   UNK N   1      35.604  13.074   8.242  0.00  0.00     0.048 C 
HETATM    8  C   UNK N   1      36.482  11.894   7.834  0.00  0.00     0.015 C 
BRANCH   7   9
HETATM    9  C   UNK N   1      34.721  12.854   9.492  0.00  0.00     0.174 C 
BRANCH   9  10
HETATM   10  C   UNK N   1      35.252  13.454  10.760  0.00  0.00     0.038 A 
HETATM   11  C   UNK N   1      35.755  12.611  11.760  0.00  0.00     0.030 A 
HETATM   12  C   UNK N   1      36.291  13.165  12.919  0.00  0.00     0.040 A 
HETATM   13  C   UNK N   1      36.315  14.550  13.070  0.00  0.00     0.081 A 
HETATM   14  C   UNK N   1      35.781  15.362  12.065  0.00  0.00     0.124 A 
HETATM   15  N   UNK N   1      35.261  14.803  10.940  0.00  0.00    -0.364 N 
ATOM     16  HN  UNK N   1      34.870  15.407  10.216  1.00  0.00     0.165 HD
BRANCH  13  17
HETATM   17  O   UNK N   1      36.848  15.098  14.171  0.00  0.00    -0.359 OA
HETATM   18  H   UNK N   1      36.659  14.753  15.022  0.00  0.00     0.217 HD
ENDBRANCH  13  17
ENDBRANCH   9  10
BRANCH   9  19
HETATM   19  O   UNK N   1      33.413  13.260   9.223  0.00  0.00    -0.389 OA
HETATM   20  H   UNK N   1      33.063  14.070   9.626  0.00  0.00     0.210 HD
ENDBRANCH   9  19
ENDBRANCH   7   9
ENDBRANCH   6   7
BRANCH   6  21
HETATM   21  N   UNK N   1      35.081  12.670   5.865  0.00  0.00    -0.418 N 
HETATM   22  H   UNK N   1      35.529  13.117   5.065  0.00  0.00     0.150 HD
HETATM   23  H   UNK N   1      34.870  11.672   5.840  0.00  0.00     0.150 HD
ENDBRANCH   6  21
ENDBRANCH   3   6
ENDBRANCH   1   2
BRANCH   1  24
HETATM   24  C   UNK N   1      32.601  17.521   6.844  0.00  0.00     0.188 C 
HETATM   25  C   UNK N   1      32.147  17.165   5.426  0.00  0.00     0.182 C 
HETATM   26  C   UNK N   1      31.336  15.949   5.683  0.00  0.00     0.198 C 
HETATM   27  C   UNK N   1      30.674  16.341   7.005  0.00  0.00     0.263 C 
HETATM   28  O   UNK N   1      31.757  16.826   7.756  0.00  0.00    -0.353 OA
BRANCH  25  29
HETATM   29  O   UNK N   1      33.183  16.943   4.517  0.00  0.00    -0.390 OA
HETATM   30  H   UNK N   1      33.718  16.173   4.270  0.00  0.00     0.210 HD
ENDBRANCH  25  29
BRANCH  26  31
HETATM   31  O   UNK N   1      30.451  15.649   4.647  0.00  0.00    -0.388 OA
HETATM   32  H   UNK N   1      30.109  16.349   4.069  0.00  0.00     0.210 HD
ENDBRANCH  26  31
BRANCH  27  33
HETATM   33  N   UNK N   1      29.643  17.408   6.922  0.00  0.00    -0.280 N 
HETATM   34  C   UNK N   1      29.257  17.870   5.697  0.00  0.00     0.104 A 
HETATM   35  C   UNK N   1      28.314  18.885   5.576  0.00  0.00     0.092 A 
HETATM   36  C   UNK N   1      27.749  19.418   6.726  0.00  0.00     0.250 A 
HETATM   37  O   UNK N   1      26.930  20.314   6.648  0.00  0.00    -0.268 OA
HETATM   38  N   UNK N   1      28.109  18.931   7.948  0.00  0.00    -0.275 N 
HETATM   39  C   UNK N   1      29.036  17.937   8.061  0.00  0.00     0.331 A 
HETATM   40  H   UNK N   1      27.694  19.303   8.760  0.00  0.00     0.173 HD
HETATM   41  O   UNK N   1      29.309  17.518   9.175  0.00  0.00    -0.246 OA
ENDBRANCH  27  33
ENDBRANCH   1  24
BRANCH   1  42
HETATM   42  C   UNK N   1      34.399  17.997   8.440  0.00  0.00     0.166 C 
HETATM   43  O   UNK N   1      34.938  19.090   8.337  0.00  0.00    -0.648 OA
BRANCH  42  44
HETATM   44  O   UNK N   1      34.150  17.492   9.662  0.00  0.00    -0.775 OA
HETATM   45  H   UNK N   1      34.219  17.737  10.564  0.00  0.00     0.167 HD
ENDBRANCH  42  44
ENDBRANCH   1  42
TORSDOF 14
ENDMDL
