REMARK  8 active torsions:
REMARK  status: ('A' for Active; 'I' for Inactive)
REMARK    1  A    between atoms: C_2  and  C_5 
REMARK    2  A    between atoms: C_7  and  N_11 
REMARK       I    between atoms: N_11  and  C_12 
REMARK       I    between atoms: C_12  and  N_14 
REMARK    3  A    between atoms: N_14  and  C_15 
REMARK    4  A    between atoms: C_18  and  C_21 
REMARK    5  A    between atoms: C_27  and  O_30 
REMARK    6  A    between atoms: O_30  and  C_31 
REMARK    7  A    between atoms: C_31  and  C_32 
REMARK    8  A    between atoms: C_32  and  N_33 
ROOT
HETATM    1  C   UNK N   1      -4.090  -2.033  -0.879  0.00  0.00     0.036 A 
HETATM    2  C   UNK N   1      -4.056  -0.670  -0.573  0.00  0.00     0.030 A 
HETATM    3  C   UNK N   1      -3.034  -0.175   0.249  0.00  0.00     0.012 A 
HETATM    4  C   UNK N   1      -2.099  -1.058   0.817  0.00  0.00    -0.030 A 
HETATM    5  C   UNK N   1      -2.158  -2.414   0.498  0.00  0.00     0.012 A 
HETATM    6  C   UNK N   1      -3.123  -2.885  -0.339  0.00  0.00     0.030 A 
ENDROOT
BRANCH   4   7
HETATM    7  C   UNK N   1      -0.793  -0.581   1.248  0.00  0.00     0.156 A 
HETATM    8  C   UNK N   1       0.192  -1.552   1.503  0.00  0.00     0.102 A 
HETATM    9  N   UNK N   1       1.256  -1.160   0.820  0.00  0.00    -0.303 N 
HETATM   10  C   UNK N   1       2.430  -1.704   0.413  0.00  0.00     0.058 A 
HETATM   11  C   UNK N   1       0.977   0.013   0.278  0.00  0.00     0.152 A 
HETATM   12  C   UNK N   1       3.080  -0.916  -0.546  0.00  0.00     0.038 A 
HETATM   13  C   UNK N   1       2.928  -2.951   0.779  0.00  0.00     0.034 A 
HETATM   14  C   UNK N   1       4.226  -1.337  -1.177  0.00  0.00     0.058 A 
HETATM   15  S   UNK N   1       2.158   0.463  -0.778  0.00  0.00    -0.052 SA
HETATM   16  C   UNK N   1       4.780  -2.561  -0.780  0.00  0.00     0.070 A 
HETATM   17  C   UNK N   1       4.138  -3.365   0.199  0.00  0.00     0.039 A 
HETATM   18  N   UNK N   1      -0.261   0.437   0.517  0.00  0.00    -0.357 N 
ATOM     19  HN  UNK N   1      -0.703   1.309   0.225  1.00  0.00     0.162 HD
BRANCH  16  20
HETATM   20  O   UNK N   1       5.992  -2.888  -1.261  0.00  0.00    -0.349 OA
BRANCH  20  21
HETATM   21  C   UNK N   1       7.035  -3.198  -0.412  0.00  0.00     0.206 C 
BRANCH  21  22
HETATM   22  C   UNK N   1       7.346  -2.026   0.546  0.00  0.00     0.299 C 
BRANCH  22  23
HETATM   23  N   UNK N   1       6.988  -0.739  -0.047  0.00  0.00     0.094 N 
HETATM   24  C   UNK N   1       6.058  -0.043   0.843  0.00  0.00     0.298 C 
HETATM   25  C   UNK N   1       5.716   1.312   0.216  0.00  0.00     0.198 C 
HETATM   26  O   UNK N   1       6.886   2.089   0.132  0.00  0.00    -0.388 OA
HETATM   27  C   UNK N   1       7.752   1.447  -0.778  0.00  0.00     0.198 C 
HETATM   28  C   UNK N   1       8.182   0.084  -0.219  0.00  0.00     0.298 C 
ENDBRANCH  22  23
ENDBRANCH  21  22
ENDBRANCH  20  21
ENDBRANCH  16  20
ENDBRANCH   4   7
BRANCH   1  29
HETATM   29  N   UNK N   1      -5.135  -2.579  -1.668  0.00  0.00    -0.309 N 
HETATM   30  C   UNK N   1      -5.592  -3.832  -1.415  0.00  0.00     0.326 C 
HETATM   31  N   UNK N   1      -5.150  -4.487  -0.305  0.00  0.00    -0.293 N 
HETATM   32  O   UNK N   1      -6.389  -4.353  -2.179  0.00  0.00    -0.247 OA
HETATM   33  H   UNK N   1      -4.514  -4.002   0.269  0.00  0.00     0.172 HD
HETATM   34  H   UNK N   1      -5.528  -2.049  -2.399  0.00  0.00     0.170 HD
BRANCH  31  35
HETATM   35  C   UNK N   1      -5.505  -5.775   0.104  0.00  0.00     0.132 A 
HETATM   36  C   UNK N   1      -6.534  -6.515  -0.396  0.00  0.00     0.086 A 
HETATM   37  C   UNK N   1      -6.373  -7.726   0.233  0.00  0.00     0.087 A 
HETATM   38  O   UNK N   1      -5.329  -7.668   1.032  0.00  0.00    -0.240 OA
HETATM   39  N   UNK N   1      -4.783  -6.492   0.982  0.00  0.00    -0.245 N 
ATOM     40  HN  UNK N   1      -3.967  -6.175   1.505  1.00  0.00     0.196 HD
BRANCH  37  41
HETATM   41  C   UNK N   1      -7.195  -8.942  -0.018  0.00  0.00     0.000 C 
HETATM   42  C   UNK N   1      -7.713  -9.491   1.294  0.00  0.00     0.021 C 
HETATM   43  C   UNK N   1      -6.319  -9.974  -0.697  0.00  0.00     0.021 C 
HETATM   44  C   UNK N   1      -8.378  -8.633  -0.925  0.00  0.00     0.021 C 
ENDBRANCH  37  41
ENDBRANCH  31  35
ENDBRANCH   1  29
TORSDOF 8
