MODEL 1
REMARK VINA RESULT:      -7.9      0.000      0.000
REMARK  6 active torsions:
REMARK  status: ('A' for Active; 'I' for Inactive)
REMARK    1  A    between atoms: C_4  and  C_11 
REMARK    2  A    between atoms: C_11  and  N_12 
REMARK    3  A    between atoms: N_12  and  C_13 
REMARK    4  A    between atoms: C_13  and  C_14 
REMARK       I    between atoms: N_17  and  C_20 
REMARK    5  A    between atoms: C_24  and  C_28 
REMARK       I    between atoms: C_28  and  N_30 
REMARK    6  A    between atoms: N_30  and  O_31 
ROOT
HETATM    1  C   UNK N   1      33.952  16.454   9.164  0.00  0.00     0.006 C 
HETATM    2  C   UNK N   1      35.046  16.745  10.190  0.00  0.00     0.027 C 
HETATM    3  C   UNK N   1      35.964  15.536  10.330  0.00  0.00     0.141 C 
HETATM    4  N   UNK N   1      35.165  14.389  10.692  0.00  0.00    -0.218 N 
HETATM    5  C   UNK N   1      34.090  13.989   9.811  0.00  0.00     0.141 C 
HETATM    6  C   UNK N   1      33.166  15.188   9.562  0.00  0.00     0.027 C 
HETATM    7  C   UNK N   1      35.382  13.749  11.942  0.00  0.00     0.679 A 
HETATM    8  N   UNK N   1      36.360  14.210  12.768  0.00  0.00    -0.201 N 
ATOM      9  HN  UNK N   1      36.940  14.994  12.468  1.00  0.00     0.183 HD
HETATM   10  C   UNK N   1      36.577  13.649  13.981  0.00  0.00     0.124 A 
HETATM   11  C   UNK N   1      35.799  12.574  14.410  0.00  0.00     0.066 A 
HETATM   12  C   UNK N   1      34.801  12.106  13.544  0.00  0.00     0.124 A 
HETATM   13  N   UNK N   1      34.609  12.699  12.333  0.00  0.00    -0.201 N 
ATOM     14  HN  UNK N   1      33.878  12.351  11.712  1.00  0.00     0.183 HD
ENDROOT
BRANCH   1  15
HETATM   15  C   UNK N   1      34.587  16.355   7.780  0.00  0.00     0.118 C 
BRANCH  15  16
HETATM   16  N   UNK N   1      33.579  16.119   6.767  0.00  0.00    -0.417 N 
HETATM   17  H   UNK N   1      33.405  15.247   6.267  0.00  0.00     0.153 HD
BRANCH  16  18
HETATM   18  C   UNK N   1      32.870  17.374   6.607  0.00  0.00     0.155 C 
BRANCH  18  19
HETATM   19  C   UNK N   1      31.408  17.120   6.658  0.00  0.00    -0.013 A 
HETATM   20  C   UNK N   1      30.663  16.418   5.717  0.00  0.00     0.100 A 
HETATM   21  N   UNK N   1      29.373  16.390   6.122  0.00  0.00    -0.360 N 
HETATM   22  C   UNK N   1      28.278  15.749   5.413  0.00  0.00     0.155 C 
HETATM   23  C   UNK N   1      29.300  17.057   7.288  0.00  0.00     0.044 A 
HETATM   24  C   UNK N   1      30.535  17.517   7.645  0.00  0.00    -0.000 A 
HETATM   25  C   UNK N   1      28.174  17.286   8.079  0.00  0.00     0.030 A 
HETATM   26  C   UNK N   1      30.744  18.242   8.817  0.00  0.00     0.014 A 
HETATM   27  C   UNK N   1      29.631  18.490   9.638  0.00  0.00     0.001 A 
HETATM   28  C   UNK N   1      28.351  18.015   9.271  0.00  0.00     0.002 A 
ENDBRANCH  18  19
ENDBRANCH  16  18
ENDBRANCH  15  16
ENDBRANCH   1  15
BRANCH  11  29
HETATM   29  C   UNK N   1      36.051  11.986  15.758  0.00  0.00     0.277 C 
HETATM   30  O   UNK N   1      36.865  11.081  15.859  0.00  0.00    -0.265 OA
HETATM   31  N   UNK N   1      35.420  12.414  16.880  0.00  0.00    -0.233 N 
HETATM   32  H   UNK N   1      35.640  11.987  17.739  0.00  0.00     0.197 HD
BRANCH  31  33
HETATM   33  O   UNK N   1      34.506  13.394  16.865  0.00  0.00    -0.287 OA
HETATM   34  H   UNK N   1      33.573  13.185  16.704  0.00  0.00     0.244 HD
ENDBRANCH  31  33
ENDBRANCH  11  29
TORSDOF 6
ENDMDL
MODEL 2
REMARK VINA RESULT:      -7.7      2.405      4.108
REMARK  6 active torsions:
REMARK  status: ('A' for Active; 'I' for Inactive)
REMARK    1  A    between atoms: C_4  and  C_11 
REMARK    2  A    between atoms: C_11  and  N_12 
REMARK    3  A    between atoms: N_12  and  C_13 
REMARK    4  A    between atoms: C_13  and  C_14 
REMARK       I    between atoms: N_17  and  C_20 
REMARK    5  A    between atoms: C_24  and  C_28 
REMARK       I    between atoms: C_28  and  N_30 
REMARK    6  A    between atoms: N_30  and  O_31 
ROOT
HETATM    1  C   UNK N   1      32.774  16.739   5.712  0.00  0.00     0.006 C 
HETATM    2  C   UNK N   1      32.598  15.359   6.342  0.00  0.00     0.027 C 
HETATM    3  C   UNK N   1      32.104  15.501   7.778  0.00  0.00     0.141 C 
HETATM    4  N   UNK N   1      33.039  16.322   8.509  0.00  0.00    -0.218 N 
HETATM    5  C   UNK N   1      33.305  17.661   8.032  0.00  0.00     0.141 C 
HETATM    6  C   UNK N   1      33.734  17.598   6.560  0.00  0.00     0.027 C 
HETATM    7  C   UNK N   1      33.749  15.767   9.609  0.00  0.00     0.679 A 
HETATM    8  N   UNK N   1      33.514  14.478   9.973  0.00  0.00    -0.201 N 
ATOM      9  HN  UNK N   1      32.815  13.934   9.468  1.00  0.00     0.183 HD
HETATM   10  C   UNK N   1      34.192  13.903  10.995  0.00  0.00     0.124 A 
HETATM   11  C   UNK N   1      35.150  14.628  11.702  0.00  0.00     0.066 A 
HETATM   12  C   UNK N   1      35.374  15.958  11.319  0.00  0.00     0.124 A 
HETATM   13  N   UNK N   1      34.675  16.502  10.284  0.00  0.00    -0.201 N 
ATOM     14  HN  UNK N   1      34.849  17.469  10.013  1.00  0.00     0.183 HD
ENDROOT
BRANCH   1  15
HETATM   15  C   UNK N   1      31.400  17.377   5.529  0.00  0.00     0.118 C 
BRANCH  15  16
HETATM   16  N   UNK N   1      30.788  16.936   4.293  0.00  0.00    -0.417 N 
HETATM   17  H   UNK N   1      31.210  16.941   3.364  0.00  0.00     0.153 HD
BRANCH  16  18
HETATM   18  C   UNK N   1      29.455  16.487   4.644  0.00  0.00     0.155 C 
BRANCH  18  19
HETATM   19  C   UNK N   1      28.897  17.382   5.689  0.00  0.00    -0.013 A 
HETATM   20  C   UNK N   1      28.950  17.173   7.064  0.00  0.00     0.100 A 
HETATM   21  N   UNK N   1      28.346  18.214   7.681  0.00  0.00    -0.360 N 
HETATM   22  C   UNK N   1      28.196  18.372   9.117  0.00  0.00     0.155 C 
HETATM   23  C   UNK N   1      27.919  19.060   6.726  0.00  0.00     0.044 A 
HETATM   24  C   UNK N   1      28.244  18.576   5.490  0.00  0.00    -0.000 A 
HETATM   25  C   UNK N   1      27.244  20.269   6.887  0.00  0.00     0.030 A 
HETATM   26  C   UNK N   1      27.920  19.261   4.320  0.00  0.00     0.014 A 
HETATM   27  C   UNK N   1      27.239  20.484   4.446  0.00  0.00     0.001 A 
HETATM   28  C   UNK N   1      26.902  20.987   5.724  0.00  0.00     0.002 A 
ENDBRANCH  18  19
ENDBRANCH  16  18
ENDBRANCH  15  16
ENDBRANCH   1  15
BRANCH  11  29
HETATM   29  C   UNK N   1      35.892  13.963  12.812  0.00  0.00     0.277 C 
HETATM   30  O   UNK N   1      35.342  13.845  13.897  0.00  0.00    -0.265 OA
HETATM   31  N   UNK N   1      37.151  13.478  12.672  0.00  0.00    -0.233 N 
HETATM   32  H   UNK N   1      37.579  13.042  13.444  0.00  0.00     0.197 HD
BRANCH  31  33
HETATM   33  O   UNK N   1      37.836  13.570  11.524  0.00  0.00    -0.287 OA
HETATM   34  H   UNK N   1      37.437  14.004  10.754  0.00  0.00     0.244 HD
ENDBRANCH  31  33
ENDBRANCH  11  29
TORSDOF 6
ENDMDL
MODEL 3
REMARK VINA RESULT:      -7.5      4.021     10.145
REMARK  6 active torsions:
REMARK  status: ('A' for Active; 'I' for Inactive)
REMARK    1  A    between atoms: C_4  and  C_11 
REMARK    2  A    between atoms: C_11  and  N_12 
REMARK    3  A    between atoms: N_12  and  C_13 
REMARK    4  A    between atoms: C_13  and  C_14 
REMARK       I    between atoms: N_17  and  C_20 
REMARK    5  A    between atoms: C_24  and  C_28 
REMARK       I    between atoms: C_28  and  N_30 
REMARK    6  A    between atoms: N_30  and  O_31 
ROOT
HETATM    1  C   UNK N   1      35.523  11.789  13.491  0.00  0.00     0.006 C 
HETATM    2  C   UNK N   1      35.041  11.611  12.052  0.00  0.00     0.027 C 
HETATM    3  C   UNK N   1      35.963  12.359  11.096  0.00  0.00     0.141 C 
HETATM    4  N   UNK N   1      36.008  13.747  11.490  0.00  0.00    -0.218 N 
HETATM    5  C   UNK N   1      36.451  14.073  12.828  0.00  0.00     0.141 C 
HETATM    6  C   UNK N   1      35.612  13.288  13.844  0.00  0.00     0.027 C 
HETATM    7  C   UNK N   1      35.523  14.744  10.601  0.00  0.00     0.679 A 
HETATM    8  N   UNK N   1      35.049  14.378   9.380  0.00  0.00    -0.201 N 
ATOM      9  HN  UNK N   1      35.071  13.395   9.110  1.00  0.00     0.183 HD
HETATM   10  C   UNK N   1      34.549  15.294   8.517  0.00  0.00     0.124 A 
HETATM   11  C   UNK N   1      34.513  16.644   8.864  0.00  0.00     0.066 A 
HETATM   12  C   UNK N   1      35.012  17.006  10.123  0.00  0.00     0.124 A 
HETATM   13  N   UNK N   1      35.504  16.056  10.966  0.00  0.00    -0.201 N 
ATOM     14  HN  UNK N   1      35.863  16.331  11.881  1.00  0.00     0.183 HD
ENDROOT
BRANCH   1  15
HETATM   15  C   UNK N   1      36.848  11.053  13.662  0.00  0.00     0.118 C 
BRANCH  15  16
HETATM   16  N   UNK N   1      36.773  10.106  14.755  0.00  0.00    -0.417 N 
HETATM   17  H   UNK N   1      37.543   9.571  15.157  0.00  0.00     0.153 HD
BRANCH  16  18
HETATM   18  C   UNK N   1      35.381  10.070  15.159  0.00  0.00     0.155 C 
BRANCH  18  19
HETATM   19  C   UNK N   1      35.302  10.050  16.641  0.00  0.00    -0.013 A 
HETATM   20  C   UNK N   1      35.275   8.917  17.447  0.00  0.00     0.100 A 
HETATM   21  N   UNK N   1      35.215   9.310  18.741  0.00  0.00    -0.360 N 
HETATM   22  C   UNK N   1      35.173   8.424  19.891  0.00  0.00     0.155 C 
HETATM   23  C   UNK N   1      35.204  10.655  18.756  0.00  0.00     0.044 A 
HETATM   24  C   UNK N   1      35.258  11.140  17.480  0.00  0.00    -0.000 A 
HETATM   25  C   UNK N   1      35.151  11.502  19.862  0.00  0.00     0.030 A 
HETATM   26  C   UNK N   1      35.263  12.507  17.209  0.00  0.00     0.014 A 
HETATM   27  C   UNK N   1      35.211  13.390  18.302  0.00  0.00     0.001 A 
HETATM   28  C   UNK N   1      35.155  12.890  19.623  0.00  0.00     0.002 A 
ENDBRANCH  18  19
ENDBRANCH  16  18
ENDBRANCH  15  16
ENDBRANCH   1  15
BRANCH  11  29
HETATM   29  C   UNK N   1      33.942  17.627   7.899  0.00  0.00     0.277 C 
HETATM   30  O   UNK N   1      34.642  18.019   6.978  0.00  0.00    -0.265 OA
HETATM   31  N   UNK N   1      32.677  18.107   7.996  0.00  0.00    -0.233 N 
HETATM   32  H   UNK N   1      32.360  18.748   7.319  0.00  0.00     0.197 HD
BRANCH  31  33
HETATM   33  O   UNK N   1      31.840  17.743   8.977  0.00  0.00    -0.287 OA
HETATM   34  H   UNK N   1      31.391  16.884   8.937  0.00  0.00     0.244 HD
ENDBRANCH  31  33
ENDBRANCH  11  29
TORSDOF 6
ENDMDL
MODEL 4
REMARK VINA RESULT:      -7.4      2.766      4.484
REMARK  6 active torsions:
REMARK  status: ('A' for Active; 'I' for Inactive)
REMARK    1  A    between atoms: C_4  and  C_11 
REMARK    2  A    between atoms: C_11  and  N_12 
REMARK    3  A    between atoms: N_12  and  C_13 
REMARK    4  A    between atoms: C_13  and  C_14 
REMARK       I    between atoms: N_17  and  C_20 
REMARK    5  A    between atoms: C_24  and  C_28 
REMARK       I    between atoms: C_28  and  N_30 
REMARK    6  A    between atoms: N_30  and  O_31 
ROOT
HETATM    1  C   UNK N   1      32.482  16.639   5.573  0.00  0.00     0.006 C 
HETATM    2  C   UNK N   1      32.387  15.259   6.221  0.00  0.00     0.027 C 
HETATM    3  C   UNK N   1      31.917  15.392   7.665  0.00  0.00     0.141 C 
HETATM    4  N   UNK N   1      32.827  16.265   8.368  0.00  0.00    -0.218 N 
HETATM    5  C   UNK N   1      33.017  17.611   7.871  0.00  0.00     0.141 C 
HETATM    6  C   UNK N   1      33.417  17.553   6.392  0.00  0.00     0.027 C 
HETATM    7  C   UNK N   1      33.586  15.758   9.456  0.00  0.00     0.679 A 
HETATM    8  N   UNK N   1      33.423  14.463   9.839  0.00  0.00    -0.201 N 
ATOM      9  HN  UNK N   1      32.740  13.880   9.354  1.00  0.00     0.183 HD
HETATM   10  C   UNK N   1      34.149  13.932  10.851  0.00  0.00     0.124 A 
HETATM   11  C   UNK N   1      35.086  14.710  11.530  0.00  0.00     0.066 A 
HETATM   12  C   UNK N   1      35.237  16.046  11.129  0.00  0.00     0.124 A 
HETATM   13  N   UNK N   1      34.491  16.543  10.104  0.00  0.00    -0.201 N 
ATOM     14  HN  UNK N   1      34.611  17.515   9.820  1.00  0.00     0.183 HD
ENDROOT
BRANCH   1  15
HETATM   15  C   UNK N   1      31.076  17.208   5.414  0.00  0.00     0.118 C 
BRANCH  15  16
HETATM   16  N   UNK N   1      30.196  16.239   4.793  0.00  0.00    -0.417 N 
HETATM   17  H   UNK N   1      29.956  15.313   5.148  0.00  0.00     0.153 HD
BRANCH  16  18
HETATM   18  C   UNK N   1      29.728  16.852   3.565  0.00  0.00     0.155 C 
BRANCH  18  19
HETATM   19  C   UNK N   1      28.270  17.113   3.674  0.00  0.00    -0.013 A 
HETATM   20  C   UNK N   1      27.250  16.230   3.337  0.00  0.00     0.100 A 
HETATM   21  N   UNK N   1      26.062  16.827   3.589  0.00  0.00    -0.360 N 
HETATM   22  C   UNK N   1      24.755  16.231   3.372  0.00  0.00     0.155 C 
HETATM   23  C   UNK N   1      26.321  18.056   4.072  0.00  0.00     0.044 A 
HETATM   24  C   UNK N   1      27.669  18.262   4.137  0.00  0.00    -0.000 A 
HETATM   25  C   UNK N   1      25.409  19.031   4.473  0.00  0.00     0.030 A 
HETATM   26  C   UNK N   1      28.213  19.456   4.606  0.00  0.00     0.014 A 
HETATM   27  C   UNK N   1      27.321  20.461   5.019  0.00  0.00     0.001 A 
HETATM   28  C   UNK N   1      25.925  20.251   4.953  0.00  0.00     0.002 A 
ENDBRANCH  18  19
ENDBRANCH  16  18
ENDBRANCH  15  16
ENDBRANCH   1  15
BRANCH  11  29
HETATM   29  C   UNK N   1      35.883  14.094  12.630  0.00  0.00     0.277 C 
HETATM   30  O   UNK N   1      35.369  13.978  13.732  0.00  0.00    -0.265 OA
HETATM   31  N   UNK N   1      37.155  13.652  12.462  0.00  0.00    -0.233 N 
HETATM   32  H   UNK N   1      37.620  13.247  13.229  0.00  0.00     0.197 HD
BRANCH  31  33
HETATM   33  O   UNK N   1      37.803  13.746  11.293  0.00  0.00    -0.287 OA
HETATM   34  H   UNK N   1      38.556  14.351  11.203  0.00  0.00     0.244 HD
ENDBRANCH  31  33
ENDBRANCH  11  29
TORSDOF 6
ENDMDL
MODEL 5
REMARK VINA RESULT:      -7.3      4.874      8.639
REMARK  6 active torsions:
REMARK  status: ('A' for Active; 'I' for Inactive)
REMARK    1  A    between atoms: C_4  and  C_11 
REMARK    2  A    between atoms: C_11  and  N_12 
REMARK    3  A    between atoms: N_12  and  C_13 
REMARK    4  A    between atoms: C_13  and  C_14 
REMARK       I    between atoms: N_17  and  C_20 
REMARK    5  A    between atoms: C_24  and  C_28 
REMARK       I    between atoms: C_28  and  N_30 
REMARK    6  A    between atoms: N_30  and  O_31 
ROOT
HETATM    1  C   UNK N   1      26.964  20.361   4.498  0.00  0.00     0.006 C 
HETATM    2  C   UNK N   1      27.554  18.991   4.165  0.00  0.00     0.027 C 
HETATM    3  C   UNK N   1      27.360  18.040   5.341  0.00  0.00     0.141 C 
HETATM    4  N   UNK N   1      27.966  18.626   6.513  0.00  0.00    -0.218 N 
HETATM    5  C   UNK N   1      27.505  19.924   6.954  0.00  0.00     0.141 C 
HETATM    6  C   UNK N   1      27.599  20.918   5.789  0.00  0.00     0.027 C 
HETATM    7  C   UNK N   1      29.061  17.971   7.139  0.00  0.00     0.679 A 
HETATM    8  N   UNK N   1      29.503  16.785   6.641  0.00  0.00    -0.201 N 
ATOM      9  HN  UNK N   1      29.028  16.371   5.839  1.00  0.00     0.183 HD
HETATM   10  C   UNK N   1      30.563  16.144   7.189  0.00  0.00     0.124 A 
HETATM   11  C   UNK N   1      31.225  16.691   8.288  0.00  0.00     0.066 A 
HETATM   12  C   UNK N   1      30.752  17.909   8.795  0.00  0.00     0.124 A 
HETATM   13  N   UNK N   1      29.685  18.526   8.214  0.00  0.00    -0.201 N 
ATOM     14  HN  UNK N   1      29.351  19.413   8.590  1.00  0.00     0.183 HD
ENDROOT
BRANCH   1  15
HETATM   15  C   UNK N   1      25.446  20.237   4.581  0.00  0.00     0.118 C 
BRANCH  15  16
HETATM   16  N   UNK N   1      24.915  19.607   3.390  0.00  0.00    -0.417 N 
HETATM   17  H   UNK N   1      25.412  19.430   2.517  0.00  0.00     0.153 HD
BRANCH  16  18
HETATM   18  C   UNK N   1      23.534  19.282   3.690  0.00  0.00     0.155 C 
BRANCH  18  19
HETATM   19  C   UNK N   1      23.471  17.930   4.300  0.00  0.00    -0.013 A 
HETATM   20  C   UNK N   1      24.272  16.841   3.969  0.00  0.00     0.100 A 
HETATM   21  N   UNK N   1      23.922  15.796   4.754  0.00  0.00    -0.360 N 
HETATM   22  C   UNK N   1      24.526  14.475   4.718  0.00  0.00     0.155 C 
HETATM   23  C   UNK N   1      22.927  16.208   5.559  0.00  0.00     0.044 A 
HETATM   24  C   UNK N   1      22.627  17.517   5.305  0.00  0.00    -0.000 A 
HETATM   25  C   UNK N   1      22.251  15.476   6.535  0.00  0.00     0.030 A 
HETATM   26  C   UNK N   1      21.632  18.196   6.004  0.00  0.00     0.014 A 
HETATM   27  C   UNK N   1      20.930  17.488   6.996  0.00  0.00     0.001 A 
HETATM   28  C   UNK N   1      21.238  16.133   7.261  0.00  0.00     0.002 A 
ENDBRANCH  18  19
ENDBRANCH  16  18
ENDBRANCH  15  16
ENDBRANCH   1  15
BRANCH  11  29
HETATM   29  C   UNK N   1      32.399  15.970   8.860  0.00  0.00     0.277 C 
HETATM   30  O   UNK N   1      33.452  15.978   8.239  0.00  0.00    -0.265 OA
HETATM   31  N   UNK N   1      32.354  15.308  10.044  0.00  0.00    -0.233 N 
HETATM   32  H   UNK N   1      33.169  14.861  10.368  0.00  0.00     0.197 HD
BRANCH  31  33
HETATM   33  O   UNK N   1      31.243  15.238  10.789  0.00  0.00    -0.287 OA
HETATM   34  H   UNK N   1      30.765  14.398  10.871  0.00  0.00     0.244 HD
ENDBRANCH  31  33
ENDBRANCH  11  29
TORSDOF 6
ENDMDL
MODEL 6
REMARK VINA RESULT:      -7.3      2.877      4.404
REMARK  6 active torsions:
REMARK  status: ('A' for Active; 'I' for Inactive)
REMARK    1  A    between atoms: C_4  and  C_11 
REMARK    2  A    between atoms: C_11  and  N_12 
REMARK    3  A    between atoms: N_12  and  C_13 
REMARK    4  A    between atoms: C_13  and  C_14 
REMARK       I    between atoms: N_17  and  C_20 
REMARK    5  A    between atoms: C_24  and  C_28 
REMARK       I    between atoms: C_28  and  N_30 
REMARK    6  A    between atoms: N_30  and  O_31 
ROOT
HETATM    1  C   UNK N   1      30.654  16.433   6.277  0.00  0.00     0.006 C 
HETATM    2  C   UNK N   1      31.075  17.179   7.542  0.00  0.00     0.027 C 
HETATM    3  C   UNK N   1      32.596  17.195   7.656  0.00  0.00     0.141 C 
HETATM    4  N   UNK N   1      33.074  15.833   7.640  0.00  0.00    -0.218 N 
HETATM    5  C   UNK N   1      32.756  15.002   6.499  0.00  0.00     0.141 C 
HETATM    6  C   UNK N   1      31.238  15.005   6.277  0.00  0.00     0.027 C 
HETATM    7  C   UNK N   1      33.749  15.313   8.777  0.00  0.00     0.679 A 
HETATM    8  N   UNK N   1      33.960  16.116   9.854  0.00  0.00    -0.201 N 
ATOM      9  HN  UNK N   1      33.651  17.087   9.822  1.00  0.00     0.183 HD
HETATM   10  C   UNK N   1      34.571  15.649  10.969  0.00  0.00     0.124 A 
HETATM   11  C   UNK N   1      35.004  14.325  11.034  0.00  0.00     0.066 A 
HETATM   12  C   UNK N   1      34.786  13.513   9.912  0.00  0.00     0.124 A 
HETATM   13  N   UNK N   1      34.165  14.016   8.809  0.00  0.00    -0.201 N 
ATOM     14  HN  UNK N   1      34.010  13.415   8.000  1.00  0.00     0.183 HD
ENDROOT
BRANCH   1  15
HETATM   15  C   UNK N   1      31.072  17.252   5.059  0.00  0.00     0.118 C 
BRANCH  15  16
HETATM   16  N   UNK N   1      30.045  17.213   4.037  0.00  0.00    -0.417 N 
HETATM   17  H   UNK N   1      30.173  17.353   3.035  0.00  0.00     0.153 HD
BRANCH  16  18
HETATM   18  C   UNK N   1      28.801  16.937   4.729  0.00  0.00     0.155 C 
BRANCH  18  19
HETATM   19  C   UNK N   1      27.888  18.098   4.575  0.00  0.00    -0.013 A 
HETATM   20  C   UNK N   1      27.168  18.431   3.432  0.00  0.00     0.100 A 
HETATM   21  N   UNK N   1      26.444  19.545   3.689  0.00  0.00    -0.360 N 
HETATM   22  C   UNK N   1      25.557  20.210   2.751  0.00  0.00     0.155 C 
HETATM   23  C   UNK N   1      26.697  19.909   4.959  0.00  0.00     0.044 A 
HETATM   24  C   UNK N   1      27.581  19.039   5.531  0.00  0.00    -0.000 A 
HETATM   25  C   UNK N   1      26.175  20.994   5.663  0.00  0.00     0.030 A 
HETATM   26  C   UNK N   1      28.013  19.184   6.848  0.00  0.00     0.014 A 
HETATM   27  C   UNK N   1      27.507  20.267   7.587  0.00  0.00     0.001 A 
HETATM   28  C   UNK N   1      26.591  21.169   6.997  0.00  0.00     0.002 A 
ENDBRANCH  18  19
ENDBRANCH  16  18
ENDBRANCH  15  16
ENDBRANCH   1  15
BRANCH  11  29
HETATM   29  C   UNK N   1      35.659  13.835  12.281  0.00  0.00     0.277 C 
HETATM   30  O   UNK N   1      34.966  13.631  13.266  0.00  0.00    -0.265 OA
HETATM   31  N   UNK N   1      36.993  13.602  12.371  0.00  0.00    -0.233 N 
HETATM   32  H   UNK N   1      37.359  13.270  13.223  0.00  0.00     0.197 HD
BRANCH  31  33
HETATM   33  O   UNK N   1      37.832  13.806  11.347  0.00  0.00    -0.287 OA
HETATM   34  H   UNK N   1      37.499  13.785  10.436  0.00  0.00     0.244 HD
ENDBRANCH  31  33
ENDBRANCH  11  29
TORSDOF 6
ENDMDL
MODEL 7
REMARK VINA RESULT:      -7.2      3.991      9.801
REMARK  6 active torsions:
REMARK  status: ('A' for Active; 'I' for Inactive)
REMARK    1  A    between atoms: C_4  and  C_11 
REMARK    2  A    between atoms: C_11  and  N_12 
REMARK    3  A    between atoms: N_12  and  C_13 
REMARK    4  A    between atoms: C_13  and  C_14 
REMARK       I    between atoms: N_17  and  C_20 
REMARK    5  A    between atoms: C_24  and  C_28 
REMARK       I    between atoms: C_28  and  N_30 
REMARK    6  A    between atoms: N_30  and  O_31 
ROOT
HETATM    1  C   UNK N   1      36.980  11.330  12.299  0.00  0.00     0.006 C 
HETATM    2  C   UNK N   1      37.511  12.758  12.183  0.00  0.00     0.027 C 
HETATM    3  C   UNK N   1      36.421  13.753  12.569  0.00  0.00     0.141 C 
HETATM    4  N   UNK N   1      35.270  13.526  11.727  0.00  0.00    -0.218 N 
HETATM    5  C   UNK N   1      34.654  12.218  11.734  0.00  0.00     0.141 C 
HETATM    6  C   UNK N   1      35.718  11.155  11.429  0.00  0.00     0.027 C 
HETATM    7  C   UNK N   1      34.838  14.550  10.841  0.00  0.00     0.679 A 
HETATM    8  N   UNK N   1      35.497  15.739  10.821  0.00  0.00    -0.201 N 
ATOM      9  HN  UNK N   1      36.279  15.889  11.459  1.00  0.00     0.183 HD
HETATM   10  C   UNK N   1      35.135  16.729   9.971  0.00  0.00     0.124 A 
HETATM   11  C   UNK N   1      34.068  16.548   9.092  0.00  0.00     0.066 A 
HETATM   12  C   UNK N   1      33.393  15.319   9.131  0.00  0.00     0.124 A 
HETATM   13  N   UNK N   1      33.788  14.346   9.998  0.00  0.00    -0.201 N 
ATOM     14  HN  UNK N   1      33.291  13.456  10.016  1.00  0.00     0.183 HD
ENDROOT
BRANCH   1  15
HETATM   15  C   UNK N   1      36.742  11.010  13.771  0.00  0.00     0.118 C 
BRANCH  15  16
HETATM   16  N   UNK N   1      36.060   9.741  13.918  0.00  0.00    -0.417 N 
HETATM   17  H   UNK N   1      36.389   8.828  13.603  0.00  0.00     0.153 HD
BRANCH  16  18
HETATM   18  C   UNK N   1      34.814  10.032  14.602  0.00  0.00     0.155 C 
BRANCH  18  19
HETATM   19  C   UNK N   1      35.058  10.072  16.066  0.00  0.00    -0.013 A 
HETATM   20  C   UNK N   1      35.317   8.979  16.886  0.00  0.00     0.100 A 
HETATM   21  N   UNK N   1      35.497   9.424  18.151  0.00  0.00    -0.360 N 
HETATM   22  C   UNK N   1      35.792   8.591  19.305  0.00  0.00     0.155 C 
HETATM   23  C   UNK N   1      35.355  10.761  18.135  0.00  0.00     0.044 A 
HETATM   24  C   UNK N   1      35.086  11.191  16.867  0.00  0.00    -0.000 A 
HETATM   25  C   UNK N   1      35.457  11.650  19.206  0.00  0.00     0.030 A 
HETATM   26  C   UNK N   1      34.896  12.538  16.568  0.00  0.00     0.014 A 
HETATM   27  C   UNK N   1      34.991  13.462  17.624  0.00  0.00     0.001 A 
HETATM   28  C   UNK N   1      35.270  13.020  18.938  0.00  0.00     0.002 A 
ENDBRANCH  18  19
ENDBRANCH  16  18
ENDBRANCH  15  16
ENDBRANCH   1  15
BRANCH  11  29
HETATM   29  C   UNK N   1      33.703  17.650   8.155  0.00  0.00     0.277 C 
HETATM   30  O   UNK N   1      34.524  18.010   7.325  0.00  0.00    -0.265 OA
HETATM   31  N   UNK N   1      32.497  18.271   8.179  0.00  0.00    -0.233 N 
HETATM   32  H   UNK N   1      32.318  18.985   7.526  0.00  0.00     0.197 HD
BRANCH  31  33
HETATM   33  O   UNK N   1      31.538  17.950   9.059  0.00  0.00    -0.287 OA
HETATM   34  H   UNK N   1      31.752  17.864  10.001  0.00  0.00     0.244 HD
ENDBRANCH  31  33
ENDBRANCH  11  29
TORSDOF 6
ENDMDL
MODEL 8
REMARK VINA RESULT:      -7.1      1.371      2.764
REMARK  6 active torsions:
REMARK  status: ('A' for Active; 'I' for Inactive)
REMARK    1  A    between atoms: C_4  and  C_11 
REMARK    2  A    between atoms: C_11  and  N_12 
REMARK    3  A    between atoms: N_12  and  C_13 
REMARK    4  A    between atoms: C_13  and  C_14 
REMARK       I    between atoms: N_17  and  C_20 
REMARK    5  A    between atoms: C_24  and  C_28 
REMARK       I    between atoms: C_28  and  N_30 
REMARK    6  A    between atoms: N_30  and  O_31 
ROOT
HETATM    1  C   UNK N   1      34.481  16.041   9.735  0.00  0.00     0.006 C 
HETATM    2  C   UNK N   1      35.352  16.448  10.922  0.00  0.00     0.027 C 
HETATM    3  C   UNK N   1      36.269  15.295  11.316  0.00  0.00     0.141 C 
HETATM    4  N   UNK N   1      35.456  14.137  11.605  0.00  0.00    -0.218 N 
HETATM    5  C   UNK N   1      34.580  13.632  10.571  0.00  0.00     0.141 C 
HETATM    6  C   UNK N   1      33.678  14.768  10.071  0.00  0.00     0.027 C 
HETATM    7  C   UNK N   1      35.457  13.590  12.916  0.00  0.00     0.679 A 
HETATM    8  N   UNK N   1      36.246  14.148  13.873  0.00  0.00    -0.201 N 
ATOM      9  HN  UNK N   1      36.845  14.937  13.630  1.00  0.00     0.183 HD
HETATM   10  C   UNK N   1      36.252  13.675  15.142  0.00  0.00     0.124 A 
HETATM   11  C   UNK N   1      35.444  12.595  15.496  0.00  0.00     0.066 A 
HETATM   12  C   UNK N   1      34.643  12.026  14.496  0.00  0.00     0.124 A 
HETATM   13  N   UNK N   1      34.661  12.531  13.231  0.00  0.00    -0.201 N 
ATOM     14  HN  UNK N   1      34.072  12.110  12.513  1.00  0.00     0.183 HD
ENDROOT
BRANCH   1  15
HETATM   15  C   UNK N   1      35.367  15.885   8.503  0.00  0.00     0.118 C 
BRANCH  15  16
HETATM   16  N   UNK N   1      34.577  15.942   7.291  0.00  0.00    -0.417 N 
HETATM   17  H   UNK N   1      34.436  15.191   6.614  0.00  0.00     0.153 HD
BRANCH  16  18
HETATM   18  C   UNK N   1      34.028  17.283   7.233  0.00  0.00     0.155 C 
BRANCH  18  19
HETATM   19  C   UNK N   1      32.637  17.221   6.718  0.00  0.00    -0.013 A 
HETATM   20  C   UNK N   1      31.475  17.284   7.480  0.00  0.00     0.100 A 
HETATM   21  N   UNK N   1      30.410  17.208   6.648  0.00  0.00    -0.360 N 
HETATM   22  C   UNK N   1      29.016  17.242   7.056  0.00  0.00     0.155 C 
HETATM   23  C   UNK N   1      30.883  17.098   5.393  0.00  0.00     0.044 A 
HETATM   24  C   UNK N   1      32.248  17.104   5.403  0.00  0.00    -0.000 A 
HETATM   25  C   UNK N   1      30.157  16.994   4.207  0.00  0.00     0.030 A 
HETATM   26  C   UNK N   1      32.996  17.006   4.231  0.00  0.00     0.014 A 
HETATM   27  C   UNK N   1      32.296  16.899   3.016  0.00  0.00     0.001 A 
HETATM   28  C   UNK N   1      30.882  16.893   3.004  0.00  0.00     0.002 A 
ENDBRANCH  18  19
ENDBRANCH  16  18
ENDBRANCH  15  16
ENDBRANCH   1  15
BRANCH  11  29
HETATM   29  C   UNK N   1      35.460  12.107  16.905  0.00  0.00     0.277 C 
HETATM   30  O   UNK N   1      34.902  12.775  17.763  0.00  0.00    -0.265 OA
HETATM   31  N   UNK N   1      36.063  10.951  17.279  0.00  0.00    -0.233 N 
HETATM   32  H   UNK N   1      36.028  10.683  18.226  0.00  0.00     0.197 HD
BRANCH  31  33
HETATM   33  O   UNK N   1      36.706  10.158  16.411  0.00  0.00    -0.287 OA
HETATM   34  H   UNK N   1      36.239   9.417  15.993  0.00  0.00     0.244 HD
ENDBRANCH  31  33
ENDBRANCH  11  29
TORSDOF 6
ENDMDL
MODEL 9
REMARK VINA RESULT:      -7.0      5.543      8.945
REMARK  6 active torsions:
REMARK  status: ('A' for Active; 'I' for Inactive)
REMARK    1  A    between atoms: C_4  and  C_11 
REMARK    2  A    between atoms: C_11  and  N_12 
REMARK    3  A    between atoms: N_12  and  C_13 
REMARK    4  A    between atoms: C_13  and  C_14 
REMARK       I    between atoms: N_17  and  C_20 
REMARK    5  A    between atoms: C_24  and  C_28 
REMARK       I    between atoms: C_28  and  N_30 
REMARK    6  A    between atoms: N_30  and  O_31 
ROOT
HETATM    1  C   UNK N   1      27.390  17.597   4.197  0.00  0.00     0.006 C 
HETATM    2  C   UNK N   1      28.807  17.225   3.767  0.00  0.00     0.027 C 
HETATM    3  C   UNK N   1      29.420  16.255   4.773  0.00  0.00     0.141 C 
HETATM    4  N   UNK N   1      29.386  16.865   6.081  0.00  0.00    -0.218 N 
HETATM    5  C   UNK N   1      28.107  17.268   6.624  0.00  0.00     0.141 C 
HETATM    6  C   UNK N   1      27.399  18.188   5.622  0.00  0.00     0.027 C 
HETATM    7  C   UNK N   1      30.605  17.148   6.754  0.00  0.00     0.679 A 
HETATM    8  N   UNK N   1      31.786  16.813   6.167  0.00  0.00    -0.201 N 
ATOM      9  HN  UNK N   1      31.779  16.342   5.262  1.00  0.00     0.183 HD
HETATM   10  C   UNK N   1      32.970  17.094   6.761  0.00  0.00     0.124 A 
HETATM   11  C   UNK N   1      33.003  17.734   7.999  0.00  0.00     0.066 A 
HETATM   12  C   UNK N   1      31.778  18.065   8.595  0.00  0.00     0.124 A 
HETATM   13  N   UNK N   1      30.607  17.770   7.965  0.00  0.00    -0.201 N 
ATOM     14  HN  UNK N   1      29.721  18.018   8.407  1.00  0.00     0.183 HD
ENDROOT
BRANCH   1  15
HETATM   15  C   UNK N   1      26.495  16.369   4.063  0.00  0.00     0.118 C 
BRANCH  15  16
HETATM   16  N   UNK N   1      25.245  16.712   3.416  0.00  0.00    -0.417 N 
HETATM   17  H   UNK N   1      25.110  16.963   2.436  0.00  0.00     0.153 HD
BRANCH  16  18
HETATM   18  C   UNK N   1      24.225  16.626   4.443  0.00  0.00     0.155 C 
BRANCH  18  19
HETATM   19  C   UNK N   1      22.888  16.560   3.800  0.00  0.00    -0.013 A 
HETATM   20  C   UNK N   1      22.252  15.410   3.343  0.00  0.00     0.100 A 
HETATM   21  N   UNK N   1      21.048  15.758   2.834  0.00  0.00    -0.360 N 
HETATM   22  C   UNK N   1      20.079  14.841   2.258  0.00  0.00     0.155 C 
HETATM   23  C   UNK N   1      20.922  17.091   2.965  0.00  0.00     0.044 A 
HETATM   24  C   UNK N   1      22.036  17.613   3.556  0.00  0.00    -0.000 A 
HETATM   25  C   UNK N   1      19.847  17.894   2.584  0.00  0.00     0.030 A 
HETATM   26  C   UNK N   1      22.167  18.977   3.813  0.00  0.00     0.014 A 
HETATM   27  C   UNK N   1      21.102  19.816   3.442  0.00  0.00     0.001 A 
HETATM   28  C   UNK N   1      19.946  19.277   2.830  0.00  0.00     0.002 A 
ENDBRANCH  18  19
ENDBRANCH  16  18
ENDBRANCH  15  16
ENDBRANCH   1  15
BRANCH  11  29
HETATM   29  C   UNK N   1      34.323  18.045   8.622  0.00  0.00     0.277 C 
HETATM   30  O   UNK N   1      34.959  19.000   8.201  0.00  0.00    -0.265 OA
HETATM   31  N   UNK N   1      34.850  17.317   9.638  0.00  0.00    -0.233 N 
HETATM   32  H   UNK N   1      35.722  17.583  10.009  0.00  0.00     0.197 HD
BRANCH  31  33
HETATM   33  O   UNK N   1      34.229  16.249  10.158  0.00  0.00    -0.287 OA
HETATM   34  H   UNK N   1      33.402  15.929   9.764  0.00  0.00     0.244 HD
ENDBRANCH  31  33
ENDBRANCH  11  29
TORSDOF 6
ENDMDL
