MODEL 1
REMARK VINA RESULT:      -6.9      0.000      0.000
REMARK  9 active torsions:
REMARK  status: ('A' for Active; 'I' for Inactive)
REMARK    1  A    between atoms: C_6  and  O_7 
REMARK    2  A    between atoms: O_7  and  C_8 
REMARK    3  A    between atoms: C_8  and  C_9 
REMARK    4  A    between atoms: C_9  and  C_10 
REMARK    5  A    between atoms: C_10  and  C_11 
REMARK    6  A    between atoms: C_11  and  C_12 
REMARK    7  A    between atoms: C_12  and  C_13 
REMARK    8  A    between atoms: C_13  and  N_14 
REMARK       I    between atoms: N_14  and  C_15 
REMARK       I    between atoms: C_15  and  N_20 
REMARK    9  A    between atoms: N_20  and  C_21 
ROOT
HETATM    1  N   UNK N   1      33.146  14.871  10.614  0.00  0.00    -0.225 N 
HETATM    2  C   UNK N   1      34.387  14.543  11.210  0.00  0.00     0.687 C 
HETATM    3  N   UNK N   1      35.398  15.348  11.173  0.00  0.00    -0.126 N 
ATOM      4  HN  UNK N   1      36.258  15.019  11.613  1.00  0.00     0.197 HD
HETATM    5  C   UNK N   1      35.440  16.607  10.603  0.00  0.00     0.196 C 
HETATM    6  N   UNK N   1      35.544  17.663  10.148  0.00  0.00    -0.171 NA
HETATM    7  N   UNK N   1      34.481  13.340  11.960  0.00  0.00    -0.191 N 
HETATM    8  H   UNK N   1      32.398  15.154  11.188  0.00  0.00     0.177 HD
HETATM    9  H   UNK N   1      33.744  12.693  11.885  0.00  0.00     0.184 HD
ENDROOT
BRANCH   1  10
HETATM   10  C   UNK N   1      32.952  14.799   9.193  0.00  0.00     0.138 C 
BRANCH  10  11
HETATM   11  C   UNK N   1      31.969  15.874   8.780  0.00  0.00     0.020 C 
BRANCH  11  12
HETATM   12  C   UNK N   1      32.001  16.020   7.274  0.00  0.00     0.002 C 
BRANCH  12  13
HETATM   13  C   UNK N   1      31.770  14.658   6.644  0.00  0.00     0.002 C 
BRANCH  13  14
HETATM   14  C   UNK N   1      30.746  14.743   5.534  0.00  0.00     0.027 C 
BRANCH  14  15
HETATM   15  C   UNK N   1      30.395  16.179   5.266  0.00  0.00     0.175 C 
BRANCH  15  16
HETATM   16  O   UNK N   1      29.062  16.389   5.513  0.00  0.00    -0.351 OA
BRANCH  16  17
HETATM   17  C   UNK N   1      28.551  17.621   5.714  0.00  0.00     0.068 A 
HETATM   18  C   UNK N   1      28.334  18.134   7.008  0.00  0.00     0.038 A 
HETATM   19  C   UNK N   1      27.866  19.442   7.171  0.00  0.00     0.026 A 
HETATM   20  C   UNK N   1      27.629  20.242   6.048  0.00  0.00     0.034 A 
HETATM   21  C   UNK N   1      27.828  19.725   4.767  0.00  0.00     0.026 A 
HETATM   22 Cl   UNK N   1      27.107  21.899   6.239  0.00  0.00    -0.084 Cl
HETATM   23  C   UNK N   1      28.277  18.416   4.602  0.00  0.00     0.038 A 
ENDBRANCH  16  17
ENDBRANCH  15  16
ENDBRANCH  14  15
ENDBRANCH  13  14
ENDBRANCH  12  13
ENDBRANCH  11  12
ENDBRANCH  10  11
ENDBRANCH   1  10
BRANCH   7  24
HETATM   24  C   UNK N   1      35.570  13.008  12.815  0.00  0.00     0.051 A 
HETATM   25  C   UNK N   1      36.513  12.078  12.384  0.00  0.00     0.047 A 
HETATM   26  C   UNK N   1      37.566  11.723  13.231  0.00  0.00     0.090 A 
HETATM   27  N   UNK N   1      37.669  12.281  14.469  0.00  0.00    -0.375 N 
HETATM   28  C   UNK N   1      36.763  13.188  14.915  0.00  0.00     0.090 A 
ATOM     29  HN  UNK N   1      38.444  12.010  15.075  1.00  0.00     0.164 HD
HETATM   30  C   UNK N   1      35.701  13.562  14.098  0.00  0.00     0.047 A 
ENDBRANCH   7  24
TORSDOF 9
ENDMDL
MODEL 2
REMARK VINA RESULT:      -6.7      5.207     10.789
REMARK  9 active torsions:
REMARK  status: ('A' for Active; 'I' for Inactive)
REMARK    1  A    between atoms: C_6  and  O_7 
REMARK    2  A    between atoms: O_7  and  C_8 
REMARK    3  A    between atoms: C_8  and  C_9 
REMARK    4  A    between atoms: C_9  and  C_10 
REMARK    5  A    between atoms: C_10  and  C_11 
REMARK    6  A    between atoms: C_11  and  C_12 
REMARK    7  A    between atoms: C_12  and  C_13 
REMARK    8  A    between atoms: C_13  and  N_14 
REMARK       I    between atoms: N_14  and  C_15 
REMARK       I    between atoms: C_15  and  N_20 
REMARK    9  A    between atoms: N_20  and  C_21 
ROOT
HETATM    1  N   UNK N   1      33.424  15.693   8.375  0.00  0.00    -0.225 N 
HETATM    2  C   UNK N   1      32.452  16.707   8.202  0.00  0.00     0.687 C 
HETATM    3  N   UNK N   1      32.769  17.958   8.153  0.00  0.00    -0.126 N 
ATOM      4  HN  UNK N   1      31.999  18.619   8.046  1.00  0.00     0.197 HD
HETATM    5  C   UNK N   1      34.040  18.500   8.230  0.00  0.00     0.196 C 
HETATM    6  N   UNK N   1      35.070  19.017   8.288  0.00  0.00    -0.171 NA
HETATM    7  N   UNK N   1      31.105  16.319   7.968  0.00  0.00    -0.191 N 
HETATM    8  H   UNK N   1      33.699  15.154   7.598  0.00  0.00     0.177 HD
HETATM    9  H   UNK N   1      30.865  15.377   8.119  0.00  0.00     0.184 HD
ENDROOT
BRANCH   1  10
HETATM   10  C   UNK N   1      34.018  15.431   9.656  0.00  0.00     0.138 C 
BRANCH  10  11
HETATM   11  C   UNK N   1      35.513  15.271   9.477  0.00  0.00     0.020 C 
BRANCH  11  12
HETATM   12  C   UNK N   1      36.176  15.268  10.837  0.00  0.00     0.002 C 
BRANCH  12  13
HETATM   13  C   UNK N   1      35.152  14.852  11.879  0.00  0.00     0.002 C 
BRANCH  13  14
HETATM   14  C   UNK N   1      35.475  13.483  12.437  0.00  0.00     0.027 C 
BRANCH  14  15
HETATM   15  C   UNK N   1      35.929  13.602  13.864  0.00  0.00     0.175 C 
BRANCH  15  16
HETATM   16  O   UNK N   1      34.868  13.407  14.711  0.00  0.00    -0.351 OA
BRANCH  16  17
HETATM   17  C   UNK N   1      34.857  12.428  15.639  0.00  0.00     0.068 A 
HETATM   18  C   UNK N   1      34.586  11.088  15.301  0.00  0.00     0.038 A 
HETATM   19  C   UNK N   1      34.651  10.094  16.283  0.00  0.00     0.026 A 
HETATM   20  C   UNK N   1      34.999  10.433  17.595  0.00  0.00     0.034 A 
HETATM   21  C   UNK N   1      35.249  11.764  17.930  0.00  0.00     0.026 A 
HETATM   22 Cl   UNK N   1      35.148   9.192  18.818  0.00  0.00    -0.084 Cl
HETATM   23  C   UNK N   1      35.167  12.759  16.957  0.00  0.00     0.038 A 
ENDBRANCH  16  17
ENDBRANCH  15  16
ENDBRANCH  14  15
ENDBRANCH  13  14
ENDBRANCH  12  13
ENDBRANCH  11  12
ENDBRANCH  10  11
ENDBRANCH   1  10
BRANCH   7  24
HETATM   24  C   UNK N   1      30.078  17.204   7.530  0.00  0.00     0.051 A 
HETATM   25  C   UNK N   1      29.803  17.302   6.168  0.00  0.00     0.047 A 
HETATM   26  C   UNK N   1      28.819  18.192   5.729  0.00  0.00     0.090 A 
HETATM   27  N   UNK N   1      28.137  18.959   6.624  0.00  0.00    -0.375 N 
HETATM   28  C   UNK N   1      28.388  18.884   7.957  0.00  0.00     0.090 A 
ATOM     29  HN  UNK N   1      27.423  19.604   6.286  1.00  0.00     0.164 HD
HETATM   30  C   UNK N   1      29.362  18.010   8.428  0.00  0.00     0.047 A 
ENDBRANCH   7  24
TORSDOF 9
ENDMDL
MODEL 3
REMARK VINA RESULT:      -6.7      2.326      3.685
REMARK  9 active torsions:
REMARK  status: ('A' for Active; 'I' for Inactive)
REMARK    1  A    between atoms: C_6  and  O_7 
REMARK    2  A    between atoms: O_7  and  C_8 
REMARK    3  A    between atoms: C_8  and  C_9 
REMARK    4  A    between atoms: C_9  and  C_10 
REMARK    5  A    between atoms: C_10  and  C_11 
REMARK    6  A    between atoms: C_11  and  C_12 
REMARK    7  A    between atoms: C_12  and  C_13 
REMARK    8  A    between atoms: C_13  and  N_14 
REMARK       I    between atoms: N_14  and  C_15 
REMARK       I    between atoms: C_15  and  N_20 
REMARK    9  A    between atoms: N_20  and  C_21 
ROOT
HETATM    1  N   UNK N   1      33.104  14.968  10.511  0.00  0.00    -0.225 N 
HETATM    2  C   UNK N   1      34.339  14.587  11.086  0.00  0.00     0.687 C 
HETATM    3  N   UNK N   1      35.373  15.362  11.064  0.00  0.00    -0.126 N 
ATOM      4  HN  UNK N   1      36.226  14.995  11.486  1.00  0.00     0.197 HD
HETATM    5  C   UNK N   1      35.447  16.636  10.530  0.00  0.00     0.196 C 
HETATM    6  N   UNK N   1      35.579  17.702  10.106  0.00  0.00    -0.171 NA
HETATM    7  N   UNK N   1      34.403  13.360  11.800  0.00  0.00    -0.191 N 
HETATM    8  H   UNK N   1      32.369  15.256  11.099  0.00  0.00     0.177 HD
HETATM    9  H   UNK N   1      33.647  12.737  11.712  0.00  0.00     0.184 HD
ENDROOT
BRANCH   1  10
HETATM   10  C   UNK N   1      32.897  14.944   9.089  0.00  0.00     0.138 C 
BRANCH  10  11
HETATM   11  C   UNK N   1      32.383  16.298   8.648  0.00  0.00     0.020 C 
BRANCH  11  12
HETATM   12  C   UNK N   1      30.930  16.430   9.050  0.00  0.00     0.002 C 
BRANCH  12  13
HETATM   13  C   UNK N   1      30.379  17.725   8.479  0.00  0.00     0.002 C 
BRANCH  13  14
HETATM   14  C   UNK N   1      29.025  17.501   7.842  0.00  0.00     0.027 C 
BRANCH  14  15
HETATM   15  C   UNK N   1      29.051  17.949   6.408  0.00  0.00     0.175 C 
BRANCH  15  16
HETATM   16  O   UNK N   1      29.303  16.878   5.588  0.00  0.00    -0.351 OA
BRANCH  16  17
HETATM   17  C   UNK N   1      30.553  16.429   5.352  0.00  0.00     0.068 A 
HETATM   18  C   UNK N   1      31.598  17.298   4.983  0.00  0.00     0.038 A 
HETATM   19  C   UNK N   1      32.894  16.800   4.815  0.00  0.00     0.026 A 
HETATM   20  C   UNK N   1      33.151  15.442   5.029  0.00  0.00     0.034 A 
HETATM   21  C   UNK N   1      32.110  14.579   5.377  0.00  0.00     0.026 A 
HETATM   22 Cl   UNK N   1      34.777  14.817   4.886  0.00  0.00    -0.084 Cl
HETATM   23  C   UNK N   1      30.814  15.071   5.527  0.00  0.00     0.038 A 
ENDBRANCH  16  17
ENDBRANCH  15  16
ENDBRANCH  14  15
ENDBRANCH  13  14
ENDBRANCH  12  13
ENDBRANCH  11  12
ENDBRANCH  10  11
ENDBRANCH   1  10
BRANCH   7  24
HETATM   24  C   UNK N   1      35.489  12.971  12.635  0.00  0.00     0.051 A 
HETATM   25  C   UNK N   1      35.596  13.523  13.910  0.00  0.00     0.047 A 
HETATM   26  C   UNK N   1      36.677  13.171  14.722  0.00  0.00     0.090 A 
HETATM   27  N   UNK N   1      37.619  12.298  14.271  0.00  0.00    -0.375 N 
HETATM   28  C   UNK N   1      37.540  11.748  13.032  0.00  0.00     0.090 A 
ATOM     29  HN  UNK N   1      38.402  12.052  14.877  1.00  0.00     0.164 HD
HETATM   30  C   UNK N   1      36.479  12.078  12.197  0.00  0.00     0.047 A 
ENDBRANCH   7  24
TORSDOF 9
ENDMDL
MODEL 4
REMARK VINA RESULT:      -6.7      1.463      2.102
REMARK  9 active torsions:
REMARK  status: ('A' for Active; 'I' for Inactive)
REMARK    1  A    between atoms: C_6  and  O_7 
REMARK    2  A    between atoms: O_7  and  C_8 
REMARK    3  A    between atoms: C_8  and  C_9 
REMARK    4  A    between atoms: C_9  and  C_10 
REMARK    5  A    between atoms: C_10  and  C_11 
REMARK    6  A    between atoms: C_11  and  C_12 
REMARK    7  A    between atoms: C_12  and  C_13 
REMARK    8  A    between atoms: C_13  and  N_14 
REMARK       I    between atoms: N_14  and  C_15 
REMARK       I    between atoms: C_15  and  N_20 
REMARK    9  A    between atoms: N_20  and  C_21 
ROOT
HETATM    1  N   UNK N   1      33.164  14.942  10.617  0.00  0.00    -0.225 N 
HETATM    2  C   UNK N   1      34.402  14.597  11.209  0.00  0.00     0.687 C 
HETATM    3  N   UNK N   1      35.425  15.385  11.168  0.00  0.00    -0.126 N 
ATOM      4  HN  UNK N   1      36.281  15.044  11.605  1.00  0.00     0.197 HD
HETATM    5  C   UNK N   1      35.484  16.643  10.595  0.00  0.00     0.196 C 
HETATM    6  N   UNK N   1      35.603  17.696  10.138  0.00  0.00    -0.171 NA
HETATM    7  N   UNK N   1      34.480  13.393  11.962  0.00  0.00    -0.191 N 
HETATM    8  H   UNK N   1      32.422  15.237  11.193  0.00  0.00     0.177 HD
HETATM    9  H   UNK N   1      33.732  12.757  11.890  0.00  0.00     0.184 HD
ENDROOT
BRANCH   1  10
HETATM   10  C   UNK N   1      32.964  14.870   9.196  0.00  0.00     0.138 C 
BRANCH  10  11
HETATM   11  C   UNK N   1      32.658  16.259   8.676  0.00  0.00     0.020 C 
BRANCH  11  12
HETATM   12  C   UNK N   1      31.303  16.246   8.003  0.00  0.00     0.002 C 
BRANCH  12  13
HETATM   13  C   UNK N   1      30.477  17.400   8.543  0.00  0.00     0.002 C 
BRANCH  13  14
HETATM   14  C   UNK N   1      29.050  17.321   8.046  0.00  0.00     0.027 C 
BRANCH  14  15
HETATM   15  C   UNK N   1      28.717  18.545   7.239  0.00  0.00     0.175 C 
BRANCH  15  16
HETATM   16  O   UNK N   1      28.656  18.225   5.907  0.00  0.00    -0.351 OA
BRANCH  16  17
HETATM   17  C   UNK N   1      27.712  18.730   5.087  0.00  0.00     0.068 A 
HETATM   18  C   UNK N   1      26.820  17.900   4.381  0.00  0.00     0.038 A 
HETATM   19  C   UNK N   1      25.812  18.467   3.594  0.00  0.00     0.026 A 
HETATM   20  C   UNK N   1      25.684  19.858   3.523  0.00  0.00     0.034 A 
HETATM   21  C   UNK N   1      26.580  20.678   4.210  0.00  0.00     0.026 A 
HETATM   22 Cl   UNK N   1      24.389  20.581   2.597  0.00  0.00    -0.084 Cl
HETATM   23  C   UNK N   1      27.597  20.115   4.980  0.00  0.00     0.038 A 
ENDBRANCH  16  17
ENDBRANCH  15  16
ENDBRANCH  14  15
ENDBRANCH  13  14
ENDBRANCH  12  13
ENDBRANCH  11  12
ENDBRANCH  10  11
ENDBRANCH   1  10
BRANCH   7  24
HETATM   24  C   UNK N   1      35.567  13.047  12.814  0.00  0.00     0.051 A 
HETATM   25  C   UNK N   1      36.518  12.134  12.364  0.00  0.00     0.047 A 
HETATM   26  C   UNK N   1      37.569  11.765  13.207  0.00  0.00     0.090 A 
HETATM   27  N   UNK N   1      37.661  12.290  14.460  0.00  0.00    -0.375 N 
HETATM   28  C   UNK N   1      36.746  13.180  14.924  0.00  0.00     0.090 A 
ATOM     29  HN  UNK N   1      38.435  12.009  15.063  1.00  0.00     0.164 HD
HETATM   30  C   UNK N   1      35.686  13.567  14.112  0.00  0.00     0.047 A 
ENDBRANCH   7  24
TORSDOF 9
ENDMDL
MODEL 5
REMARK VINA RESULT:      -6.6      5.175     10.773
REMARK  9 active torsions:
REMARK  status: ('A' for Active; 'I' for Inactive)
REMARK    1  A    between atoms: C_6  and  O_7 
REMARK    2  A    between atoms: O_7  and  C_8 
REMARK    3  A    between atoms: C_8  and  C_9 
REMARK    4  A    between atoms: C_9  and  C_10 
REMARK    5  A    between atoms: C_10  and  C_11 
REMARK    6  A    between atoms: C_11  and  C_12 
REMARK    7  A    between atoms: C_12  and  C_13 
REMARK    8  A    between atoms: C_13  and  N_14 
REMARK       I    between atoms: N_14  and  C_15 
REMARK       I    between atoms: C_15  and  N_20 
REMARK    9  A    between atoms: N_20  and  C_21 
ROOT
HETATM    1  N   UNK N   1      34.118  15.498   8.422  0.00  0.00    -0.225 N 
HETATM    2  C   UNK N   1      33.247  16.283   7.629  0.00  0.00     0.687 C 
HETATM    3  N   UNK N   1      33.394  17.561   7.511  0.00  0.00    -0.126 N 
ATOM      4  HN  UNK N   1      32.707  18.047   6.934  1.00  0.00     0.197 HD
HETATM    5  C   UNK N   1      34.382  18.342   8.082  0.00  0.00     0.196 C 
HETATM    6  N   UNK N   1      35.177  19.052   8.526  0.00  0.00    -0.171 NA
HETATM    7  N   UNK N   1      32.252  15.621   6.859  0.00  0.00    -0.191 N 
HETATM    8  H   UNK N   1      34.805  14.948   7.980  0.00  0.00     0.177 HD
HETATM    9  H   UNK N   1      32.084  14.670   7.045  0.00  0.00     0.184 HD
ENDROOT
BRANCH   1  10
HETATM   10  C   UNK N   1      34.022  15.483   9.855  0.00  0.00     0.138 C 
BRANCH  10  11
HETATM   11  C   UNK N   1      35.331  14.979  10.426  0.00  0.00     0.020 C 
BRANCH  11  12
HETATM   12  C   UNK N   1      35.288  15.094  11.934  0.00  0.00     0.002 C 
BRANCH  12  13
HETATM   13  C   UNK N   1      35.887  13.837  12.539  0.00  0.00     0.002 C 
BRANCH  13  14
HETATM   14  C   UNK N   1      35.113  12.610  12.110  0.00  0.00     0.027 C 
BRANCH  14  15
HETATM   15  C   UNK N   1      34.651  11.844  13.318  0.00  0.00     0.175 C 
BRANCH  15  16
HETATM   16  O   UNK N   1      34.483  12.699  14.378  0.00  0.00    -0.351 OA
BRANCH  16  17
HETATM   17  C   UNK N   1      34.706  12.318  15.653  0.00  0.00     0.068 A 
HETATM   18  C   UNK N   1      34.857  10.964  16.009  0.00  0.00     0.038 A 
HETATM   19  C   UNK N   1      35.154  10.619  17.331  0.00  0.00     0.026 A 
HETATM   20  C   UNK N   1      35.315  11.621  18.293  0.00  0.00     0.034 A 
HETATM   21  C   UNK N   1      35.146  12.962  17.941  0.00  0.00     0.026 A 
HETATM   22 Cl   UNK N   1      35.751  11.209  19.935  0.00  0.00    -0.084 Cl
HETATM   23  C   UNK N   1      34.832  13.306  16.627  0.00  0.00     0.038 A 
ENDBRANCH  16  17
ENDBRANCH  15  16
ENDBRANCH  14  15
ENDBRANCH  13  14
ENDBRANCH  12  13
ENDBRANCH  11  12
ENDBRANCH  10  11
ENDBRANCH   1  10
BRANCH   7  24
HETATM   24  C   UNK N   1      31.482  16.243   5.835  0.00  0.00     0.051 A 
HETATM   25  C   UNK N   1      32.040  16.402   4.569  0.00  0.00     0.047 A 
HETATM   26  C   UNK N   1      31.302  17.041   3.568  0.00  0.00     0.090 A 
HETATM   27  N   UNK N   1      30.050  17.507   3.830  0.00  0.00    -0.375 N 
HETATM   28  C   UNK N   1      29.484  17.367   5.057  0.00  0.00     0.090 A 
ATOM     29  HN  UNK N   1      29.525  17.971   3.089  1.00  0.00     0.164 HD
HETATM   30  C   UNK N   1      30.191  16.738   6.076  0.00  0.00     0.047 A 
ENDBRANCH   7  24
TORSDOF 9
ENDMDL
MODEL 6
REMARK VINA RESULT:      -6.6      2.542      3.546
REMARK  9 active torsions:
REMARK  status: ('A' for Active; 'I' for Inactive)
REMARK    1  A    between atoms: C_6  and  O_7 
REMARK    2  A    between atoms: O_7  and  C_8 
REMARK    3  A    between atoms: C_8  and  C_9 
REMARK    4  A    between atoms: C_9  and  C_10 
REMARK    5  A    between atoms: C_10  and  C_11 
REMARK    6  A    between atoms: C_11  and  C_12 
REMARK    7  A    between atoms: C_12  and  C_13 
REMARK    8  A    between atoms: C_13  and  N_14 
REMARK       I    between atoms: N_14  and  C_15 
REMARK       I    between atoms: C_15  and  N_20 
REMARK    9  A    between atoms: N_20  and  C_21 
ROOT
HETATM    1  N   UNK N   1      32.346  16.243   9.277  0.00  0.00    -0.225 N 
HETATM    2  C   UNK N   1      33.651  15.794   9.588  0.00  0.00     0.687 C 
HETATM    3  N   UNK N   1      34.699  16.506   9.335  0.00  0.00    -0.126 N 
ATOM      4  HN  UNK N   1      35.600  16.091   9.577  1.00  0.00     0.197 HD
HETATM    5  C   UNK N   1      34.732  17.769   8.774  0.00  0.00     0.196 C 
HETATM    6  N   UNK N   1      34.832  18.822   8.310  0.00  0.00    -0.171 NA
HETATM    7  N   UNK N   1      33.793  14.570  10.296  0.00  0.00    -0.191 N 
HETATM    8  H   UNK N   1      31.768  16.578  10.000  0.00  0.00     0.177 HD
HETATM    9  H   UNK N   1      33.001  13.992  10.380  0.00  0.00     0.184 HD
ENDROOT
BRANCH   1  10
HETATM   10  C   UNK N   1      31.844  16.222   7.931  0.00  0.00     0.138 C 
BRANCH  10  11
HETATM   11  C   UNK N   1      31.127  17.527   7.656  0.00  0.00     0.020 C 
BRANCH  11  12
HETATM   12  C   UNK N   1      29.742  17.228   7.127  0.00  0.00     0.002 C 
BRANCH  12  13
HETATM   13  C   UNK N   1      28.788  18.303   7.617  0.00  0.00     0.002 C 
BRANCH  13  14
HETATM   14  C   UNK N   1      27.973  18.865   6.472  0.00  0.00     0.027 C 
BRANCH  14  15
HETATM   15  C   UNK N   1      27.520  17.753   5.568  0.00  0.00     0.175 C 
BRANCH  15  16
HETATM   16  O   UNK N   1      27.270  18.243   4.312  0.00  0.00    -0.351 OA
BRANCH  16  17
HETATM   17  C   UNK N   1      26.108  18.849   3.993  0.00  0.00     0.068 A 
HETATM   18  C   UNK N   1      26.071  20.026   3.220  0.00  0.00     0.038 A 
HETATM   19  C   UNK N   1      24.841  20.584   2.855  0.00  0.00     0.026 A 
HETATM   20  C   UNK N   1      23.651  19.962   3.247  0.00  0.00     0.034 A 
HETATM   21  C   UNK N   1      23.691  18.805   4.027  0.00  0.00     0.026 A 
HETATM   22 Cl   UNK N   1      22.108  20.610   2.743  0.00  0.00    -0.084 Cl
HETATM   23  C   UNK N   1      24.916  18.259   4.407  0.00  0.00     0.038 A 
ENDBRANCH  16  17
ENDBRANCH  15  16
ENDBRANCH  14  15
ENDBRANCH  13  14
ENDBRANCH  12  13
ENDBRANCH  11  12
ENDBRANCH  10  11
ENDBRANCH   1  10
BRANCH   7  24
HETATM   24  C   UNK N   1      35.006  14.123  10.893  0.00  0.00     0.051 A 
HETATM   25  C   UNK N   1      35.219  14.352  12.251  0.00  0.00     0.047 A 
HETATM   26  C   UNK N   1      36.421  13.946  12.836  0.00  0.00     0.090 A 
HETATM   27  N   UNK N   1      37.378  13.333  12.085  0.00  0.00    -0.375 N 
HETATM   28  C   UNK N   1      37.197  13.100  10.760  0.00  0.00     0.090 A 
ATOM     29  HN  UNK N   1      38.250  13.043  12.528  1.00  0.00     0.164 HD
HETATM   30  C   UNK N   1      36.013  13.493  10.145  0.00  0.00     0.047 A 
ENDBRANCH   7  24
TORSDOF 9
ENDMDL
MODEL 7
REMARK VINA RESULT:      -6.5      4.126      6.274
REMARK  9 active torsions:
REMARK  status: ('A' for Active; 'I' for Inactive)
REMARK    1  A    between atoms: C_6  and  O_7 
REMARK    2  A    between atoms: O_7  and  C_8 
REMARK    3  A    between atoms: C_8  and  C_9 
REMARK    4  A    between atoms: C_9  and  C_10 
REMARK    5  A    between atoms: C_10  and  C_11 
REMARK    6  A    between atoms: C_11  and  C_12 
REMARK    7  A    between atoms: C_12  and  C_13 
REMARK    8  A    between atoms: C_13  and  N_14 
REMARK       I    between atoms: N_14  and  C_15 
REMARK       I    between atoms: C_15  and  N_20 
REMARK    9  A    between atoms: N_20  and  C_21 
ROOT
HETATM    1  N   UNK N   1      33.049  14.883  10.634  0.00  0.00    -0.225 N 
HETATM    2  C   UNK N   1      34.305  14.531  11.184  0.00  0.00     0.687 C 
HETATM    3  N   UNK N   1      35.326  15.319  11.119  0.00  0.00    -0.126 N 
ATOM      4  HN  UNK N   1      36.195  14.972  11.526  1.00  0.00     0.197 HD
HETATM    5  C   UNK N   1      35.369  16.583  10.558  0.00  0.00     0.196 C 
HETATM    6  N   UNK N   1      35.475  17.641  10.109  0.00  0.00    -0.171 NA
HETATM    7  N   UNK N   1      34.404  13.319  11.920  0.00  0.00    -0.191 N 
HETATM    8  H   UNK N   1      32.326  15.173  11.236  0.00  0.00     0.177 HD
HETATM    9  H   UNK N   1      33.654  12.684  11.865  0.00  0.00     0.184 HD
ENDROOT
BRANCH   1  10
HETATM   10  C   UNK N   1      32.805  14.827   9.220  0.00  0.00     0.138 C 
BRANCH  10  11
HETATM   11  C   UNK N   1      32.022  16.057   8.811  0.00  0.00     0.020 C 
BRANCH  11  12
HETATM   12  C   UNK N   1      31.876  16.071   7.305  0.00  0.00     0.002 C 
BRANCH  12  13
HETATM   13  C   UNK N   1      32.418  17.386   6.773  0.00  0.00     0.002 C 
BRANCH  13  14
HETATM   14  C   UNK N   1      33.868  17.248   6.365  0.00  0.00     0.027 C 
BRANCH  14  15
HETATM   15  C   UNK N   1      34.126  15.862   5.844  0.00  0.00     0.175 C 
BRANCH  15  16
HETATM   16  O   UNK N   1      35.472  15.678   5.650  0.00  0.00    -0.351 OA
BRANCH  16  17
HETATM   17  C   UNK N   1      36.161  14.696   6.266  0.00  0.00     0.068 A 
HETATM   18  C   UNK N   1      37.240  14.040   5.640  0.00  0.00     0.038 A 
HETATM   19  C   UNK N   1      37.970  13.074   6.340  0.00  0.00     0.026 A 
HETATM   20  C   UNK N   1      37.636  12.774   7.665  0.00  0.00     0.034 A 
HETATM   21  C   UNK N   1      36.556  13.412   8.276  0.00  0.00     0.026 A 
HETATM   22 Cl   UNK N   1      38.581  11.617   8.573  0.00  0.00    -0.084 Cl
HETATM   23  C   UNK N   1      35.815  14.362   7.574  0.00  0.00     0.038 A 
ENDBRANCH  16  17
ENDBRANCH  15  16
ENDBRANCH  14  15
ENDBRANCH  13  14
ENDBRANCH  12  13
ENDBRANCH  11  12
ENDBRANCH  10  11
ENDBRANCH   1  10
BRANCH   7  24
HETATM   24  C   UNK N   1      35.517  12.962  12.735  0.00  0.00     0.051 A 
HETATM   25  C   UNK N   1      35.632  13.517  14.007  0.00  0.00     0.047 A 
HETATM   26  C   UNK N   1      36.739  13.197  14.798  0.00  0.00     0.090 A 
HETATM   27  N   UNK N   1      37.697  12.351  14.329  0.00  0.00    -0.375 N 
HETATM   28  C   UNK N   1      37.610  11.798  13.091  0.00  0.00     0.090 A 
ATOM     29  HN  UNK N   1      38.499  12.128  14.920  1.00  0.00     0.164 HD
HETATM   30  C   UNK N   1      36.523  12.098  12.277  0.00  0.00     0.047 A 
ENDBRANCH   7  24
TORSDOF 9
ENDMDL
MODEL 8
REMARK VINA RESULT:      -6.4      1.760      2.344
REMARK  9 active torsions:
REMARK  status: ('A' for Active; 'I' for Inactive)
REMARK    1  A    between atoms: C_6  and  O_7 
REMARK    2  A    between atoms: O_7  and  C_8 
REMARK    3  A    between atoms: C_8  and  C_9 
REMARK    4  A    between atoms: C_9  and  C_10 
REMARK    5  A    between atoms: C_10  and  C_11 
REMARK    6  A    between atoms: C_11  and  C_12 
REMARK    7  A    between atoms: C_12  and  C_13 
REMARK    8  A    between atoms: C_13  and  N_14 
REMARK       I    between atoms: N_14  and  C_15 
REMARK       I    between atoms: C_15  and  N_20 
REMARK    9  A    between atoms: N_20  and  C_21 
ROOT
HETATM    1  N   UNK N   1      32.932  14.964  10.340  0.00  0.00    -0.225 N 
HETATM    2  C   UNK N   1      34.191  14.629  10.891  0.00  0.00     0.687 C 
HETATM    3  N   UNK N   1      35.203  15.430  10.827  0.00  0.00    -0.126 N 
ATOM      4  HN  UNK N   1      36.076  15.095  11.235  1.00  0.00     0.197 HD
HETATM    5  C   UNK N   1      35.231  16.693  10.263  0.00  0.00     0.196 C 
HETATM    6  N   UNK N   1      35.324  17.751   9.812  0.00  0.00    -0.171 NA
HETATM    7  N   UNK N   1      34.306  13.420  11.631  0.00  0.00    -0.191 N 
HETATM    8  H   UNK N   1      32.205  15.246  10.940  0.00  0.00     0.177 HD
HETATM    9  H   UNK N   1      33.564  12.776  11.576  0.00  0.00     0.184 HD
ENDROOT
BRANCH   1  10
HETATM   10  C   UNK N   1      32.691  14.902   8.925  0.00  0.00     0.138 C 
BRANCH  10  11
HETATM   11  C   UNK N   1      31.829  16.080   8.525  0.00  0.00     0.020 C 
BRANCH  11  12
HETATM   12  C   UNK N   1      32.617  16.977   7.596  0.00  0.00     0.002 C 
BRANCH  12  13
HETATM   13  C   UNK N   1      33.708  16.156   6.932  0.00  0.00     0.002 C 
BRANCH  13  14
HETATM   14  C   UNK N   1      33.796  16.470   5.454  0.00  0.00     0.027 C 
BRANCH  14  15
HETATM   15  C   UNK N   1      32.731  17.459   5.074  0.00  0.00     0.175 C 
BRANCH  15  16
HETATM   16  O   UNK N   1      31.758  16.838   4.332  0.00  0.00    -0.351 OA
BRANCH  16  17
HETATM   17  C   UNK N   1      30.494  16.690   4.780  0.00  0.00     0.068 A 
HETATM   18  C   UNK N   1      29.618  17.785   4.907  0.00  0.00     0.038 A 
HETATM   19  C   UNK N   1      28.295  17.577   5.311  0.00  0.00     0.026 A 
HETATM   20  C   UNK N   1      27.842  16.280   5.574  0.00  0.00     0.034 A 
HETATM   21  C   UNK N   1      28.718  15.199   5.464  0.00  0.00     0.026 A 
HETATM   22 Cl   UNK N   1      26.174  15.999   6.015  0.00  0.00    -0.084 Cl
HETATM   23  C   UNK N   1      30.042  15.406   5.080  0.00  0.00     0.038 A 
ENDBRANCH  16  17
ENDBRANCH  15  16
ENDBRANCH  14  15
ENDBRANCH  13  14
ENDBRANCH  12  13
ENDBRANCH  11  12
ENDBRANCH  10  11
ENDBRANCH   1  10
BRANCH   7  24
HETATM   24  C   UNK N   1      35.422  13.079  12.447  0.00  0.00     0.051 A 
HETATM   25  C   UNK N   1      36.417  12.256  11.926  0.00  0.00     0.047 A 
HETATM   26  C   UNK N   1      37.498  11.891  12.733  0.00  0.00     0.090 A 
HETATM   27  N   UNK N   1      37.577  12.334  14.018  0.00  0.00    -0.375 N 
HETATM   28  C   UNK N   1      36.620  13.136  14.550  0.00  0.00     0.090 A 
ATOM     29  HN  UNK N   1      38.374  12.058  14.593  1.00  0.00     0.164 HD
HETATM   30  C   UNK N   1      35.529  13.516  13.777  0.00  0.00     0.047 A 
ENDBRANCH   7  24
TORSDOF 9
ENDMDL
MODEL 9
REMARK VINA RESULT:      -6.4      1.465      2.339
REMARK  9 active torsions:
REMARK  status: ('A' for Active; 'I' for Inactive)
REMARK    1  A    between atoms: C_6  and  O_7 
REMARK    2  A    between atoms: O_7  and  C_8 
REMARK    3  A    between atoms: C_8  and  C_9 
REMARK    4  A    between atoms: C_9  and  C_10 
REMARK    5  A    between atoms: C_10  and  C_11 
REMARK    6  A    between atoms: C_11  and  C_12 
REMARK    7  A    between atoms: C_12  and  C_13 
REMARK    8  A    between atoms: C_13  and  N_14 
REMARK       I    between atoms: N_14  and  C_15 
REMARK       I    between atoms: C_15  and  N_20 
REMARK    9  A    between atoms: N_20  and  C_21 
ROOT
HETATM    1  N   UNK N   1      32.419  16.334   9.055  0.00  0.00    -0.225 N 
HETATM    2  C   UNK N   1      33.716  15.910   9.429  0.00  0.00     0.687 C 
HETATM    3  N   UNK N   1      34.757  16.654   9.253  0.00  0.00    -0.126 N 
ATOM      4  HN  UNK N   1      35.654  16.257   9.535  1.00  0.00     0.197 HD
HETATM    5  C   UNK N   1      34.788  17.932   8.724  0.00  0.00     0.196 C 
HETATM    6  N   UNK N   1      34.886  18.998   8.293  0.00  0.00    -0.171 NA
HETATM    7  N   UNK N   1      33.852  14.672  10.115  0.00  0.00    -0.191 N 
HETATM    8  H   UNK N   1      31.793  16.636   9.752  0.00  0.00     0.177 HD
HETATM    9  H   UNK N   1      33.072  14.073  10.140  0.00  0.00     0.184 HD
ENDROOT
BRANCH   1  10
HETATM   10  C   UNK N   1      31.994  16.334   7.683  0.00  0.00     0.138 C 
BRANCH  10  11
HETATM   11  C   UNK N   1      31.801  14.902   7.231  0.00  0.00     0.020 C 
BRANCH  11  12
HETATM   12  C   UNK N   1      32.080  14.810   5.747  0.00  0.00     0.002 C 
BRANCH  12  13
HETATM   13  C   UNK N   1      30.817  14.350   5.039  0.00  0.00     0.002 C 
BRANCH  13  14
HETATM   14  C   UNK N   1      30.444  15.306   3.928  0.00  0.00     0.027 C 
BRANCH  14  15
HETATM   15  C   UNK N   1      29.206  16.073   4.302  0.00  0.00     0.175 C 
BRANCH  15  16
HETATM   16  O   UNK N   1      29.446  16.832   5.419  0.00  0.00    -0.351 OA
BRANCH  16  17
HETATM   17  C   UNK N   1      28.819  18.005   5.642  0.00  0.00     0.068 A 
HETATM   18  C   UNK N   1      28.406  18.839   4.585  0.00  0.00     0.038 A 
HETATM   19  C   UNK N   1      27.700  20.015   4.859  0.00  0.00     0.026 A 
HETATM   20  C   UNK N   1      27.392  20.351   6.181  0.00  0.00     0.034 A 
HETATM   21  C   UNK N   1      27.817  19.531   7.228  0.00  0.00     0.026 A 
HETATM   22 Cl   UNK N   1      26.452  21.782   6.534  0.00  0.00    -0.084 Cl
HETATM   23  C   UNK N   1      28.538  18.369   6.958  0.00  0.00     0.038 A 
ENDBRANCH  16  17
ENDBRANCH  15  16
ENDBRANCH  14  15
ENDBRANCH  13  14
ENDBRANCH  12  13
ENDBRANCH  11  12
ENDBRANCH  10  11
ENDBRANCH   1  10
BRANCH   7  24
HETATM   24  C   UNK N   1      35.041  14.242  10.769  0.00  0.00     0.051 A 
HETATM   25  C   UNK N   1      35.207  14.514  12.124  0.00  0.00     0.047 A 
HETATM   26  C   UNK N   1      36.386  14.124  12.765  0.00  0.00     0.090 A 
HETATM   27  N   UNK N   1      37.366  13.484  12.068  0.00  0.00    -0.375 N 
HETATM   28  C   UNK N   1      37.230  13.208  10.746  0.00  0.00     0.090 A 
ATOM     29  HN  UNK N   1      38.221  13.206  12.552  1.00  0.00     0.164 HD
HETATM   30  C   UNK N   1      36.071  13.585  10.077  0.00  0.00     0.047 A 
ENDBRANCH   7  24
TORSDOF 9
ENDMDL
