REMARK  4 active torsions:
REMARK  status: ('A' for Active; 'I' for Inactive)
REMARK    1  A    between atoms: C_2  and  C_16 
REMARK    2  A    between atoms: C_5  and  C_7 
REMARK    3  A    between atoms: N_8  and  C_10 
REMARK    4  A    between atoms: N_17  and  C_19 
ROOT
HETATM    1  C   UNK N   1       1.589   7.189   0.021  0.00  0.00     0.013 A 
HETATM    2  C   UNK N   1       2.846   7.813   0.038  0.00  0.00    -0.021 A 
HETATM    3  C   UNK N   1       4.006   7.035   0.024  0.00  0.00     0.013 A 
HETATM    4  C   UNK N   1       3.913   5.642   0.021  0.00  0.00     0.013 A 
HETATM    5  C   UNK N   1       2.656   5.018   0.036  0.00  0.00    -0.021 A 
HETATM    6  C   UNK N   1       1.496   5.796   0.023  0.00  0.00     0.013 A 
ENDROOT
BRANCH   2   7
HETATM    7  C   UNK N   1       2.956   9.266   0.204  0.00  0.00     0.095 C 
HETATM    8  N   UNK N   1       1.904  10.001   0.231  0.00  0.00    -0.383 N 
ATOM      9  HN  UNK N   1       1.002   9.591  -0.009  1.00  0.00     0.159 HD
BRANCH   8  10
HETATM   10  C   UNK N   1       1.971  11.394   0.594  0.00  0.00     0.202 C 
HETATM   11  C   UNK N   1       0.699  12.031   0.318  0.00  0.00     0.266 C 
HETATM   12  O   UNK N   1      -0.368  11.695   0.805  0.00  0.00    -0.269 OA
HETATM   13  N   UNK N   1       0.812  13.034  -0.537  0.00  0.00    -0.233 N 
HETATM   14  O   UNK N   1       2.065  13.263  -0.960  0.00  0.00    -0.275 OA
HETATM   15  H   UNK N   1       0.041  13.568  -0.838  0.00  0.00     0.197 HD
HETATM   16  C   UNK N   1       2.836  12.208  -0.385  0.00  0.00     0.236 C 
ENDBRANCH   8  10
ENDBRANCH   2   7
BRANCH   5  17
HETATM   17  C   UNK N   1       2.546   3.564   0.202  0.00  0.00     0.095 C 
HETATM   18  N   UNK N   1       3.598   2.830   0.230  0.00  0.00    -0.383 N 
ATOM     19  HN  UNK N   1       4.500   3.240  -0.010  1.00  0.00     0.159 HD
BRANCH  18  20
HETATM   20  C   UNK N   1       3.531   1.436   0.592  0.00  0.00     0.202 C 
HETATM   21  C   UNK N   1       4.804   0.800   0.319  0.00  0.00     0.266 C 
HETATM   22  O   UNK N   1       5.870   1.137   0.807  0.00  0.00    -0.269 OA
HETATM   23  N   UNK N   1       4.691  -0.205  -0.535  0.00  0.00    -0.233 N 
HETATM   24  O   UNK N   1       3.439  -0.435  -0.959  0.00  0.00    -0.275 OA
HETATM   25  H   UNK N   1       5.462  -0.739  -0.835  0.00  0.00     0.197 HD
HETATM   26  C   UNK N   1       2.668   0.622  -0.388  0.00  0.00     0.236 C 
ENDBRANCH  18  20
ENDBRANCH   5  17
TORSDOF 4
