REMARK  12 active torsions:
REMARK  status: ('A' for Active; 'I' for Inactive)
REMARK    1  A    between atoms: C_2  and  C_3 
REMARK    2  A    between atoms: C_3  and  C_4 
REMARK    3  A    between atoms: C_4  and  C_5 
REMARK    4  A    between atoms: C_5  and  C_6 
REMARK    5  A    between atoms: C_6  and  C_7 
REMARK    6  A    between atoms: C_7  and  C_8 
REMARK    7  A    between atoms: C_8  and  N_9 
REMARK    8  A    between atoms: C_14  and  N_24 
REMARK    9  A    between atoms: C_16  and  C_19 
REMARK   10  A    between atoms: C_19  and  C_20 
REMARK   11  A    between atoms: C_20  and  O_22 
REMARK       I    between atoms: N_24  and  C_25 
REMARK   12  A    between atoms: C_25  and  C_27 
ROOT
HETATM    1  N   UNK N   1      -1.072  -2.873   0.754  0.00  0.00    -0.378 N 
HETATM    2  C   UNK N   1      -1.051  -4.301   0.976  0.00  0.00     0.128 A 
HETATM    3  C   UNK N   1       0.397  -4.738   0.609  0.00  0.00     0.061 A 
HETATM    4  C   UNK N   1       1.049  -3.446   0.218  0.00  0.00    -0.021 A 
HETATM    5  C   UNK N   1       0.168  -2.419   0.295  0.00  0.00     0.065 A 
HETATM    6  C   UNK N   1       0.527  -1.103  -0.038  0.00  0.00     0.068 A 
HETATM    7  C   UNK N   1       1.871  -0.863  -0.449  0.00  0.00    -0.025 A 
HETATM    8  C   UNK N   1       2.798  -1.941  -0.511  0.00  0.00    -0.034 A 
HETATM    9  C   UNK N   1       2.372  -3.252  -0.181  0.00  0.00    -0.046 A 
HETATM   10  C   UNK N   1       3.297  -4.423  -0.260  0.00  0.00     0.049 C 
HETATM   11  C   UNK N   1       2.306   0.505  -0.876  0.00  0.00     0.051 C 
ENDROOT
BRANCH   1  12
HETATM   12  C   UNK N   1      -2.118  -2.023   1.271  0.00  0.00     0.123 C 
BRANCH  12  13
HETATM   13  C   UNK N   1      -3.402  -2.212   0.494  0.00  0.00     0.020 C 
BRANCH  13  14
HETATM   14  C   UNK N   1      -3.362  -1.343  -0.746  0.00  0.00     0.002 C 
BRANCH  14  15
HETATM   15  C   UNK N   1      -3.979  -2.084  -1.916  0.00  0.00     0.000 C 
BRANCH  15  16
HETATM   16  C   UNK N   1      -5.464  -1.783  -2.056  0.00  0.00     0.000 C 
BRANCH  16  17
HETATM   17  C   UNK N   1      -6.284  -2.508  -1.004  0.00  0.00    -0.000 C 
BRANCH  17  18
HETATM   18  C   UNK N   1      -6.690  -1.537   0.086  0.00  0.00    -0.005 C 
HETATM   19  C   UNK N   1      -7.583  -2.241   1.085  0.00  0.00     0.005 C 
ENDBRANCH  17  18
ENDBRANCH  16  17
ENDBRANCH  15  16
ENDBRANCH  14  15
ENDBRANCH  13  14
ENDBRANCH  12  13
ENDBRANCH   1  12
BRANCH   6  20
HETATM   20  N   UNK N   1      -0.471  -0.086  -0.054  0.00  0.00    -0.324 N 
HETATM   21  C   UNK N   1      -0.355   1.165   0.464  0.00  0.00     0.229 C 
HETATM   22  O   UNK N   1       0.604   1.457   1.165  0.00  0.00    -0.272 OA
HETATM   23  H   UNK N   1      -1.329  -0.312  -0.481  0.00  0.00     0.169 HD
BRANCH  21  24
HETATM   24  C   UNK N   1      -1.440   2.182   0.183  0.00  0.00     0.030 C 
HETATM   25  C   UNK N   1      -1.508   2.442  -1.311  0.00  0.00     0.025 C 
HETATM   26  C   UNK N   1      -2.787   1.659   0.647  0.00  0.00     0.025 C 
HETATM   27  C   UNK N   1      -1.177   3.506   0.883  0.00  0.00     0.025 C 
ENDBRANCH  21  24
ENDBRANCH   6  20
BRANCH   8  28
HETATM   28  C   UNK N   1       4.213  -1.685  -0.979  0.00  0.00     0.149 C 
BRANCH  28  29
HETATM   29  C   UNK N   1       5.255  -2.078   0.025  0.00  0.00     0.143 C 
HETATM   30  O   UNK N   1       5.278  -1.559   1.129  0.00  0.00    -0.650 OA
BRANCH  29  31
HETATM   31  O   UNK N   1       6.179  -3.001  -0.301  0.00  0.00    -0.776 OA
HETATM   32  H   UNK N   1       5.944  -3.879  -0.529  0.00  0.00     0.167 HD
ENDBRANCH  29  31
ENDBRANCH  28  29
ENDBRANCH   8  28
TORSDOF 12
