REMARK  4 active torsions:
REMARK  status: ('A' for Active; 'I' for Inactive)
REMARK    1  A    between atoms: C_6  and  O_7 
REMARK    2  A    between atoms: O_7  and  C_8 
REMARK    3  A    between atoms: C_11  and  C_15 
REMARK       I    between atoms: C_15  and  N_17 
REMARK    4  A    between atoms: N_21  and  C_24 
ROOT
HETATM    1  C   UNK N   1      -1.829   6.016  -0.027  0.00  0.00     0.147 A 
HETATM    2  C   UNK N   1      -1.207   6.706   1.022  0.00  0.00     0.057 A 
HETATM    3  C   UNK N   1       0.172   6.780   1.072  0.00  0.00     0.022 A 
HETATM    4  C   UNK N   1       0.940   6.160   0.088  0.00  0.00     0.047 A 
HETATM    5  C   UNK N   1       0.279   5.430  -0.917  0.00  0.00     0.107 A 
HETATM    6  N   UNK N   1      -1.080   5.371  -0.956  0.00  0.00    -0.346 N 
ATOM      7  HN  UNK N   1      -1.540   4.836  -1.693  1.00  0.00     0.167 HD
ENDROOT
BRANCH   4   8
HETATM    8  C   UNK N   1       2.426   6.309   0.155  0.00  0.00     0.255 C 
HETATM    9  O   UNK N   1       2.883   7.176   0.885  0.00  0.00    -0.267 OA
HETATM   10  N   UNK N   1       3.287   5.477  -0.519  0.00  0.00    -0.346 N 
HETATM   11  C   UNK N   1       4.708   5.587  -0.289  0.00  0.00     0.127 C 
HETATM   12  C   UNK N   1       2.840   4.312  -1.234  0.00  0.00     0.145 C 
HETATM   13  C   UNK N   1       5.201   4.304   0.391  0.00  0.00     0.039 C 
HETATM   14  C   UNK N   1       4.180   3.800   1.422  0.00  0.00     0.119 C 
HETATM   15  N   UNK N   1       3.159   2.898   0.857  0.00  0.00    -0.406 N 
HETATM   16  C   UNK N   1       2.242   3.333  -0.221  0.00  0.00     0.137 C 
BRANCH  15  17
HETATM   17  C   UNK N   1       3.545   1.484   0.859  0.00  0.00     0.079 A 
HETATM   18  C   UNK N   1       4.009   1.016  -0.508  0.00  0.00     0.025 A 
HETATM   19  C   UNK N   1       2.770   0.145  -0.626  0.00  0.00     0.004 A 
HETATM   20  C   UNK N   1       2.320   0.589   0.752  0.00  0.00     0.025 A 
ENDBRANCH  15  17
ENDBRANCH   4   8
BRANCH   1  21
HETATM   21  O   UNK N   1      -3.165   6.139  -0.198  0.00  0.00    -0.294 OA
BRANCH  21  22
HETATM   22  C   UNK N   1      -3.711   7.384  -0.231  0.00  0.00     0.078 A 
HETATM   23  C   UNK N   1      -2.908   8.500  -0.554  0.00  0.00     0.040 A 
HETATM   24  C   UNK N   1      -3.430   9.784  -0.546  0.00  0.00     0.045 A 
HETATM   25  C   UNK N   1      -4.767   9.978  -0.219  0.00  0.00     0.116 A 
HETATM   26  C   UNK N   1      -5.587   8.880   0.078  0.00  0.00     0.045 A 
HETATM   27  F   UNK N   1      -5.266  11.235  -0.190  0.00  0.00    -0.206 F 
HETATM   28  C   UNK N   1      -5.061   7.580   0.067  0.00  0.00     0.040 A 
ENDBRANCH  21  22
ENDBRANCH   1  21
TORSDOF 4
