MODEL 1
REMARK VINA RESULT:      -6.3      0.000      0.000
REMARK  14 active torsions:
REMARK  status: ('A' for Active; 'I' for Inactive)
REMARK    1  A    between atoms: C_13  and  C_9 
REMARK    2  A    between atoms: C_14  and  C_9 
REMARK    3  A    between atoms: C_15  and  C_12 
REMARK    4  A    between atoms: C_21  and  C_12 
REMARK    5  A    between atoms: C_28  and  C_13 
REMARK    6  A    between atoms: N_30  and  C_14 
REMARK    7  A    between atoms: N_30  and  C_15 
REMARK    8  A    between atoms: C_28  and  C_20 
REMARK    9  A    between atoms: C_28  and  C_22 
REMARK   10  A    between atoms: O_31  and  C_23 
REMARK   11  A    between atoms: O_32  and  C_24 
REMARK   12  A    between atoms: O_33  and  C_25 
REMARK   13  A    between atoms: O_34  and  C_26 
REMARK   14  A    between atoms: O_35  and  C_27 
ROOT
HETATM    1  C   UNK N   1      30.035  23.414  -2.626  0.00  0.00     0.074 C 
HETATM    2  C   UNK N   1      29.971  23.846  -4.040  0.00  0.00     0.079 C 
HETATM    3  N   UNK N   1      30.064  23.064  -1.521  0.00  0.00    -0.196 NA
ENDROOT
BRANCH   2   4
HETATM    4  C   UNK N   1      28.655  24.591  -4.326  0.00  0.00     0.032 C 
BRANCH   4   5
HETATM    5  C   UNK N   1      27.485  24.168  -3.427  0.00  0.00     0.032 C 
BRANCH   5   6
HETATM    6  C   UNK N   1      26.131  24.252  -4.148  0.00  0.00     0.272 C 
BRANCH   6   7
HETATM    7  N   UNK N   1      26.296  24.384  -5.599  0.00  0.00     0.084 N 
HETATM    8  C   UNK N   1      25.768  23.176  -6.208  0.00  0.00     0.309 C 
BRANCH   7   9
HETATM    9  C   UNK N   1      25.601  25.520  -6.226  0.00  0.00     0.276 C 
BRANCH   9  10
HETATM   10  C   UNK N   1      26.482  26.620  -6.839  0.00  0.00     0.068 C 
BRANCH  10  11
HETATM   11  C   UNK N   1      26.622  27.766  -5.891  0.00  0.00    -0.054 A 
HETATM   12  C   UNK N   1      25.818  27.853  -4.752  0.00  0.00     0.010 A 
HETATM   13  C   UNK N   1      25.957  28.937  -3.885  0.00  0.00     0.040 A 
HETATM   14  C   UNK N   1      26.896  29.955  -4.149  0.00  0.00     0.101 A 
HETATM   15  C   UNK N   1      27.699  29.866  -5.319  0.00  0.00     0.102 A 
HETATM   16  C   UNK N   1      27.551  28.768  -6.164  0.00  0.00     0.046 A 
BRANCH  14  17
HETATM   17  O   UNK N   1      27.041  30.998  -3.295  0.00  0.00    -0.353 OA
HETATM   18  C   UNK N   1      27.800  30.944  -2.147  0.00  0.00     0.210 C 
ENDBRANCH  14  17
BRANCH  15  19
HETATM   19  O   UNK N   1      28.623  30.796  -5.673  0.00  0.00    -0.353 OA
HETATM   20  C   UNK N   1      29.961  30.754  -5.362  0.00  0.00     0.210 C 
ENDBRANCH  15  19
ENDBRANCH  10  11
ENDBRANCH   9  10
ENDBRANCH   7   9
ENDBRANCH   6   7
ENDBRANCH   5   6
ENDBRANCH   4   5
ENDBRANCH   2   4
BRANCH   2  21
HETATM   21  C   UNK N   1      31.201  24.758  -4.338  0.00  0.00     0.004 C 
HETATM   22  C   UNK N   1      31.176  26.103  -3.619  0.00  0.00     0.011 C 
HETATM   23  C   UNK N   1      31.416  24.998  -5.827  0.00  0.00     0.011 C 
ENDBRANCH   2  21
BRANCH   2  24
HETATM   24  C   UNK N   1      30.018  22.530  -4.801  0.00  0.00    -0.030 A 
HETATM   25  C   UNK N   1      29.372  22.402  -6.028  0.00  0.00     0.048 A 
HETATM   26  C   UNK N   1      29.668  21.349  -6.901  0.00  0.00     0.104 A 
HETATM   27  C   UNK N   1      30.671  20.401  -6.540  0.00  0.00     0.135 A 
HETATM   28  C   UNK N   1      31.282  20.495  -5.255  0.00  0.00     0.104 A 
HETATM   29  C   UNK N   1      30.937  21.549  -4.409  0.00  0.00     0.048 A 
BRANCH  26  30
HETATM   30  O   UNK N   1      29.025  21.265  -8.093  0.00  0.00    -0.353 OA
HETATM   31  C   UNK N   1      27.764  20.721  -8.233  0.00  0.00     0.210 C 
ENDBRANCH  26  30
BRANCH  27  32
HETATM   32  O   UNK N   1      31.074  19.419  -7.391  0.00  0.00    -0.351 OA
HETATM   33  C   UNK N   1      32.081  19.541  -8.322  0.00  0.00     0.210 C 
ENDBRANCH  27  32
BRANCH  28  34
HETATM   34  O   UNK N   1      32.255  19.650  -4.820  0.00  0.00    -0.353 OA
HETATM   35  C   UNK N   1      33.609  19.890  -4.883  0.00  0.00     0.210 C 
ENDBRANCH  28  34
ENDBRANCH   2  24
TORSDOF 14
ENDMDL
MODEL 2
REMARK VINA RESULT:      -6.1      2.745      7.784
REMARK  14 active torsions:
REMARK  status: ('A' for Active; 'I' for Inactive)
REMARK    1  A    between atoms: C_13  and  C_9 
REMARK    2  A    between atoms: C_14  and  C_9 
REMARK    3  A    between atoms: C_15  and  C_12 
REMARK    4  A    between atoms: C_21  and  C_12 
REMARK    5  A    between atoms: C_28  and  C_13 
REMARK    6  A    between atoms: N_30  and  C_14 
REMARK    7  A    between atoms: N_30  and  C_15 
REMARK    8  A    between atoms: C_28  and  C_20 
REMARK    9  A    between atoms: C_28  and  C_22 
REMARK   10  A    between atoms: O_31  and  C_23 
REMARK   11  A    between atoms: O_32  and  C_24 
REMARK   12  A    between atoms: O_33  and  C_25 
REMARK   13  A    between atoms: O_34  and  C_26 
REMARK   14  A    between atoms: O_35  and  C_27 
ROOT
HETATM    1  C   UNK N   1      28.040  26.536  -5.636  0.00  0.00     0.074 C 
HETATM    2  C   UNK N   1      26.589  26.264  -5.746  0.00  0.00     0.079 C 
HETATM    3  N   UNK N   1      29.181  26.726  -5.550  0.00  0.00    -0.196 NA
ENDROOT
BRANCH   2   4
HETATM    4  C   UNK N   1      26.121  25.329  -4.615  0.00  0.00     0.032 C 
BRANCH   4   5
HETATM    5  C   UNK N   1      27.076  25.266  -3.416  0.00  0.00     0.032 C 
BRANCH   5   6
HETATM    6  C   UNK N   1      27.604  23.846  -3.158  0.00  0.00     0.272 C 
BRANCH   6   7
HETATM    7  N   UNK N   1      29.070  23.805  -3.154  0.00  0.00     0.084 N 
HETATM    8  C   UNK N   1      29.479  23.015  -2.007  0.00  0.00     0.309 C 
BRANCH   7   9
HETATM    9  C   UNK N   1      29.701  23.200  -4.338  0.00  0.00     0.276 C 
BRANCH   9  10
HETATM   10  C   UNK N   1      28.826  23.055  -5.593  0.00  0.00     0.068 C 
BRANCH  10  11
HETATM   11  C   UNK N   1      29.236  21.854  -6.382  0.00  0.00    -0.054 A 
HETATM   12  C   UNK N   1      30.192  20.966  -5.883  0.00  0.00     0.010 A 
HETATM   13  C   UNK N   1      30.570  19.856  -6.640  0.00  0.00     0.040 A 
HETATM   14  C   UNK N   1      30.003  19.624  -7.909  0.00  0.00     0.101 A 
HETATM   15  C   UNK N   1      29.042  20.541  -8.414  0.00  0.00     0.102 A 
HETATM   16  C   UNK N   1      28.672  21.636  -7.636  0.00  0.00     0.046 A 
BRANCH  14  17
HETATM   17  O   UNK N   1      30.358  18.534  -8.634  0.00  0.00    -0.353 OA
HETATM   18  C   UNK N   1      31.616  18.349  -9.165  0.00  0.00     0.210 C 
ENDBRANCH  14  17
BRANCH  15  19
HETATM   19  O   UNK N   1      28.444  20.417  -9.628  0.00  0.00    -0.353 OA
HETATM   20  C   UNK N   1      28.914  20.937 -10.809  0.00  0.00     0.210 C 
ENDBRANCH  15  19
ENDBRANCH  10  11
ENDBRANCH   9  10
ENDBRANCH   7   9
ENDBRANCH   6   7
ENDBRANCH   5   6
ENDBRANCH   4   5
ENDBRANCH   2   4
BRANCH   2  21
HETATM   21  C   UNK N   1      25.823  27.621  -5.696  0.00  0.00     0.004 C 
HETATM   22  C   UNK N   1      26.340  28.600  -4.647  0.00  0.00     0.011 C 
HETATM   23  C   UNK N   1      24.320  27.448  -5.511  0.00  0.00     0.011 C 
ENDBRANCH   2  21
BRANCH   2  24
HETATM   24  C   UNK N   1      26.474  25.572  -7.095  0.00  0.00    -0.030 A 
HETATM   25  C   UNK N   1      25.753  24.387  -7.220  0.00  0.00     0.048 A 
HETATM   26  C   UNK N   1      25.342  23.913  -8.471  0.00  0.00     0.104 A 
HETATM   27  C   UNK N   1      25.645  24.671  -9.641  0.00  0.00     0.135 A 
HETATM   28  C   UNK N   1      26.441  25.847  -9.517  0.00  0.00     0.104 A 
HETATM   29  C   UNK N   1      26.848  26.268  -8.251  0.00  0.00     0.048 A 
BRANCH  26  30
HETATM   30  O   UNK N   1      24.631  22.760  -8.551  0.00  0.00    -0.353 OA
HETATM   31  C   UNK N   1      25.212  21.510  -8.500  0.00  0.00     0.210 C 
ENDBRANCH  26  30
BRANCH  27  32
HETATM   32  O   UNK N   1      25.183  24.313 -10.870  0.00  0.00    -0.351 OA
HETATM   33  C   UNK N   1      25.891  23.591 -11.804  0.00  0.00     0.210 C 
ENDBRANCH  27  32
BRANCH  28  34
HETATM   34  O   UNK N   1      26.775  26.644 -10.567  0.00  0.00    -0.353 OA
HETATM   35  C   UNK N   1      28.056  26.904 -10.998  0.00  0.00     0.210 C 
ENDBRANCH  28  34
ENDBRANCH   2  24
TORSDOF 14
ENDMDL
MODEL 3
REMARK VINA RESULT:      -6.1     11.572     14.478
REMARK  14 active torsions:
REMARK  status: ('A' for Active; 'I' for Inactive)
REMARK    1  A    between atoms: C_13  and  C_9 
REMARK    2  A    between atoms: C_14  and  C_9 
REMARK    3  A    between atoms: C_15  and  C_12 
REMARK    4  A    between atoms: C_21  and  C_12 
REMARK    5  A    between atoms: C_28  and  C_13 
REMARK    6  A    between atoms: N_30  and  C_14 
REMARK    7  A    between atoms: N_30  and  C_15 
REMARK    8  A    between atoms: C_28  and  C_20 
REMARK    9  A    between atoms: C_28  and  C_22 
REMARK   10  A    between atoms: O_31  and  C_23 
REMARK   11  A    between atoms: O_32  and  C_24 
REMARK   12  A    between atoms: O_33  and  C_25 
REMARK   13  A    between atoms: O_34  and  C_26 
REMARK   14  A    between atoms: O_35  and  C_27 
ROOT
HETATM    1  C   UNK N   1      21.659  17.841   6.286  0.00  0.00     0.074 C 
HETATM    2  C   UNK N   1      22.251  16.675   5.593  0.00  0.00     0.079 C 
HETATM    3  N   UNK N   1      21.202  18.769   6.810  0.00  0.00    -0.196 NA
ENDROOT
BRANCH   2   4
HETATM    4  C   UNK N   1      23.745  16.912   5.302  0.00  0.00     0.032 C 
BRANCH   4   5
HETATM    5  C   UNK N   1      24.057  18.288   4.698  0.00  0.00     0.032 C 
BRANCH   5   6
HETATM    6  C   UNK N   1      25.115  18.215   3.587  0.00  0.00     0.272 C 
BRANCH   6   7
HETATM    7  N   UNK N   1      25.385  19.536   3.008  0.00  0.00     0.084 N 
HETATM    8  C   UNK N   1      24.335  20.431   3.460  0.00  0.00     0.309 C 
BRANCH   7   9
HETATM    9  C   UNK N   1      26.667  20.154   3.384  0.00  0.00     0.276 C 
BRANCH   9  10
HETATM   10  C   UNK N   1      26.790  20.674   4.825  0.00  0.00     0.068 C 
BRANCH  10  11
HETATM   11  C   UNK N   1      27.596  19.729   5.655  0.00  0.00    -0.054 A 
HETATM   12  C   UNK N   1      27.563  19.798   7.050  0.00  0.00     0.010 A 
HETATM   13  C   UNK N   1      28.332  18.913   7.807  0.00  0.00     0.040 A 
HETATM   14  C   UNK N   1      29.150  17.952   7.180  0.00  0.00     0.101 A 
HETATM   15  C   UNK N   1      29.189  17.899   5.760  0.00  0.00     0.102 A 
HETATM   16  C   UNK N   1      28.404  18.785   5.025  0.00  0.00     0.046 A 
BRANCH  14  17
HETATM   17  O   UNK N   1      29.882  17.082   7.919  0.00  0.00    -0.353 OA
HETATM   18  C   UNK N   1      31.116  17.384   8.452  0.00  0.00     0.210 C 
ENDBRANCH  14  17
BRANCH  15  19
HETATM   19  O   UNK N   1      29.951  17.022   5.057  0.00  0.00    -0.353 OA
HETATM   20  C   UNK N   1      31.213  17.266   4.574  0.00  0.00     0.210 C 
ENDBRANCH  15  19
ENDBRANCH  10  11
ENDBRANCH   9  10
ENDBRANCH   7   9
ENDBRANCH   6   7
ENDBRANCH   5   6
ENDBRANCH   4   5
ENDBRANCH   2   4
BRANCH   2  21
HETATM   21  C   UNK N   1      22.055  15.412   6.488  0.00  0.00     0.004 C 
HETATM   22  C   UNK N   1      21.217  15.651   7.740  0.00  0.00     0.011 C 
HETATM   23  C   UNK N   1      23.371  14.761   6.892  0.00  0.00     0.011 C 
ENDBRANCH   2  21
BRANCH   2  24
HETATM   24  C   UNK N   1      21.457  16.608   4.299  0.00  0.00    -0.030 A 
HETATM   25  C   UNK N   1      21.118  17.775   3.619  0.00  0.00     0.048 A 
HETATM   26  C   UNK N   1      20.698  17.745   2.284  0.00  0.00     0.104 A 
HETATM   27  C   UNK N   1      20.642  16.496   1.595  0.00  0.00     0.135 A 
HETATM   28  C   UNK N   1      20.924  15.297   2.314  0.00  0.00     0.104 A 
HETATM   29  C   UNK N   1      21.314  15.375   3.650  0.00  0.00     0.048 A 
BRANCH  26  30
HETATM   30  O   UNK N   1      20.388  18.905   1.652  0.00  0.00    -0.353 OA
HETATM   31  C   UNK N   1      20.395  20.132   2.282  0.00  0.00     0.210 C 
ENDBRANCH  26  30
BRANCH  27  32
HETATM   32  O   UNK N   1      20.343  16.417   0.271  0.00  0.00    -0.351 OA
HETATM   33  C   UNK N   1      19.077  16.258  -0.248  0.00  0.00     0.210 C 
ENDBRANCH  27  32
BRANCH  28  34
HETATM   34  O   UNK N   1      20.909  14.060   1.748  0.00  0.00    -0.353 OA
HETATM   35  C   UNK N   1      21.942  13.495   1.035  0.00  0.00     0.210 C 
ENDBRANCH  28  34
ENDBRANCH   2  24
TORSDOF 14
ENDMDL
MODEL 4
REMARK VINA RESULT:      -6.1      0.825      2.320
REMARK  14 active torsions:
REMARK  status: ('A' for Active; 'I' for Inactive)
REMARK    1  A    between atoms: C_13  and  C_9 
REMARK    2  A    between atoms: C_14  and  C_9 
REMARK    3  A    between atoms: C_15  and  C_12 
REMARK    4  A    between atoms: C_21  and  C_12 
REMARK    5  A    between atoms: C_28  and  C_13 
REMARK    6  A    between atoms: N_30  and  C_14 
REMARK    7  A    between atoms: N_30  and  C_15 
REMARK    8  A    between atoms: C_28  and  C_20 
REMARK    9  A    between atoms: C_28  and  C_22 
REMARK   10  A    between atoms: O_31  and  C_23 
REMARK   11  A    between atoms: O_32  and  C_24 
REMARK   12  A    between atoms: O_33  and  C_25 
REMARK   13  A    between atoms: O_34  and  C_26 
REMARK   14  A    between atoms: O_35  and  C_27 
ROOT
HETATM    1  C   UNK N   1      30.282  23.848  -2.994  0.00  0.00     0.074 C 
HETATM    2  C   UNK N   1      30.073  24.409  -4.348  0.00  0.00     0.079 C 
HETATM    3  N   UNK N   1      30.426  23.394  -1.937  0.00  0.00    -0.196 NA
ENDROOT
BRANCH   2   4
HETATM    4  C   UNK N   1      28.661  25.009  -4.479  0.00  0.00     0.032 C 
BRANCH   4   5
HETATM    5  C   UNK N   1      27.677  24.543  -3.398  0.00  0.00     0.032 C 
BRANCH   5   6
HETATM    6  C   UNK N   1      26.320  24.119  -3.982  0.00  0.00     0.272 C 
BRANCH   6   7
HETATM    7  N   UNK N   1      26.219  24.444  -5.409  0.00  0.00     0.084 N 
HETATM    8  C   UNK N   1      25.770  23.247  -6.097  0.00  0.00     0.309 C 
BRANCH   7   9
HETATM    9  C   UNK N   1      25.276  25.519  -5.760  0.00  0.00     0.276 C 
BRANCH   9  10
HETATM   10  C   UNK N   1      25.826  26.671  -6.616  0.00  0.00     0.068 C 
BRANCH  10  11
HETATM   11  C   UNK N   1      26.312  27.784  -5.746  0.00  0.00    -0.054 A 
HETATM   12  C   UNK N   1      25.700  28.050  -4.519  0.00  0.00     0.010 A 
HETATM   13  C   UNK N   1      26.162  29.101  -3.725  0.00  0.00     0.040 A 
HETATM   14  C   UNK N   1      27.238  29.905  -4.152  0.00  0.00     0.101 A 
HETATM   15  C   UNK N   1      27.845  29.636  -5.409  0.00  0.00     0.102 A 
HETATM   16  C   UNK N   1      27.374  28.574  -6.178  0.00  0.00     0.046 A 
BRANCH  14  17
HETATM   17  O   UNK N   1      27.697  30.914  -3.371  0.00  0.00    -0.353 OA
HETATM   18  C   UNK N   1      28.592  30.733  -2.339  0.00  0.00     0.210 C 
ENDBRANCH  14  17
BRANCH  15  19
HETATM   19  O   UNK N   1      28.878  30.356  -5.918  0.00  0.00    -0.353 OA
HETATM   20  C   UNK N   1      30.207  30.019  -5.835  0.00  0.00     0.210 C 
ENDBRANCH  15  19
ENDBRANCH  10  11
ENDBRANCH   9  10
ENDBRANCH   7   9
ENDBRANCH   6   7
ENDBRANCH   5   6
ENDBRANCH   4   5
ENDBRANCH   2   4
BRANCH   2  21
HETATM   21  C   UNK N   1      31.163  25.493  -4.610  0.00  0.00     0.004 C 
HETATM   22  C   UNK N   1      32.581  24.945  -4.736  0.00  0.00     0.011 C 
HETATM   23  C   UNK N   1      31.155  26.607  -3.570  0.00  0.00     0.011 C 
ENDBRANCH   2  21
BRANCH   2  24
HETATM   24  C   UNK N   1      30.225  23.193  -5.248  0.00  0.00    -0.030 A 
HETATM   25  C   UNK N   1      30.908  22.065  -4.799  0.00  0.00     0.048 A 
HETATM   26  C   UNK N   1      30.780  20.830  -5.445  0.00  0.00     0.104 A 
HETATM   27  C   UNK N   1      29.910  20.716  -6.570  0.00  0.00     0.135 A 
HETATM   28  C   UNK N   1      29.265  21.886  -7.068  0.00  0.00     0.104 A 
HETATM   29  C   UNK N   1      29.443  23.100  -6.406  0.00  0.00     0.048 A 
BRANCH  26  30
HETATM   30  O   UNK N   1      31.453  19.752  -4.971  0.00  0.00    -0.353 OA
HETATM   31  C   UNK N   1      32.797  19.779  -4.658  0.00  0.00     0.210 C 
ENDBRANCH  26  30
BRANCH  27  32
HETATM   32  O   UNK N   1      29.666  19.521  -7.173  0.00  0.00    -0.351 OA
HETATM   33  C   UNK N   1      30.363  19.018  -8.249  0.00  0.00     0.210 C 
ENDBRANCH  27  32
BRANCH  28  34
HETATM   34  O   UNK N   1      28.410  21.882  -8.127  0.00  0.00    -0.353 OA
HETATM   35  C   UNK N   1      28.711  22.313  -9.399  0.00  0.00     0.210 C 
ENDBRANCH  28  34
ENDBRANCH   2  24
TORSDOF 14
ENDMDL
MODEL 5
REMARK VINA RESULT:      -6.0     13.715     16.604
REMARK  14 active torsions:
REMARK  status: ('A' for Active; 'I' for Inactive)
REMARK    1  A    between atoms: C_13  and  C_9 
REMARK    2  A    between atoms: C_14  and  C_9 
REMARK    3  A    between atoms: C_15  and  C_12 
REMARK    4  A    between atoms: C_21  and  C_12 
REMARK    5  A    between atoms: C_28  and  C_13 
REMARK    6  A    between atoms: N_30  and  C_14 
REMARK    7  A    between atoms: N_30  and  C_15 
REMARK    8  A    between atoms: C_28  and  C_20 
REMARK    9  A    between atoms: C_28  and  C_22 
REMARK   10  A    between atoms: O_31  and  C_23 
REMARK   11  A    between atoms: O_32  and  C_24 
REMARK   12  A    between atoms: O_33  and  C_25 
REMARK   13  A    between atoms: O_34  and  C_26 
REMARK   14  A    between atoms: O_35  and  C_27 
ROOT
HETATM    1  C   UNK N   1      21.223  18.833   4.286  0.00  0.00     0.074 C 
HETATM    2  C   UNK N   1      21.881  17.516   4.432  0.00  0.00     0.079 C 
HETATM    3  N   UNK N   1      20.686  19.854   4.165  0.00  0.00    -0.196 NA
ENDROOT
BRANCH   2   4
HETATM    4  C   UNK N   1      21.833  16.731   3.107  0.00  0.00     0.032 C 
BRANCH   4   5
HETATM    5  C   UNK N   1      20.588  17.011   2.256  0.00  0.00     0.032 C 
BRANCH   5   6
HETATM    6  C   UNK N   1      20.461  16.047   1.066  0.00  0.00     0.272 C 
BRANCH   6   7
HETATM    7  N   UNK N   1      19.651  14.871   1.405  0.00  0.00     0.084 N 
HETATM    8  C   UNK N   1      18.726  14.651   0.307  0.00  0.00     0.309 C 
BRANCH   7   9
HETATM    9  C   UNK N   1      20.390  13.614   1.601  0.00  0.00     0.276 C 
BRANCH   9  10
HETATM   10  C   UNK N   1      21.587  13.360   0.670  0.00  0.00     0.068 C 
BRANCH  10  11
HETATM   11  C   UNK N   1      22.872  13.547   1.407  0.00  0.00    -0.054 A 
HETATM   12  C   UNK N   1      23.933  14.246   0.825  0.00  0.00     0.010 A 
HETATM   13  C   UNK N   1      25.130  14.401   1.526  0.00  0.00     0.040 A 
HETATM   14  C   UNK N   1      25.285  13.852   2.815  0.00  0.00     0.101 A 
HETATM   15  C   UNK N   1      24.206  13.130   3.393  0.00  0.00     0.102 A 
HETATM   16  C   UNK N   1      23.016  12.998   2.679  0.00  0.00     0.046 A 
BRANCH  14  17
HETATM   17  O   UNK N   1      26.443  14.020   3.501  0.00  0.00    -0.353 OA
HETATM   18  C   UNK N   1      27.191  15.176   3.464  0.00  0.00     0.210 C 
ENDBRANCH  14  17
BRANCH  15  19
HETATM   19  O   UNK N   1      24.255  12.552   4.621  0.00  0.00    -0.353 OA
HETATM   20  C   UNK N   1      24.590  11.245   4.878  0.00  0.00     0.210 C 
ENDBRANCH  15  19
ENDBRANCH  10  11
ENDBRANCH   9  10
ENDBRANCH   7   9
ENDBRANCH   6   7
ENDBRANCH   5   6
ENDBRANCH   4   5
ENDBRANCH   2   4
BRANCH   2  21
HETATM   21  C   UNK N   1      23.355  17.744   4.888  0.00  0.00     0.004 C 
HETATM   22  C   UNK N   1      24.163  18.659   3.974  0.00  0.00     0.011 C 
HETATM   23  C   UNK N   1      24.123  16.443   5.087  0.00  0.00     0.011 C 
ENDBRANCH   2  21
BRANCH   2  24
HETATM   24  C   UNK N   1      21.037  16.828   5.493  0.00  0.00    -0.030 A 
HETATM   25  C   UNK N   1      20.705  15.482   5.366  0.00  0.00     0.048 A 
HETATM   26  C   UNK N   1      20.235  14.741   6.457  0.00  0.00     0.104 A 
HETATM   27  C   UNK N   1      20.119  15.369   7.732  0.00  0.00     0.135 A 
HETATM   28  C   UNK N   1      20.395  16.764   7.844  0.00  0.00     0.104 A 
HETATM   29  C   UNK N   1      20.837  17.466   6.723  0.00  0.00     0.048 A 
BRANCH  26  30
HETATM   30  O   UNK N   1      19.933  13.428   6.296  0.00  0.00    -0.353 OA
HETATM   31  C   UNK N   1      20.886  12.457   6.066  0.00  0.00     0.210 C 
ENDBRANCH  26  30
BRANCH  27  32
HETATM   32  O   UNK N   1      19.769  14.675   8.848  0.00  0.00    -0.351 OA
HETATM   33  C   UNK N   1      20.649  14.047   9.700  0.00  0.00     0.210 C 
ENDBRANCH  27  32
BRANCH  28  34
HETATM   34  O   UNK N   1      20.326  17.453   9.015  0.00  0.00    -0.353 OA
HETATM   35  C   UNK N   1      19.293  18.280   9.395  0.00  0.00     0.210 C 
ENDBRANCH  28  34
ENDBRANCH   2  24
TORSDOF 14
ENDMDL
MODEL 6
REMARK VINA RESULT:      -6.0     13.982     16.493
REMARK  14 active torsions:
REMARK  status: ('A' for Active; 'I' for Inactive)
REMARK    1  A    between atoms: C_13  and  C_9 
REMARK    2  A    between atoms: C_14  and  C_9 
REMARK    3  A    between atoms: C_15  and  C_12 
REMARK    4  A    between atoms: C_21  and  C_12 
REMARK    5  A    between atoms: C_28  and  C_13 
REMARK    6  A    between atoms: N_30  and  C_14 
REMARK    7  A    between atoms: N_30  and  C_15 
REMARK    8  A    between atoms: C_28  and  C_20 
REMARK    9  A    between atoms: C_28  and  C_22 
REMARK   10  A    between atoms: O_31  and  C_23 
REMARK   11  A    between atoms: O_32  and  C_24 
REMARK   12  A    between atoms: O_33  and  C_25 
REMARK   13  A    between atoms: O_34  and  C_26 
REMARK   14  A    between atoms: O_35  and  C_27 
ROOT
HETATM    1  C   UNK N   1      19.102  16.168   6.455  0.00  0.00     0.074 C 
HETATM    2  C   UNK N   1      20.192  16.627   7.345  0.00  0.00     0.079 C 
HETATM    3  N   UNK N   1      18.265  15.803   5.741  0.00  0.00    -0.196 NA
ENDROOT
BRANCH   2   4
HETATM    4  C   UNK N   1      21.047  17.705   6.653  0.00  0.00     0.032 C 
BRANCH   4   5
HETATM    5  C   UNK N   1      20.956  17.691   5.121  0.00  0.00     0.032 C 
BRANCH   5   6
HETATM    6  C   UNK N   1      21.279  19.059   4.501  0.00  0.00     0.272 C 
BRANCH   6   7
HETATM    7  N   UNK N   1      22.421  18.982   3.584  0.00  0.00     0.084 N 
HETATM    8  C   UNK N   1      22.571  20.288   2.967  0.00  0.00     0.309 C 
BRANCH   7   9
HETATM    9  C   UNK N   1      23.717  18.646   4.195  0.00  0.00     0.276 C 
BRANCH   9  10
HETATM   10  C   UNK N   1      24.866  19.644   3.980  0.00  0.00     0.068 C 
BRANCH  10  11
HETATM   11  C   UNK N   1      25.933  19.445   5.006  0.00  0.00    -0.054 A 
HETATM   12  C   UNK N   1      26.379  20.513   5.788  0.00  0.00     0.010 A 
HETATM   13  C   UNK N   1      27.385  20.309   6.734  0.00  0.00     0.040 A 
HETATM   14  C   UNK N   1      27.963  19.035   6.906  0.00  0.00     0.101 A 
HETATM   15  C   UNK N   1      27.512  17.957   6.095  0.00  0.00     0.102 A 
HETATM   16  C   UNK N   1      26.499  18.183   5.165  0.00  0.00     0.046 A 
BRANCH  14  17
HETATM   17  O   UNK N   1      28.926  18.835   7.838  0.00  0.00    -0.353 OA
HETATM   18  C   UNK N   1      28.667  18.429   9.129  0.00  0.00     0.210 C 
ENDBRANCH  14  17
BRANCH  15  19
HETATM   19  O   UNK N   1      28.009  16.695   6.172  0.00  0.00    -0.353 OA
HETATM   20  C   UNK N   1      29.064  16.205   5.441  0.00  0.00     0.210 C 
ENDBRANCH  15  19
ENDBRANCH  10  11
ENDBRANCH   9  10
ENDBRANCH   7   9
ENDBRANCH   6   7
ENDBRANCH   5   6
ENDBRANCH   4   5
ENDBRANCH   2   4
BRANCH   2  21
HETATM   21  C   UNK N   1      19.561  17.180   8.660  0.00  0.00     0.004 C 
HETATM   22  C   UNK N   1      18.042  17.059   8.730  0.00  0.00     0.011 C 
HETATM   23  C   UNK N   1      19.954  18.624   8.946  0.00  0.00     0.011 C 
ENDBRANCH   2  21
BRANCH   2  24
HETATM   24  C   UNK N   1      21.004  15.362   7.570  0.00  0.00    -0.030 A 
HETATM   25  C   UNK N   1      21.981  14.979   6.654  0.00  0.00     0.048 A 
HETATM   26  C   UNK N   1      22.961  14.037   6.985  0.00  0.00     0.104 A 
HETATM   27  C   UNK N   1      22.978  13.474   8.296  0.00  0.00     0.135 A 
HETATM   28  C   UNK N   1      21.937  13.816   9.209  0.00  0.00     0.104 A 
HETATM   29  C   UNK N   1      20.967  14.742   8.825  0.00  0.00     0.048 A 
BRANCH  26  30
HETATM   30  O   UNK N   1      23.903  13.699   6.068  0.00  0.00    -0.353 OA
HETATM   31  C   UNK N   1      25.029  14.459   5.828  0.00  0.00     0.210 C 
ENDBRANCH  26  30
BRANCH  27  32
HETATM   32  O   UNK N   1      23.966  12.634   8.706  0.00  0.00    -0.351 OA
HETATM   33  C   UNK N   1      23.927  11.261   8.615  0.00  0.00     0.210 C 
ENDBRANCH  27  32
BRANCH  28  34
HETATM   34  O   UNK N   1      21.868  13.345  10.483  0.00  0.00    -0.353 OA
HETATM   35  C   UNK N   1      21.011  12.364  10.927  0.00  0.00     0.210 C 
ENDBRANCH  28  34
ENDBRANCH   2  24
TORSDOF 14
ENDMDL
MODEL 7
REMARK VINA RESULT:      -6.0      2.945      5.214
REMARK  14 active torsions:
REMARK  status: ('A' for Active; 'I' for Inactive)
REMARK    1  A    between atoms: C_13  and  C_9 
REMARK    2  A    between atoms: C_14  and  C_9 
REMARK    3  A    between atoms: C_15  and  C_12 
REMARK    4  A    between atoms: C_21  and  C_12 
REMARK    5  A    between atoms: C_28  and  C_13 
REMARK    6  A    between atoms: N_30  and  C_14 
REMARK    7  A    between atoms: N_30  and  C_15 
REMARK    8  A    between atoms: C_28  and  C_20 
REMARK    9  A    between atoms: C_28  and  C_22 
REMARK   10  A    between atoms: O_31  and  C_23 
REMARK   11  A    between atoms: O_32  and  C_24 
REMARK   12  A    between atoms: O_33  and  C_25 
REMARK   13  A    between atoms: O_34  and  C_26 
REMARK   14  A    between atoms: O_35  and  C_27 
ROOT
HETATM    1  C   UNK N   1      32.624  27.153  -4.809  0.00  0.00     0.074 C 
HETATM    2  C   UNK N   1      31.198  26.798  -4.637  0.00  0.00     0.079 C 
HETATM    3  N   UNK N   1      33.746  27.423  -4.921  0.00  0.00    -0.196 NA
ENDROOT
BRANCH   2   4
HETATM    4  C   UNK N   1      30.612  27.471  -3.382  0.00  0.00     0.032 C 
BRANCH   4   5
HETATM    5  C   UNK N   1      29.801  28.741  -3.671  0.00  0.00     0.032 C 
BRANCH   5   6
HETATM    6  C   UNK N   1      29.190  29.350  -2.400  0.00  0.00     0.272 C 
BRANCH   6   7
HETATM    7  N   UNK N   1      27.732  29.467  -2.500  0.00  0.00     0.084 N 
HETATM    8  C   UNK N   1      27.413  30.882  -2.566  0.00  0.00     0.309 C 
BRANCH   7   9
HETATM    9  C   UNK N   1      27.114  28.833  -3.677  0.00  0.00     0.276 C 
BRANCH   9  10
HETATM   10  C   UNK N   1      25.913  27.910  -3.417  0.00  0.00     0.068 C 
BRANCH  10  11
HETATM   11  C   UNK N   1      26.079  26.617  -4.144  0.00  0.00    -0.054 A 
HETATM   12  C   UNK N   1      26.714  25.532  -3.534  0.00  0.00     0.010 A 
HETATM   13  C   UNK N   1      26.869  24.335  -4.234  0.00  0.00     0.040 A 
HETATM   14  C   UNK N   1      26.401  24.209  -5.558  0.00  0.00     0.101 A 
HETATM   15  C   UNK N   1      25.770  25.323  -6.175  0.00  0.00     0.102 A 
HETATM   16  C   UNK N   1      25.616  26.504  -5.453  0.00  0.00     0.046 A 
BRANCH  14  17
HETATM   17  O   UNK N   1      26.538  23.039  -6.229  0.00  0.00    -0.353 OA
HETATM   18  C   UNK N   1      27.711  22.635  -6.826  0.00  0.00     0.210 C 
ENDBRANCH  14  17
BRANCH  15  19
HETATM   19  O   UNK N   1      25.295  25.312  -7.448  0.00  0.00    -0.353 OA
HETATM   20  C   UNK N   1      25.951  25.798  -8.552  0.00  0.00     0.210 C 
ENDBRANCH  15  19
ENDBRANCH  10  11
ENDBRANCH   9  10
ENDBRANCH   7   9
ENDBRANCH   6   7
ENDBRANCH   5   6
ENDBRANCH   4   5
ENDBRANCH   2   4
BRANCH   2  21
HETATM   21  C   UNK N   1      30.419  27.236  -5.916  0.00  0.00     0.004 C 
HETATM   22  C   UNK N   1      29.294  26.290  -6.324  0.00  0.00     0.011 C 
HETATM   23  C   UNK N   1      31.329  27.467  -7.116  0.00  0.00     0.011 C 
ENDBRANCH   2  21
BRANCH   2  24
HETATM   24  C   UNK N   1      31.241  25.288  -4.465  0.00  0.00    -0.030 A 
HETATM   25  C   UNK N   1      32.107  24.515  -5.235  0.00  0.00     0.048 A 
HETATM   26  C   UNK N   1      32.420  23.198  -4.879  0.00  0.00     0.104 A 
HETATM   27  C   UNK N   1      31.863  22.643  -3.689  0.00  0.00     0.135 A 
HETATM   28  C   UNK N   1      30.924  23.412  -2.941  0.00  0.00     0.104 A 
HETATM   29  C   UNK N   1      30.624  24.711  -3.348  0.00  0.00     0.048 A 
BRANCH  26  30
HETATM   30  O   UNK N   1      33.278  22.482  -5.649  0.00  0.00    -0.353 OA
HETATM   31  C   UNK N   1      32.869  21.715  -6.721  0.00  0.00     0.210 C 
ENDBRANCH  26  30
BRANCH  27  32
HETATM   32  O   UNK N   1      32.212  21.407  -3.239  0.00  0.00    -0.351 OA
HETATM   33  C   UNK N   1      33.379  21.107  -2.574  0.00  0.00     0.210 C 
ENDBRANCH  27  32
BRANCH  28  34
HETATM   34  O   UNK N   1      30.345  22.978  -1.789  0.00  0.00    -0.353 OA
HETATM   35  C   UNK N   1      28.992  22.949  -1.536  0.00  0.00     0.210 C 
ENDBRANCH  28  34
ENDBRANCH   2  24
TORSDOF 14
ENDMDL
MODEL 8
REMARK VINA RESULT:      -6.0     12.888     16.001
REMARK  14 active torsions:
REMARK  status: ('A' for Active; 'I' for Inactive)
REMARK    1  A    between atoms: C_13  and  C_9 
REMARK    2  A    between atoms: C_14  and  C_9 
REMARK    3  A    between atoms: C_15  and  C_12 
REMARK    4  A    between atoms: C_21  and  C_12 
REMARK    5  A    between atoms: C_28  and  C_13 
REMARK    6  A    between atoms: N_30  and  C_14 
REMARK    7  A    between atoms: N_30  and  C_15 
REMARK    8  A    between atoms: C_28  and  C_20 
REMARK    9  A    between atoms: C_28  and  C_22 
REMARK   10  A    between atoms: O_31  and  C_23 
REMARK   11  A    between atoms: O_32  and  C_24 
REMARK   12  A    between atoms: O_33  and  C_25 
REMARK   13  A    between atoms: O_34  and  C_26 
REMARK   14  A    between atoms: O_35  and  C_27 
ROOT
HETATM    1  C   UNK N   1      32.539  15.319   7.303  0.00  0.00     0.074 C 
HETATM    2  C   UNK N   1      33.784  16.113   7.408  0.00  0.00     0.079 C 
HETATM    3  N   UNK N   1      31.576  14.682   7.205  0.00  0.00    -0.196 NA
ENDROOT
BRANCH   2   4
HETATM    4  C   UNK N   1      34.236  16.608   6.021  0.00  0.00     0.032 C 
BRANCH   4   5
HETATM    5  C   UNK N   1      33.085  16.860   5.038  0.00  0.00     0.032 C 
BRANCH   5   6
HETATM    6  C   UNK N   1      33.202  16.006   3.766  0.00  0.00     0.272 C 
BRANCH   6   7
HETATM    7  N   UNK N   1      31.889  15.746   3.165  0.00  0.00     0.084 N 
HETATM    8  C   UNK N   1      31.456  14.436   3.619  0.00  0.00     0.309 C 
BRANCH   7   9
HETATM    9  C   UNK N   1      30.820  16.696   3.514  0.00  0.00     0.276 C 
BRANCH   9  10
HETATM   10  C   UNK N   1      29.689  16.168   4.411  0.00  0.00     0.068 C 
BRANCH  10  11
HETATM   11  C   UNK N   1      28.995  17.298   5.098  0.00  0.00    -0.054 A 
HETATM   12  C   UNK N   1      28.298  18.260   4.363  0.00  0.00     0.010 A 
HETATM   13  C   UNK N   1      27.666  19.315   5.023  0.00  0.00     0.040 A 
HETATM   14  C   UNK N   1      27.729  19.426   6.427  0.00  0.00     0.101 A 
HETATM   15  C   UNK N   1      28.453  18.451   7.165  0.00  0.00     0.102 A 
HETATM   16  C   UNK N   1      29.067  17.401   6.485  0.00  0.00     0.046 A 
BRANCH  14  17
HETATM   17  O   UNK N   1      27.099  20.442   7.067  0.00  0.00    -0.353 OA
HETATM   18  C   UNK N   1      26.625  21.568   6.430  0.00  0.00     0.210 C 
ENDBRANCH  14  17
BRANCH  15  19
HETATM   19  O   UNK N   1      28.586  18.472   8.517  0.00  0.00    -0.353 OA
HETATM   20  C   UNK N   1      28.222  17.462   9.373  0.00  0.00     0.210 C 
ENDBRANCH  15  19
ENDBRANCH  10  11
ENDBRANCH   9  10
ENDBRANCH   7   9
ENDBRANCH   6   7
ENDBRANCH   5   6
ENDBRANCH   4   5
ENDBRANCH   2   4
BRANCH   2  21
HETATM   21  C   UNK N   1      33.528  17.315   8.369  0.00  0.00     0.004 C 
HETATM   22  C   UNK N   1      32.121  17.899   8.287  0.00  0.00     0.011 C 
HETATM   23  C   UNK N   1      34.540  18.441   8.194  0.00  0.00     0.011 C 
ENDBRANCH   2  21
BRANCH   2  24
HETATM   24  C   UNK N   1      34.781  15.113   7.971  0.00  0.00    -0.030 A 
HETATM   25  C   UNK N   1      35.775  14.575   7.158  0.00  0.00     0.048 A 
HETATM   26  C   UNK N   1      36.893  13.933   7.702  0.00  0.00     0.104 A 
HETATM   27  C   UNK N   1      37.032  13.850   9.119  0.00  0.00     0.135 A 
HETATM   28  C   UNK N   1      35.980  14.340   9.947  0.00  0.00     0.104 A 
HETATM   29  C   UNK N   1      34.873  14.950   9.358  0.00  0.00     0.048 A 
BRANCH  26  30
HETATM   30  O   UNK N   1      37.847  13.432   6.876  0.00  0.00    -0.353 OA
HETATM   31  C   UNK N   1      38.012  13.851   5.572  0.00  0.00     0.210 C 
ENDBRANCH  26  30
BRANCH  27  32
HETATM   32  O   UNK N   1      38.145  13.331   9.705  0.00  0.00    -0.351 OA
HETATM   33  C   UNK N   1      38.329  12.004  10.021  0.00  0.00     0.210 C 
ENDBRANCH  27  32
BRANCH  28  34
HETATM   34  O   UNK N   1      36.020  14.318  11.307  0.00  0.00    -0.353 OA
HETATM   35  C   UNK N   1      35.149  13.629  12.121  0.00  0.00     0.210 C 
ENDBRANCH  28  34
ENDBRANCH   2  24
TORSDOF 14
ENDMDL
MODEL 9
REMARK VINA RESULT:      -6.0     14.963     19.242
REMARK  14 active torsions:
REMARK  status: ('A' for Active; 'I' for Inactive)
REMARK    1  A    between atoms: C_13  and  C_9 
REMARK    2  A    between atoms: C_14  and  C_9 
REMARK    3  A    between atoms: C_15  and  C_12 
REMARK    4  A    between atoms: C_21  and  C_12 
REMARK    5  A    between atoms: C_28  and  C_13 
REMARK    6  A    between atoms: N_30  and  C_14 
REMARK    7  A    between atoms: N_30  and  C_15 
REMARK    8  A    between atoms: C_28  and  C_20 
REMARK    9  A    between atoms: C_28  and  C_22 
REMARK   10  A    between atoms: O_31  and  C_23 
REMARK   11  A    between atoms: O_32  and  C_24 
REMARK   12  A    between atoms: O_33  and  C_25 
REMARK   13  A    between atoms: O_34  and  C_26 
REMARK   14  A    between atoms: O_35  and  C_27 
ROOT
HETATM    1  C   UNK N   1      33.768  17.050   6.922  0.00  0.00     0.074 C 
HETATM    2  C   UNK N   1      33.079  15.875   7.501  0.00  0.00     0.079 C 
HETATM    3  N   UNK N   1      34.300  17.964   6.446  0.00  0.00    -0.196 NA
ENDROOT
BRANCH   2   4
HETATM    4  C   UNK N   1      33.608  14.569   6.878  0.00  0.00     0.032 C 
BRANCH   4   5
HETATM    5  C   UNK N   1      34.967  14.711   6.180  0.00  0.00     0.032 C 
BRANCH   5   6
HETATM    6  C   UNK N   1      36.124  14.169   7.034  0.00  0.00     0.272 C 
BRANCH   6   7
HETATM    7  N   UNK N   1      35.981  12.733   7.293  0.00  0.00     0.084 N 
HETATM    8  C   UNK N   1      37.034  12.052   6.562  0.00  0.00     0.309 C 
BRANCH   7   9
HETATM    9  C   UNK N   1      36.098  12.317   8.700  0.00  0.00     0.276 C 
BRANCH   9  10
HETATM   10  C   UNK N   1      36.863  13.261   9.641  0.00  0.00     0.068 C 
BRANCH  10  11
HETATM   11  C   UNK N   1      36.263  13.237  11.009  0.00  0.00    -0.054 A 
HETATM   12  C   UNK N   1      36.480  14.288  11.902  0.00  0.00     0.010 A 
HETATM   13  C   UNK N   1      35.920  14.242  13.179  0.00  0.00     0.040 A 
HETATM   14  C   UNK N   1      35.141  13.139  13.583  0.00  0.00     0.101 A 
HETATM   15  C   UNK N   1      34.937  12.067  12.673  0.00  0.00     0.102 A 
HETATM   16  C   UNK N   1      35.498  12.141  11.399  0.00  0.00     0.046 A 
BRANCH  14  17
HETATM   17  O   UNK N   1      34.583  13.105  14.819  0.00  0.00    -0.353 OA
HETATM   18  C   UNK N   1      35.305  12.927  15.978  0.00  0.00     0.210 C 
ENDBRANCH  14  17
BRANCH  15  19
HETATM   19  O   UNK N   1      34.215  10.954  12.965  0.00  0.00    -0.353 OA
HETATM   20  C   UNK N   1      33.779  10.021  12.056  0.00  0.00     0.210 C 
ENDBRANCH  15  19
ENDBRANCH  10  11
ENDBRANCH   9  10
ENDBRANCH   7   9
ENDBRANCH   6   7
ENDBRANCH   5   6
ENDBRANCH   4   5
ENDBRANCH   2   4
BRANCH   2  21
HETATM   21  C   UNK N   1      33.299  15.881   9.045  0.00  0.00     0.004 C 
HETATM   22  C   UNK N   1      34.633  16.472   9.490  0.00  0.00     0.011 C 
HETATM   23  C   UNK N   1      33.137  14.502   9.673  0.00  0.00     0.011 C 
ENDBRANCH   2  21
BRANCH   2  24
HETATM   24  C   UNK N   1      31.627  16.105   7.113  0.00  0.00    -0.030 A 
HETATM   25  C   UNK N   1      30.839  17.000   7.832  0.00  0.00     0.048 A 
HETATM   26  C   UNK N   1      29.634  17.488   7.315  0.00  0.00     0.104 A 
HETATM   27  C   UNK N   1      29.214  17.081   6.014  0.00  0.00     0.135 A 
HETATM   28  C   UNK N   1      29.988  16.111   5.309  0.00  0.00     0.104 A 
HETATM   29  C   UNK N   1      31.170  15.636   5.876  0.00  0.00     0.048 A 
BRANCH  26  30
HETATM   30  O   UNK N   1      28.900  18.369   8.041  0.00  0.00    -0.353 OA
HETATM   31  C   UNK N   1      28.359  18.065   9.273  0.00  0.00     0.210 C 
ENDBRANCH  26  30
BRANCH  27  32
HETATM   32  O   UNK N   1      28.107  17.600   5.418  0.00  0.00    -0.351 OA
HETATM   33  C   UNK N   1      28.045  18.824   4.792  0.00  0.00     0.210 C 
ENDBRANCH  27  32
BRANCH  28  34
HETATM   34  O   UNK N   1      29.680  15.666   4.061  0.00  0.00    -0.353 OA
HETATM   35  C   UNK N   1      30.113  16.230   2.882  0.00  0.00     0.210 C 
ENDBRANCH  28  34
ENDBRANCH   2  24
TORSDOF 14
ENDMDL
