MODEL 1
REMARK VINA RESULT:      -6.4      0.000      0.000
REMARK  3 active torsions:
REMARK  status: ('A' for Active; 'I' for Inactive)
REMARK    1  A    between atoms: C_8  and  N_11 
REMARK    2  A    between atoms: C_12  and  C_17 
REMARK    3  A    between atoms: C_17  and  N_18 
ROOT
HETATM    1  C   UNK N   1      27.784  19.180   4.210  0.00  0.00     0.050 A 
HETATM    2  C   UNK N   1      26.980  20.322   4.179  0.00  0.00     0.119 A 
HETATM    3  C   UNK N   1      26.552  20.908   5.372  0.00  0.00     0.085 A 
HETATM    4  C   UNK N   1      26.943  20.369   6.601  0.00  0.00     0.126 A 
HETATM    5  C   UNK N   1      27.769  19.235   6.641  0.00  0.00    -0.013 A 
HETATM    6  C   UNK N   1      28.174  18.630   5.434  0.00  0.00    -0.044 A 
HETATM    7  C   UNK N   1      29.017  17.400   5.452  0.00  0.00     0.065 C 
HETATM    8  C   UNK N   1      30.028  17.481   6.584  0.00  0.00     0.097 C 
HETATM    9  C   UNK N   1      29.223  17.523   7.891  0.00  0.00     0.031 C 
HETATM   10  C   UNK N   1      28.242  18.703   7.973  0.00  0.00     0.044 C 
HETATM   11  F   UNK N   1      26.529  20.959   7.750  0.00  0.00    -0.205 F 
HETATM   12  F   UNK N   1      26.619  20.862   2.990  0.00  0.00    -0.206 F 
ENDROOT
BRANCH   8  13
HETATM   13  N   UNK N   1      31.021  16.379   6.487  0.00  0.00    -0.320 N 
HETATM   14  C   UNK N   1      32.273  16.435   7.001  0.00  0.00     0.047 A 
HETATM   15  C   UNK N   1      32.927  15.245   6.760  0.00  0.00     0.117 A 
HETATM   16  N   UNK N   1      32.086  14.431   6.093  0.00  0.00    -0.341 N 
HETATM   17  C   UNK N   1      30.945  15.131   5.940  0.00  0.00     0.178 A 
HETATM   18  H   UNK N   1      32.266  13.515   5.782  0.00  0.00     0.167 HD
HETATM   19  S   UNK N   1      29.793  14.566   5.292  0.00  0.00    -0.040 SA
BRANCH  14  20
HETATM   20  C   UNK N   1      32.875  17.591   7.734  0.00  0.00     0.170 C 
BRANCH  20  21
HETATM   21  N   UNK N   1      33.189  17.207   9.101  0.00  0.00    -0.425 N 
HETATM   22  H   UNK N   1      33.776  17.430   9.905  0.00  0.00     0.150 HD
HETATM   23  H   UNK N   1      32.600  16.413   9.349  0.00  0.00     0.150 HD
ENDBRANCH  20  21
ENDBRANCH  14  20
ENDBRANCH   8  13
TORSDOF 3
ENDMDL
MODEL 2
REMARK VINA RESULT:      -6.3     11.889     14.476
REMARK  3 active torsions:
REMARK  status: ('A' for Active; 'I' for Inactive)
REMARK    1  A    between atoms: C_8  and  N_11 
REMARK    2  A    between atoms: C_12  and  C_17 
REMARK    3  A    between atoms: C_17  and  N_18 
ROOT
HETATM    1  C   UNK N   1      30.558  23.471  -4.686  0.00  0.00     0.050 A 
HETATM    2  C   UNK N   1      31.216  22.926  -3.581  0.00  0.00     0.119 A 
HETATM    3  C   UNK N   1      30.542  22.786  -2.365  0.00  0.00     0.085 A 
HETATM    4  C   UNK N   1      29.203  23.168  -2.255  0.00  0.00     0.126 A 
HETATM    5  C   UNK N   1      28.527  23.695  -3.366  0.00  0.00    -0.013 A 
HETATM    6  C   UNK N   1      29.221  23.861  -4.583  0.00  0.00    -0.044 A 
HETATM    7  C   UNK N   1      28.536  24.457  -5.766  0.00  0.00     0.065 C 
HETATM    8  C   UNK N   1      27.093  23.980  -5.826  0.00  0.00     0.097 C 
HETATM    9  C   UNK N   1      26.402  24.509  -4.562  0.00  0.00     0.031 C 
HETATM   10  C   UNK N   1      27.061  24.038  -3.255  0.00  0.00     0.044 C 
HETATM   11  F   UNK N   1      28.560  23.013  -1.070  0.00  0.00    -0.205 F 
HETATM   12  F   UNK N   1      32.508  22.532  -3.689  0.00  0.00    -0.206 F 
ENDROOT
BRANCH   8  13
HETATM   13  N   UNK N   1      26.457  24.376  -7.110  0.00  0.00    -0.320 N 
HETATM   14  C   UNK N   1      25.820  23.517  -7.940  0.00  0.00     0.047 A 
HETATM   15  C   UNK N   1      25.324  24.205  -9.027  0.00  0.00     0.117 A 
HETATM   16  N   UNK N   1      25.647  25.505  -8.884  0.00  0.00    -0.341 N 
HETATM   17  C   UNK N   1      26.326  25.587  -7.724  0.00  0.00     0.178 A 
HETATM   18  H   UNK N   1      25.431  26.243  -9.499  0.00  0.00     0.167 HD
HETATM   19  S   UNK N   1      26.811  26.843  -7.219  0.00  0.00    -0.040 SA
BRANCH  14  20
HETATM   20  C   UNK N   1      25.652  22.046  -7.730  0.00  0.00     0.170 C 
BRANCH  20  21
HETATM   21  N   UNK N   1      24.398  21.780  -7.044  0.00  0.00    -0.425 N 
HETATM   22  H   UNK N   1      23.733  22.155  -6.367  0.00  0.00     0.150 HD
HETATM   23  H   UNK N   1      24.050  20.875  -7.361  0.00  0.00     0.150 HD
ENDBRANCH  20  21
ENDBRANCH  14  20
ENDBRANCH   8  13
TORSDOF 3
ENDMDL
MODEL 3
REMARK VINA RESULT:      -6.3     14.484     16.673
REMARK  3 active torsions:
REMARK  status: ('A' for Active; 'I' for Inactive)
REMARK    1  A    between atoms: C_8  and  N_11 
REMARK    2  A    between atoms: C_12  and  C_17 
REMARK    3  A    between atoms: C_17  and  N_18 
ROOT
HETATM    1  C   UNK N   1      35.345  13.014  19.130  0.00  0.00     0.050 A 
HETATM    2  C   UNK N   1      35.280  13.892  18.045  0.00  0.00     0.119 A 
HETATM    3  C   UNK N   1      35.149  13.392  16.748  0.00  0.00     0.085 A 
HETATM    4  C   UNK N   1      35.059  12.014  16.530  0.00  0.00     0.126 A 
HETATM    5  C   UNK N   1      35.100  11.126  17.616  0.00  0.00    -0.013 A 
HETATM    6  C   UNK N   1      35.263  11.635  18.921  0.00  0.00    -0.044 A 
HETATM    7  C   UNK N   1      35.351  10.709  20.086  0.00  0.00     0.065 C 
HETATM    8  C   UNK N   1      34.403   9.536  19.890  0.00  0.00     0.097 C 
HETATM    9  C   UNK N   1      34.890   8.780  18.646  0.00  0.00     0.031 C 
HETATM   10  C   UNK N   1      34.931   9.645  17.376  0.00  0.00     0.044 C 
HETATM   11  F   UNK N   1      34.918  11.546  15.265  0.00  0.00    -0.205 F 
HETATM   12  F   UNK N   1      35.343  15.229  18.254  0.00  0.00    -0.206 F 
ENDROOT
BRANCH   8  13
HETATM   13  N   UNK N   1      34.307   8.720  21.129  0.00  0.00    -0.320 N 
HETATM   14  C   UNK N   1      33.396   8.931  22.110  0.00  0.00     0.047 A 
HETATM   15  C   UNK N   1      33.560   7.991  23.104  0.00  0.00     0.117 A 
HETATM   16  N   UNK N   1      34.576   7.179  22.752  0.00  0.00    -0.341 N 
HETATM   17  C   UNK N   1      35.010   7.634  21.561  0.00  0.00     0.178 A 
HETATM   18  H   UNK N   1      34.928   6.412  23.259  0.00  0.00     0.167 HD
HETATM   19  S   UNK N   1      36.080   6.989  20.849  0.00  0.00    -0.040 SA
BRANCH  14  20
HETATM   20  C   UNK N   1      32.354  10.004  22.131  0.00  0.00     0.170 C 
BRANCH  20  21
HETATM   21  N   UNK N   1      32.875  11.194  22.782  0.00  0.00    -0.425 N 
HETATM   22  H   UNK N   1      32.788  12.209  22.834  0.00  0.00     0.150 HD
HETATM   23  H   UNK N   1      33.605  10.905  23.432  0.00  0.00     0.150 HD
ENDBRANCH  20  21
ENDBRANCH  14  20
ENDBRANCH   8  13
TORSDOF 3
ENDMDL
MODEL 4
REMARK VINA RESULT:      -6.3      4.344      7.310
REMARK  3 active torsions:
REMARK  status: ('A' for Active; 'I' for Inactive)
REMARK    1  A    between atoms: C_8  and  N_11 
REMARK    2  A    between atoms: C_12  and  C_17 
REMARK    3  A    between atoms: C_17  and  N_18 
ROOT
HETATM    1  C   UNK N   1      33.466  13.982   9.237  0.00  0.00     0.050 A 
HETATM    2  C   UNK N   1      34.435  13.679  10.197  0.00  0.00     0.119 A 
HETATM    3  C   UNK N   1      35.296  14.677  10.660  0.00  0.00     0.085 A 
HETATM    4  C   UNK N   1      35.179  15.985  10.182  0.00  0.00     0.126 A 
HETATM    5  C   UNK N   1      34.194  16.302   9.234  0.00  0.00    -0.013 A 
HETATM    6  C   UNK N   1      33.346  15.285   8.749  0.00  0.00    -0.044 A 
HETATM    7  C   UNK N   1      32.319  15.590   7.711  0.00  0.00     0.065 C 
HETATM    8  C   UNK N   1      31.715  16.961   7.966  0.00  0.00     0.097 C 
HETATM    9  C   UNK N   1      32.854  17.979   7.818  0.00  0.00     0.031 C 
HETATM   10  C   UNK N   1      34.030  17.733   8.778  0.00  0.00     0.044 C 
HETATM   11  F   UNK N   1      36.014  16.944  10.652  0.00  0.00    -0.205 F 
HETATM   12  F   UNK N   1      34.537  12.418  10.680  0.00  0.00    -0.206 F 
ENDROOT
BRANCH   8  13
HETATM   13  N   UNK N   1      30.539  17.194   7.086  0.00  0.00    -0.320 N 
HETATM   14  C   UNK N   1      29.286  17.435   7.538  0.00  0.00     0.047 A 
HETATM   15  C   UNK N   1      28.437  17.629   6.470  0.00  0.00     0.117 A 
HETATM   16  N   UNK N   1      29.155  17.514   5.336  0.00  0.00    -0.341 N 
HETATM   17  C   UNK N   1      30.417  17.254   5.728  0.00  0.00     0.178 A 
HETATM   18  H   UNK N   1      28.827  17.601   4.412  0.00  0.00     0.167 HD
HETATM   19  S   UNK N   1      31.486  17.096   4.780  0.00  0.00    -0.040 SA
BRANCH  14  20
HETATM   20  C   UNK N   1      28.861  17.499   8.971  0.00  0.00     0.170 C 
BRANCH  20  21
HETATM   21  N   UNK N   1      27.743  18.415   9.120  0.00  0.00    -0.425 N 
HETATM   22  H   UNK N   1      26.812  18.520   9.524  0.00  0.00     0.150 HD
HETATM   23  H   UNK N   1      27.977  19.282   8.637  0.00  0.00     0.150 HD
ENDBRANCH  20  21
ENDBRANCH  14  20
ENDBRANCH   8  13
TORSDOF 3
ENDMDL
MODEL 5
REMARK VINA RESULT:      -6.3      2.238      3.114
REMARK  3 active torsions:
REMARK  status: ('A' for Active; 'I' for Inactive)
REMARK    1  A    between atoms: C_8  and  N_11 
REMARK    2  A    between atoms: C_12  and  C_17 
REMARK    3  A    between atoms: C_17  and  N_18 
ROOT
HETATM    1  C   UNK N   1      27.545  19.717   4.013  0.00  0.00     0.050 A 
HETATM    2  C   UNK N   1      26.367  20.135   3.389  0.00  0.00     0.119 A 
HETATM    3  C   UNK N   1      25.217  19.347   3.469  0.00  0.00     0.085 A 
HETATM    4  C   UNK N   1      25.232  18.150   4.192  0.00  0.00     0.126 A 
HETATM    5  C   UNK N   1      26.405  17.735   4.841  0.00  0.00    -0.013 A 
HETATM    6  C   UNK N   1      27.571  18.520   4.732  0.00  0.00    -0.044 A 
HETATM    7  C   UNK N   1      28.840  18.078   5.379  0.00  0.00     0.065 C 
HETATM    8  C   UNK N   1      28.541  17.427   6.720  0.00  0.00     0.097 C 
HETATM    9  C   UNK N   1      27.700  16.178   6.424  0.00  0.00     0.031 C 
HETATM   10  C   UNK N   1      26.390  16.478   5.677  0.00  0.00     0.044 C 
HETATM   11  F   UNK N   1      24.102  17.404   4.271  0.00  0.00    -0.205 F 
HETATM   12  F   UNK N   1      26.341  21.305   2.707  0.00  0.00    -0.206 F 
ENDROOT
BRANCH   8  13
HETATM   13  N   UNK N   1      29.794  17.182   7.481  0.00  0.00    -0.320 N 
HETATM   14  C   UNK N   1      30.795  16.374   7.059  0.00  0.00     0.047 A 
HETATM   15  C   UNK N   1      31.819  16.383   7.982  0.00  0.00     0.117 A 
HETATM   16  N   UNK N   1      31.467  17.202   8.992  0.00  0.00    -0.341 N 
HETATM   17  C   UNK N   1      30.246  17.674   8.671  0.00  0.00     0.178 A 
HETATM   18  H   UNK N   1      31.991  17.413   9.798  0.00  0.00     0.167 HD
HETATM   19  S   UNK N   1      29.555  18.615   9.509  0.00  0.00    -0.040 SA
BRANCH  14  20
HETATM   20  C   UNK N   1      30.819  15.590   5.785  0.00  0.00     0.170 C 
BRANCH  20  21
HETATM   21  N   UNK N   1      31.092  14.190   6.066  0.00  0.00    -0.425 N 
HETATM   22  H   UNK N   1      31.122  13.258   5.653  0.00  0.00     0.150 HD
HETATM   23  H   UNK N   1      31.353  14.110   7.048  0.00  0.00     0.150 HD
ENDBRANCH  20  21
ENDBRANCH  14  20
ENDBRANCH   8  13
TORSDOF 3
ENDMDL
MODEL 6
REMARK VINA RESULT:      -6.2      4.861      6.632
REMARK  3 active torsions:
REMARK  status: ('A' for Active; 'I' for Inactive)
REMARK    1  A    between atoms: C_8  and  N_11 
REMARK    2  A    between atoms: C_12  and  C_17 
REMARK    3  A    between atoms: C_17  and  N_18 
ROOT
HETATM    1  C   UNK N   1      21.510  17.922   4.095  0.00  0.00     0.050 A 
HETATM    2  C   UNK N   1      20.258  18.107   3.504  0.00  0.00     0.119 A 
HETATM    3  C   UNK N   1      20.027  19.218   2.689  0.00  0.00     0.085 A 
HETATM    4  C   UNK N   1      21.052  20.136   2.444  0.00  0.00     0.126 A 
HETATM    5  C   UNK N   1      22.319  19.945   3.016  0.00  0.00    -0.013 A 
HETATM    6  C   UNK N   1      22.538  18.838   3.861  0.00  0.00    -0.044 A 
HETATM    7  C   UNK N   1      23.864  18.637   4.513  0.00  0.00     0.065 C 
HETATM    8  C   UNK N   1      24.978  19.038   3.559  0.00  0.00     0.097 C 
HETATM    9  C   UNK N   1      24.806  20.539   3.288  0.00  0.00     0.031 C 
HETATM   10  C   UNK N   1      23.439  20.905   2.688  0.00  0.00     0.044 C 
HETATM   11  F   UNK N   1      20.815  21.202   1.640  0.00  0.00    -0.205 F 
HETATM   12  F   UNK N   1      19.269  17.207   3.719  0.00  0.00    -0.206 F 
ENDROOT
BRANCH   8  13
HETATM   13  N   UNK N   1      26.305  18.639   4.097  0.00  0.00    -0.320 N 
HETATM   14  C   UNK N   1      27.022  19.377   4.978  0.00  0.00     0.047 A 
HETATM   15  C   UNK N   1      28.191  18.718   5.292  0.00  0.00     0.117 A 
HETATM   16  N   UNK N   1      28.215  17.557   4.610  0.00  0.00    -0.341 N 
HETATM   17  C   UNK N   1      27.071  17.528   3.898  0.00  0.00     0.178 A 
HETATM   18  H   UNK N   1      28.921  16.871   4.627  0.00  0.00     0.167 HD
HETATM   19  S   UNK N   1      26.729  16.410   3.062  0.00  0.00    -0.040 SA
BRANCH  14  20
HETATM   20  C   UNK N   1      26.624  20.701   5.550  0.00  0.00     0.170 C 
BRANCH  20  21
HETATM   21  N   UNK N   1      26.311  20.561   6.962  0.00  0.00    -0.425 N 
HETATM   22  H   UNK N   1      25.708  20.905   7.710  0.00  0.00     0.150 HD
HETATM   23  H   UNK N   1      26.927  19.850   7.354  0.00  0.00     0.150 HD
ENDBRANCH  20  21
ENDBRANCH  14  20
ENDBRANCH   8  13
TORSDOF 3
ENDMDL
MODEL 7
REMARK VINA RESULT:      -6.2     12.065     13.253
REMARK  3 active torsions:
REMARK  status: ('A' for Active; 'I' for Inactive)
REMARK    1  A    between atoms: C_8  and  N_11 
REMARK    2  A    between atoms: C_12  and  C_17 
REMARK    3  A    between atoms: C_17  and  N_18 
ROOT
HETATM    1  C   UNK N   1      37.094  14.627  15.415  0.00  0.00     0.050 A 
HETATM    2  C   UNK N   1      37.138  15.628  16.387  0.00  0.00     0.119 A 
HETATM    3  C   UNK N   1      36.428  15.475  17.580  0.00  0.00     0.085 A 
HETATM    4  C   UNK N   1      35.690  14.312  17.816  0.00  0.00     0.126 A 
HETATM    5  C   UNK N   1      35.659  13.291  16.853  0.00  0.00    -0.013 A 
HETATM    6  C   UNK N   1      36.354  13.464  15.639  0.00  0.00    -0.044 A 
HETATM    7  C   UNK N   1      36.302  12.411  14.583  0.00  0.00     0.065 C 
HETATM    8  C   UNK N   1      36.317  11.032  15.225  0.00  0.00     0.097 C 
HETATM    9  C   UNK N   1      35.037  10.925  16.066  0.00  0.00     0.031 C 
HETATM   10  C   UNK N   1      34.916  12.010  17.148  0.00  0.00     0.044 C 
HETATM   11  F   UNK N   1      35.017  14.174  18.985  0.00  0.00    -0.205 F 
HETATM   12  F   UNK N   1      37.872  16.747  16.174  0.00  0.00    -0.206 F 
ENDROOT
BRANCH   8  13
HETATM   13  N   UNK N   1      36.492   9.972  14.198  0.00  0.00    -0.320 N 
HETATM   14  C   UNK N   1      35.541   9.620  13.299  0.00  0.00     0.047 A 
HETATM   15  C   UNK N   1      36.027   8.626  12.477  0.00  0.00     0.117 A 
HETATM   16  N   UNK N   1      37.291   8.349  12.853  0.00  0.00    -0.341 N 
HETATM   17  C   UNK N   1      37.551   9.171  13.888  0.00  0.00     0.178 A 
HETATM   18  H   UNK N   1      37.898   7.684  12.455  0.00  0.00     0.167 HD
HETATM   19  S   UNK N   1      38.833   9.183  14.540  0.00  0.00    -0.040 SA
BRANCH  14  20
HETATM   20  C   UNK N   1      34.172  10.210  13.185  0.00  0.00     0.170 C 
BRANCH  20  21
HETATM   21  N   UNK N   1      34.100  11.085  12.027  0.00  0.00    -0.425 N 
HETATM   22  H   UNK N   1      34.242  11.128  11.017  0.00  0.00     0.150 HD
HETATM   23  H   UNK N   1      33.791  12.003  12.343  0.00  0.00     0.150 HD
ENDBRANCH  20  21
ENDBRANCH  14  20
ENDBRANCH   8  13
TORSDOF 3
ENDMDL
MODEL 8
REMARK VINA RESULT:      -6.2      3.551      5.464
REMARK  3 active torsions:
REMARK  status: ('A' for Active; 'I' for Inactive)
REMARK    1  A    between atoms: C_8  and  N_11 
REMARK    2  A    between atoms: C_12  and  C_17 
REMARK    3  A    between atoms: C_17  and  N_18 
ROOT
HETATM    1  C   UNK N   1      30.286  16.794   7.366  0.00  0.00     0.050 A 
HETATM    2  C   UNK N   1      29.567  17.209   6.242  0.00  0.00     0.119 A 
HETATM    3  C   UNK N   1      30.244  17.563   5.073  0.00  0.00     0.085 A 
HETATM    4  C   UNK N   1      31.638  17.484   5.014  0.00  0.00     0.126 A 
HETATM    5  C   UNK N   1      32.365  17.048   6.132  0.00  0.00    -0.013 A 
HETATM    6  C   UNK N   1      31.680  16.719   7.319  0.00  0.00    -0.044 A 
HETATM    7  C   UNK N   1      32.434  16.292   8.533  0.00  0.00     0.065 C 
HETATM    8  C   UNK N   1      33.619  15.428   8.131  0.00  0.00     0.097 C 
HETATM    9  C   UNK N   1      34.543  16.316   7.285  0.00  0.00     0.031 C 
HETATM   10  C   UNK N   1      33.865  16.899   6.035  0.00  0.00     0.044 C 
HETATM   11  F   UNK N   1      32.278  17.820   3.866  0.00  0.00    -0.205 F 
HETATM   12  F   UNK N   1      28.215  17.264   6.286  0.00  0.00    -0.206 F 
ENDROOT
BRANCH   8  13
HETATM   13  N   UNK N   1      34.252  14.809   9.324  0.00  0.00    -0.320 N 
HETATM   14  C   UNK N   1      34.235  13.481   9.592  0.00  0.00     0.047 A 
HETATM   15  C   UNK N   1      34.929  13.234  10.757  0.00  0.00     0.117 A 
HETATM   16  N   UNK N   1      35.391  14.409  11.228  0.00  0.00    -0.341 N 
HETATM   17  C   UNK N   1      34.974  15.343  10.351  0.00  0.00     0.178 A 
HETATM   18  H   UNK N   1      35.922  14.556  12.044  0.00  0.00     0.167 HD
HETATM   19  S   UNK N   1      35.308  16.732  10.511  0.00  0.00    -0.040 SA
BRANCH  14  20
HETATM   20  C   UNK N   1      33.582  12.422   8.763  0.00  0.00     0.170 C 
BRANCH  20  21
HETATM   21  N   UNK N   1      32.353  11.976   9.399  0.00  0.00    -0.425 N 
HETATM   22  H   UNK N   1      31.371  11.757   9.231  0.00  0.00     0.150 HD
HETATM   23  H   UNK N   1      32.547  11.825  10.389  0.00  0.00     0.150 HD
ENDBRANCH  20  21
ENDBRANCH  14  20
ENDBRANCH   8  13
TORSDOF 3
ENDMDL
MODEL 9
REMARK VINA RESULT:      -6.2      3.707      6.272
REMARK  3 active torsions:
REMARK  status: ('A' for Active; 'I' for Inactive)
REMARK    1  A    between atoms: C_8  and  N_11 
REMARK    2  A    between atoms: C_12  and  C_17 
REMARK    3  A    between atoms: C_17  and  N_18 
ROOT
HETATM    1  C   UNK N   1      31.448  17.506   7.808  0.00  0.00     0.050 A 
HETATM    2  C   UNK N   1      32.842  17.539   7.888  0.00  0.00     0.119 A 
HETATM    3  C   UNK N   1      33.613  17.341   6.740  0.00  0.00     0.085 A 
HETATM    4  C   UNK N   1      32.994  17.132   5.504  0.00  0.00     0.126 A 
HETATM    5  C   UNK N   1      31.594  17.120   5.411  0.00  0.00    -0.013 A 
HETATM    6  C   UNK N   1      30.822  17.291   6.578  0.00  0.00    -0.044 A 
HETATM    7  C   UNK N   1      29.332  17.241   6.511  0.00  0.00     0.065 C 
HETATM    8  C   UNK N   1      28.848  17.902   5.230  0.00  0.00     0.097 C 
HETATM    9  C   UNK N   1      29.403  17.069   4.067  0.00  0.00     0.031 C 
HETATM   10  C   UNK N   1      30.937  16.964   4.060  0.00  0.00     0.044 C 
HETATM   11  F   UNK N   1      33.758  16.955   4.397  0.00  0.00    -0.205 F 
HETATM   12  F   UNK N   1      33.446  17.765   9.079  0.00  0.00    -0.206 F 
ENDROOT
BRANCH   8  13
HETATM   13  N   UNK N   1      27.370  18.065   5.245  0.00  0.00    -0.320 N 
HETATM   14  C   UNK N   1      26.735  19.255   5.126  0.00  0.00     0.047 A 
HETATM   15  C   UNK N   1      25.371  19.057   5.154  0.00  0.00     0.117 A 
HETATM   16  N   UNK N   1      25.141  17.736   5.288  0.00  0.00    -0.341 N 
HETATM   17  C   UNK N   1      26.356  17.157   5.339  0.00  0.00     0.178 A 
HETATM   18  H   UNK N   1      24.266  17.286   5.338  0.00  0.00     0.167 HD
HETATM   19  S   UNK N   1      26.511  15.732   5.450  0.00  0.00    -0.040 SA
BRANCH  14  20
HETATM   20  C   UNK N   1      27.386  20.593   4.973  0.00  0.00     0.170 C 
BRANCH  20  21
HETATM   21  N   UNK N   1      27.189  21.384   6.176  0.00  0.00    -0.425 N 
HETATM   22  H   UNK N   1      27.022  22.329   6.522  0.00  0.00     0.150 HD
HETATM   23  H   UNK N   1      27.236  20.757   6.979  0.00  0.00     0.150 HD
ENDBRANCH  20  21
ENDBRANCH  14  20
ENDBRANCH   8  13
TORSDOF 3
ENDMDL
