MODEL 1
REMARK VINA RESULT:      -6.6      0.000      0.000
REMARK  5 active torsions:
REMARK  status: ('A' for Active; 'I' for Inactive)
REMARK    1  A    between atoms: N_4  and  O_24 
REMARK    2  A    between atoms: C_5  and  C_6 
REMARK    3  A    between atoms: C_6  and  O_7 
REMARK    4  A    between atoms: O_7  and  C_8 
REMARK       I    between atoms: C_8  and  N_9 
REMARK       I    between atoms: C_15  and  N_16 
REMARK    5  A    between atoms: C_21  and  O_23 
ROOT
HETATM    1  N   UNK N   1      35.019  17.423  10.253  0.00  0.00    -0.233 N 
ATOM      2  HN  UNK N   1      34.616  18.180   9.700  1.00  0.00     0.174 HD
HETATM    3  C   UNK N   1      34.930  16.221   9.804  0.00  0.00     0.698 C 
HETATM    4  N   UNK N   1      36.025  15.335   9.980  0.00  0.00    -0.082 N 
HETATM    5  C   UNK N   1      36.005  13.981   9.472  0.00  0.00     0.185 C 
HETATM    6  C   UNK N   1      34.987  13.754   8.313  0.00  0.00     0.183 C 
HETATM    7  C   UNK N   1      33.626  14.526   8.470  0.00  0.00     0.217 C 
HETATM    8  N   UNK N   1      32.805  13.577   9.199  0.00  0.00    -0.191 N 
ATOM      9  HN  UNK N   1      31.962  13.810   9.724  1.00  0.00     0.180 HD
HETATM   10  C   UNK N   1      33.299  12.411   9.085  0.00  0.00     0.670 C 
HETATM   11  N   UNK N   1      32.703  11.265   9.653  0.00  0.00    -0.235 N 
HETATM   12  N   UNK N   1      34.529  12.388   8.421  0.00  0.00    -0.215 N 
HETATM   13  N   UNK N   1      33.735  15.801   9.140  0.00  0.00    -0.181 N 
HETATM   14  C   UNK N   1      32.920  16.816   8.546  0.00  0.00     0.150 C 
HETATM   15  C   UNK N   1      32.634  16.317   7.148  0.00  0.00     0.093 C 
HETATM   16  C   UNK N   1      32.944  14.846   7.113  0.00  0.00     0.209 C 
HETATM   17  O   UNK N   1      33.779  14.589   6.086  0.00  0.00    -0.362 OA
HETATM   18  H   UNK N   1      35.457  17.647  11.105  0.00  0.00     0.174 HD
HETATM   19  H   UNK N   1      31.809  10.895   9.475  0.00  0.00     0.174 HD
HETATM   20  H   UNK N   1      33.249  10.776  10.309  0.00  0.00     0.174 HD
HETATM   21  H   UNK N   1      34.997  11.587   8.089  0.00  0.00     0.178 HD
HETATM   22  H   UNK N   1      34.369  14.543   5.359  0.00  0.00     0.213 HD
ENDROOT
BRANCH  16  23
HETATM   23  O   UNK N   1      31.781  14.173   6.971  0.00  0.00    -0.362 OA
HETATM   24  H   UNK N   1      31.451  13.471   7.499  0.00  0.00     0.213 HD
ENDBRANCH  16  23
BRANCH   5  25
HETATM   25  C   UNK N   1      35.912  12.987  10.640  0.00  0.00     0.211 C 
BRANCH  25  26
HETATM   26  O   UNK N   1      35.083  13.455  11.632  0.00  0.00    -0.302 OA
BRANCH  26  27
HETATM   27  C   UNK N   1      35.496  13.570  12.917  0.00  0.00     0.358 C 
HETATM   28  N   UNK N   1      36.745  14.001  13.177  0.00  0.00    -0.346 N 
HETATM   29  H   UNK N   1      37.209  13.713  13.997  0.00  0.00     0.161 HD
HETATM   30  H   UNK N   1      37.197  14.605  12.546  0.00  0.00     0.161 HD
HETATM   31  O   UNK N   1      34.751  13.283  13.843  0.00  0.00    -0.239 OA
ENDBRANCH  26  27
ENDBRANCH  25  26
ENDBRANCH   5  25
BRANCH   4  32
HETATM   32  O   UNK N   1      37.090  15.745  10.686  0.00  0.00    -0.273 OA
HETATM   33  H   UNK N   1      37.937  15.275  10.632  0.00  0.00     0.245 HD
ENDBRANCH   4  32
TORSDOF 5
ENDMDL
MODEL 2
REMARK VINA RESULT:      -6.3      3.770      6.039
REMARK  5 active torsions:
REMARK  status: ('A' for Active; 'I' for Inactive)
REMARK    1  A    between atoms: N_4  and  O_24 
REMARK    2  A    between atoms: C_5  and  C_6 
REMARK    3  A    between atoms: C_6  and  O_7 
REMARK    4  A    between atoms: O_7  and  C_8 
REMARK       I    between atoms: C_8  and  N_9 
REMARK       I    between atoms: C_15  and  N_16 
REMARK    5  A    between atoms: C_21  and  O_23 
ROOT
HETATM    1  N   UNK N   1      29.696  15.186   5.275  0.00  0.00    -0.233 N 
ATOM      2  HN  UNK N   1      28.717  15.454   5.376  1.00  0.00     0.174 HD
HETATM    3  C   UNK N   1      30.507  15.451   6.239  0.00  0.00     0.698 C 
HETATM    4  N   UNK N   1      31.518  14.511   6.569  0.00  0.00    -0.082 N 
HETATM    5  C   UNK N   1      32.441  14.730   7.661  0.00  0.00     0.185 C 
HETATM    6  C   UNK N   1      31.931  15.746   8.729  0.00  0.00     0.183 C 
HETATM    7  C   UNK N   1      31.138  16.973   8.146  0.00  0.00     0.217 C 
HETATM    8  N   UNK N   1      32.189  17.947   7.915  0.00  0.00    -0.191 N 
ATOM      9  HN  UNK N   1      32.116  18.756   7.296  1.00  0.00     0.180 HD
HETATM   10  C   UNK N   1      33.215  17.639   8.600  0.00  0.00     0.670 C 
HETATM   11  N   UNK N   1      34.391  18.418   8.616  0.00  0.00    -0.235 N 
HETATM   12  N   UNK N   1      33.096  16.413   9.261  0.00  0.00    -0.215 N 
HETATM   13  N   UNK N   1      30.374  16.682   6.955  0.00  0.00    -0.181 N 
HETATM   14  C   UNK N   1      29.092  17.316   6.945  0.00  0.00     0.150 C 
HETATM   15  C   UNK N   1      28.809  17.645   8.393  0.00  0.00     0.093 C 
HETATM   16  C   UNK N   1      30.109  17.567   9.144  0.00  0.00     0.209 C 
HETATM   17  O   UNK N   1      29.961  16.760  10.214  0.00  0.00    -0.362 OA
HETATM   18  H   UNK N   1      29.977  14.737   4.446  0.00  0.00     0.174 HD
HETATM   19  H   UNK N   1      34.494  19.355   8.899  0.00  0.00     0.174 HD
HETATM   20  H   UNK N   1      35.210  17.969   8.305  0.00  0.00     0.174 HD
HETATM   21  H   UNK N   1      33.697  16.068   9.961  0.00  0.00     0.178 HD
HETATM   22  H   UNK N   1      29.738  16.168  10.907  0.00  0.00     0.213 HD
ENDROOT
BRANCH  16  23
HETATM   23  O   UNK N   1      30.453  18.818   9.525  0.00  0.00    -0.362 OA
HETATM   24  H   UNK N   1      31.001  19.430   9.074  0.00  0.00     0.213 HD
ENDBRANCH  16  23
BRANCH   5  25
HETATM   25  C   UNK N   1      33.848  15.003   7.107  0.00  0.00     0.211 C 
BRANCH  25  26
HETATM   26  O   UNK N   1      33.826  15.181   5.743  0.00  0.00    -0.302 OA
BRANCH  26  27
HETATM   27  C   UNK N   1      33.814  16.413   5.181  0.00  0.00     0.358 C 
HETATM   28  N   UNK N   1      33.197  16.598   3.999  0.00  0.00    -0.346 N 
HETATM   29  H   UNK N   1      33.503  17.303   3.383  0.00  0.00     0.161 HD
HETATM   30  H   UNK N   1      32.436  16.026   3.748  0.00  0.00     0.161 HD
HETATM   31  O   UNK N   1      34.363  17.358   5.730  0.00  0.00    -0.239 OA
ENDBRANCH  26  27
ENDBRANCH  25  26
ENDBRANCH   5  25
BRANCH   4  32
HETATM   32  O   UNK N   1      31.660  13.412   5.814  0.00  0.00    -0.273 OA
HETATM   33  H   UNK N   1      30.887  12.916   5.502  0.00  0.00     0.245 HD
ENDBRANCH   4  32
TORSDOF 5
ENDMDL
MODEL 3
REMARK VINA RESULT:      -6.2      2.337      4.678
REMARK  5 active torsions:
REMARK  status: ('A' for Active; 'I' for Inactive)
REMARK    1  A    between atoms: N_4  and  O_24 
REMARK    2  A    between atoms: C_5  and  C_6 
REMARK    3  A    between atoms: C_6  and  O_7 
REMARK    4  A    between atoms: O_7  and  C_8 
REMARK       I    between atoms: C_8  and  N_9 
REMARK       I    between atoms: C_15  and  N_16 
REMARK    5  A    between atoms: C_21  and  O_23 
ROOT
HETATM    1  N   UNK N   1      38.312  14.056  10.282  0.00  0.00    -0.233 N 
ATOM      2  HN  UNK N   1      38.787  13.220  10.624  1.00  0.00     0.174 HD
HETATM    3  C   UNK N   1      37.028  14.038  10.192  0.00  0.00     0.698 C 
HETATM    4  N   UNK N   1      36.297  15.208  10.529  0.00  0.00    -0.082 N 
HETATM    5  C   UNK N   1      34.852  15.248  10.482  0.00  0.00     0.185 C 
HETATM    6  C   UNK N   1      34.176  13.845  10.565  0.00  0.00     0.183 C 
HETATM    7  C   UNK N   1      34.929  12.703   9.789  0.00  0.00     0.217 C 
HETATM    8  N   UNK N   1      34.329  12.768   8.469  0.00  0.00    -0.191 N 
ATOM      9  HN  UNK N   1      34.737  12.381   7.618  1.00  0.00     0.180 HD
HETATM   10  C   UNK N   1      33.218  13.383   8.536  0.00  0.00     0.670 C 
HETATM   11  N   UNK N   1      32.378  13.574   7.419  0.00  0.00    -0.235 N 
HETATM   12  N   UNK N   1      32.955  13.924   9.796  0.00  0.00    -0.215 N 
HETATM   13  N   UNK N   1      36.366  12.848   9.758  0.00  0.00    -0.181 N 
HETATM   14  C   UNK N   1      37.057  11.608   9.934  0.00  0.00     0.150 C 
HETATM   15  C   UNK N   1      36.047  10.689  10.584  0.00  0.00     0.093 C 
HETATM   16  C   UNK N   1      34.684  11.292  10.387  0.00  0.00     0.209 C 
HETATM   17  O   UNK N   1      34.057  11.381  11.578  0.00  0.00    -0.362 OA
HETATM   18  H   UNK N   1      38.857  14.837  10.035  0.00  0.00     0.174 HD
HETATM   19  H   UNK N   1      31.955  12.887   6.853  0.00  0.00     0.174 HD
HETATM   20  H   UNK N   1      32.191  14.508   7.174  0.00  0.00     0.174 HD
HETATM   21  H   UNK N   1      32.095  14.293  10.105  0.00  0.00     0.178 HD
HETATM   22  H   UNK N   1      33.739  11.406  12.460  0.00  0.00     0.213 HD
ENDROOT
BRANCH  16  23
HETATM   23  O   UNK N   1      33.993  10.505   9.533  0.00  0.00    -0.362 OA
HETATM   24  H   UNK N   1      33.104  10.217   9.603  0.00  0.00     0.213 HD
ENDBRANCH  16  23
BRANCH   5  25
HETATM   25  C   UNK N   1      34.392  16.137   9.317  0.00  0.00     0.211 C 
BRANCH  25  26
HETATM   26  O   UNK N   1      34.864  17.422   9.449  0.00  0.00    -0.302 OA
BRANCH  26  27
HETATM   27  C   UNK N   1      34.744  18.336   8.457  0.00  0.00     0.358 C 
HETATM   28  N   UNK N   1      33.957  18.068   7.397  0.00  0.00    -0.346 N 
HETATM   29  H   UNK N   1      34.155  18.465   6.518  0.00  0.00     0.161 HD
HETATM   30  H   UNK N   1      33.182  17.471   7.502  0.00  0.00     0.161 HD
HETATM   31  O   UNK N   1      35.345  19.401   8.508  0.00  0.00    -0.239 OA
ENDBRANCH  26  27
ENDBRANCH  25  26
ENDBRANCH   5  25
BRANCH   4  32
HETATM   32  O   UNK N   1      36.965  16.327  10.847  0.00  0.00    -0.273 OA
HETATM   33  H   UNK N   1      37.310  16.916  10.158  0.00  0.00     0.245 HD
ENDBRANCH   4  32
TORSDOF 5
ENDMDL
MODEL 4
REMARK VINA RESULT:      -6.1     18.001     20.116
REMARK  5 active torsions:
REMARK  status: ('A' for Active; 'I' for Inactive)
REMARK    1  A    between atoms: N_4  and  O_24 
REMARK    2  A    between atoms: C_5  and  C_6 
REMARK    3  A    between atoms: C_6  and  O_7 
REMARK    4  A    between atoms: O_7  and  C_8 
REMARK       I    between atoms: C_8  and  N_9 
REMARK       I    between atoms: C_15  and  N_16 
REMARK    5  A    between atoms: C_21  and  O_23 
ROOT
HETATM    1  N   UNK N   1      29.771  22.206  -5.834  0.00  0.00    -0.233 N 
ATOM      2  HN  UNK N   1      29.761  21.348  -6.386  1.00  0.00     0.174 HD
HETATM    3  C   UNK N   1      28.672  22.862  -5.701  0.00  0.00     0.698 C 
HETATM    4  N   UNK N   1      28.380  23.472  -4.452  0.00  0.00    -0.082 N 
HETATM    5  C   UNK N   1      27.149  24.196  -4.224  0.00  0.00     0.185 C 
HETATM    6  C   UNK N   1      25.997  23.816  -5.204  0.00  0.00     0.183 C 
HETATM    7  C   UNK N   1      26.454  23.543  -6.684  0.00  0.00     0.217 C 
HETATM    8  N   UNK N   1      26.358  24.857  -7.292  0.00  0.00    -0.191 N 
ATOM      9  HN  UNK N   1      26.824  25.142  -8.153  1.00  0.00     0.180 HD
HETATM   10  C   UNK N   1      25.604  25.599  -6.586  0.00  0.00     0.670 C 
HETATM   11  N   UNK N   1      25.284  26.927  -6.940  0.00  0.00    -0.235 N 
HETATM   12  N   UNK N   1      25.197  25.004  -5.389  0.00  0.00    -0.215 N 
HETATM   13  N   UNK N   1      27.772  22.965  -6.807  0.00  0.00    -0.181 N 
HETATM   14  C   UNK N   1      27.845  21.951  -7.813  0.00  0.00     0.150 C 
HETATM   15  C   UNK N   1      26.415  21.511  -8.027  0.00  0.00     0.093 C 
HETATM   16  C   UNK N   1      25.517  22.565  -7.443  0.00  0.00     0.209 C 
HETATM   17  O   UNK N   1      24.641  21.988  -6.595  0.00  0.00    -0.362 OA
HETATM   18  H   UNK N   1      30.621  22.493  -5.429  0.00  0.00     0.174 HD
HETATM   19  H   UNK N   1      24.825  27.246  -7.750  0.00  0.00     0.174 HD
HETATM   20  H   UNK N   1      25.554  27.621  -6.296  0.00  0.00     0.174 HD
HETATM   21  H   UNK N   1      24.494  25.334  -4.783  0.00  0.00     0.178 HD
HETATM   22  H   UNK N   1      24.105  21.475  -6.022  0.00  0.00     0.213 HD
ENDROOT
BRANCH  16  23
HETATM   23  O   UNK N   1      24.873  23.182  -8.458  0.00  0.00    -0.362 OA
HETATM   24  H   UNK N   1      23.949  23.247  -8.603  0.00  0.00     0.213 HD
ENDBRANCH  16  23
BRANCH   5  25
HETATM   25  C   UNK N   1      27.444  25.700  -4.100  0.00  0.00     0.211 C 
BRANCH  25  26
HETATM   26  O   UNK N   1      26.600  26.304  -3.198  0.00  0.00    -0.302 OA
BRANCH  26  27
HETATM   27  C   UNK N   1      26.219  27.597  -3.328  0.00  0.00     0.358 C 
HETATM   28  N   UNK N   1      26.874  28.555  -2.645  0.00  0.00    -0.346 N 
HETATM   29  H   UNK N   1      26.409  29.382  -2.380  0.00  0.00     0.161 HD
HETATM   30  H   UNK N   1      27.821  28.429  -2.411  0.00  0.00     0.161 HD
HETATM   31  O   UNK N   1      25.282  27.905  -4.053  0.00  0.00    -0.239 OA
ENDBRANCH  26  27
ENDBRANCH  25  26
ENDBRANCH   5  25
BRANCH   4  32
HETATM   32  O   UNK N   1      29.293  23.424  -3.472  0.00  0.00    -0.273 OA
HETATM   33  H   UNK N   1      29.628  22.576  -3.141  0.00  0.00     0.245 HD
ENDBRANCH   4  32
TORSDOF 5
ENDMDL
MODEL 5
REMARK VINA RESULT:      -6.1     12.531     14.304
REMARK  5 active torsions:
REMARK  status: ('A' for Active; 'I' for Inactive)
REMARK    1  A    between atoms: N_4  and  O_24 
REMARK    2  A    between atoms: C_5  and  C_6 
REMARK    3  A    between atoms: C_6  and  O_7 
REMARK    4  A    between atoms: O_7  and  C_8 
REMARK       I    between atoms: C_8  and  N_9 
REMARK       I    between atoms: C_15  and  N_16 
REMARK    5  A    between atoms: C_21  and  O_23 
ROOT
HETATM    1  N   UNK N   1      45.680  22.141   4.200  0.00  0.00    -0.233 N 
ATOM      2  HN  UNK N   1      46.124  21.352   4.671  1.00  0.00     0.174 HD
HETATM    3  C   UNK N   1      44.637  21.917   3.480  0.00  0.00     0.698 C 
HETATM    4  N   UNK N   1      43.575  22.859   3.491  0.00  0.00    -0.082 N 
HETATM    5  C   UNK N   1      42.362  22.654   2.731  0.00  0.00     0.185 C 
HETATM    6  C   UNK N   1      42.090  21.164   2.359  0.00  0.00     0.183 C 
HETATM    7  C   UNK N   1      43.371  20.334   1.982  0.00  0.00     0.217 C 
HETATM    8  N   UNK N   1      43.468  20.536   0.548  0.00  0.00    -0.191 N 
ATOM      9  HN  UNK N   1      44.309  20.389  -0.011  1.00  0.00     0.180 HD
HETATM   10  C   UNK N   1      42.346  20.924   0.095  0.00  0.00     0.670 C 
HETATM   11  N   UNK N   1      42.113  21.169  -1.275  0.00  0.00    -0.235 N 
HETATM   12  N   UNK N   1      41.397  21.170   1.091  0.00  0.00    -0.215 N 
HETATM   13  N   UNK N   1      44.570  20.731   2.685  0.00  0.00    -0.181 N 
HETATM   14  C   UNK N   1      45.373  19.618   3.090  0.00  0.00     0.150 C 
HETATM   15  C   UNK N   1      44.434  18.434   3.077  0.00  0.00     0.093 C 
HETATM   16  C   UNK N   1      43.224  18.816   2.270  0.00  0.00     0.209 C 
HETATM   17  O   UNK N   1      42.110  18.572   2.990  0.00  0.00    -0.362 OA
HETATM   18  H   UNK N   1      46.069  23.037   4.319  0.00  0.00     0.174 HD
HETATM   19  H   UNK N   1      42.187  20.535  -2.025  0.00  0.00     0.174 HD
HETATM   20  H   UNK N   1      41.842  22.085  -1.509  0.00  0.00     0.174 HD
HETATM   21  H   UNK N   1      40.433  21.319   0.954  0.00  0.00     0.178 HD
HETATM   22  H   UNK N   1      41.419  18.379   3.594  0.00  0.00     0.213 HD
ENDROOT
BRANCH  16  23
HETATM   23  O   UNK N   1      43.231  18.092   1.129  0.00  0.00    -0.362 OA
HETATM   24  H   UNK N   1      43.802  18.181   0.391  0.00  0.00     0.213 HD
ENDBRANCH  16  23
BRANCH   5  25
HETATM   25  C   UNK N   1      42.305  23.649   1.561  0.00  0.00     0.211 C 
BRANCH  25  26
HETATM   26  O   UNK N   1      41.082  24.275   1.494  0.00  0.00    -0.302 OA
BRANCH  26  27
HETATM   27  C   UNK N   1      40.489  24.567   0.312  0.00  0.00     0.358 C 
HETATM   28  N   UNK N   1      40.077  25.825   0.067  0.00  0.00    -0.346 N 
HETATM   29  H   UNK N   1      39.316  25.990  -0.536  0.00  0.00     0.161 HD
HETATM   30  H   UNK N   1      40.538  26.583   0.492  0.00  0.00     0.161 HD
HETATM   31  O   UNK N   1      40.319  23.700  -0.534  0.00  0.00    -0.239 OA
ENDBRANCH  26  27
ENDBRANCH  25  26
ENDBRANCH   5  25
BRANCH   4  32
HETATM   32  O   UNK N   1      43.720  23.999   4.183  0.00  0.00    -0.273 OA
HETATM   33  H   UNK N   1      43.514  24.857   3.780  0.00  0.00     0.245 HD
ENDBRANCH   4  32
TORSDOF 5
ENDMDL
MODEL 6
REMARK VINA RESULT:      -6.0      2.251      4.244
REMARK  5 active torsions:
REMARK  status: ('A' for Active; 'I' for Inactive)
REMARK    1  A    between atoms: N_4  and  O_24 
REMARK    2  A    between atoms: C_5  and  C_6 
REMARK    3  A    between atoms: C_6  and  O_7 
REMARK    4  A    between atoms: O_7  and  C_8 
REMARK       I    between atoms: C_8  and  N_9 
REMARK       I    between atoms: C_15  and  N_16 
REMARK    5  A    between atoms: C_21  and  O_23 
ROOT
HETATM    1  N   UNK N   1      33.601  12.554   6.671  0.00  0.00    -0.233 N 
ATOM      2  HN  UNK N   1      33.358  12.395   5.693  1.00  0.00     0.174 HD
HETATM    3  C   UNK N   1      33.405  13.724   7.169  0.00  0.00     0.698 C 
HETATM    4  N   UNK N   1      32.935  13.837   8.504  0.00  0.00    -0.082 N 
HETATM    5  C   UNK N   1      32.663  15.119   9.115  0.00  0.00     0.185 C 
HETATM    6  C   UNK N   1      32.410  16.269   8.091  0.00  0.00     0.183 C 
HETATM    7  C   UNK N   1      33.313  16.217   6.805  0.00  0.00     0.217 C 
HETATM    8  N   UNK N   1      34.470  17.001   7.199  0.00  0.00    -0.191 N 
ATOM      9  HN  UNK N   1      35.383  16.970   6.745  1.00  0.00     0.180 HD
HETATM   10  C   UNK N   1      34.170  17.731   8.195  0.00  0.00     0.670 C 
HETATM   11  N   UNK N   1      35.077  18.637   8.784  0.00  0.00    -0.235 N 
HETATM   12  N   UNK N   1      32.891  17.486   8.703  0.00  0.00    -0.215 N 
HETATM   13  N   UNK N   1      33.663  14.883   6.372  0.00  0.00    -0.181 N 
HETATM   14  C   UNK N   1      33.623  14.729   4.951  0.00  0.00     0.150 C 
HETATM   15  C   UNK N   1      32.751  15.863   4.460  0.00  0.00     0.093 C 
HETATM   16  C   UNK N   1      32.652  16.877   5.565  0.00  0.00     0.209 C 
HETATM   17  O   UNK N   1      31.354  17.152   5.807  0.00  0.00    -0.362 OA
HETATM   18  H   UNK N   1      33.975  11.805   7.189  0.00  0.00     0.174 HD
HETATM   19  H   UNK N   1      35.524  19.407   8.365  0.00  0.00     0.174 HD
HETATM   20  H   UNK N   1      35.290  18.479   9.732  0.00  0.00     0.174 HD
HETATM   21  H   UNK N   1      32.407  18.041   9.357  0.00  0.00     0.178 HD
HETATM   22  H   UNK N   1      30.425  17.242   5.891  0.00  0.00     0.213 HD
ENDROOT
BRANCH  16  23
HETATM   23  O   UNK N   1      33.320  17.988   5.180  0.00  0.00    -0.362 OA
HETATM   24  H   UNK N   1      33.176  18.514   4.418  0.00  0.00     0.213 HD
ENDBRANCH  16  23
BRANCH   5  25
HETATM   25  C   UNK N   1      33.713  15.416  10.196  0.00  0.00     0.211 C 
BRANCH  25  26
HETATM   26  O   UNK N   1      34.972  15.039   9.790  0.00  0.00    -0.302 OA
BRANCH  26  27
HETATM   27  C   UNK N   1      36.088  15.457  10.434  0.00  0.00     0.358 C 
HETATM   28  N   UNK N   1      37.027  14.559  10.788  0.00  0.00    -0.346 N 
HETATM   29  H   UNK N   1      37.600  14.722  11.572  0.00  0.00     0.161 HD
HETATM   30  H   UNK N   1      37.142  13.737  10.260  0.00  0.00     0.161 HD
HETATM   31  O   UNK N   1      36.251  16.640  10.702  0.00  0.00    -0.239 OA
ENDBRANCH  26  27
ENDBRANCH  25  26
ENDBRANCH   5  25
BRANCH   4  32
HETATM   32  O   UNK N   1      32.791  12.726   9.242  0.00  0.00    -0.273 OA
HETATM   33  H   UNK N   1      31.931  12.485   9.621  0.00  0.00     0.245 HD
ENDBRANCH   4  32
TORSDOF 5
ENDMDL
MODEL 7
REMARK VINA RESULT:      -6.0     12.604     15.342
REMARK  5 active torsions:
REMARK  status: ('A' for Active; 'I' for Inactive)
REMARK    1  A    between atoms: N_4  and  O_24 
REMARK    2  A    between atoms: C_5  and  C_6 
REMARK    3  A    between atoms: C_6  and  O_7 
REMARK    4  A    between atoms: O_7  and  C_8 
REMARK       I    between atoms: C_8  and  N_9 
REMARK       I    between atoms: C_15  and  N_16 
REMARK    5  A    between atoms: C_21  and  O_23 
ROOT
HETATM    1  N   UNK N   1      24.293  17.794   5.426  0.00  0.00    -0.233 N 
ATOM      2  HN  UNK N   1      24.580  17.471   6.350  1.00  0.00     0.174 HD
HETATM    3  C   UNK N   1      23.081  17.579   5.050  0.00  0.00     0.698 C 
HETATM    4  N   UNK N   1      22.403  18.577   4.300  0.00  0.00    -0.082 N 
HETATM    5  C   UNK N   1      21.031  18.416   3.875  0.00  0.00     0.185 C 
HETATM    6  C   UNK N   1      20.224  17.378   4.715  0.00  0.00     0.183 C 
HETATM    7  C   UNK N   1      21.039  16.105   5.150  0.00  0.00     0.217 C 
HETATM    8  N   UNK N   1      20.810  15.191   4.046  0.00  0.00    -0.191 N 
ATOM      9  HN  UNK N   1      21.385  14.377   3.828  1.00  0.00     0.180 HD
HETATM   10  C   UNK N   1      19.785  15.560   3.392  0.00  0.00     0.670 C 
HETATM   11  N   UNK N   1      19.285  14.849   2.281  0.00  0.00    -0.235 N 
HETATM   12  N   UNK N   1      19.257  16.780   3.823  0.00  0.00    -0.215 N 
HETATM   13  N   UNK N   1      22.442  16.347   5.394  0.00  0.00    -0.181 N 
HETATM   14  C   UNK N   1      22.940  15.642   6.534  0.00  0.00     0.150 C 
HETATM   15  C   UNK N   1      21.713  15.305   7.350  0.00  0.00     0.093 C 
HETATM   16  C   UNK N   1      20.512  15.460   6.459  0.00  0.00     0.209 C 
HETATM   17  O   UNK N   1      19.610  16.263   7.058  0.00  0.00    -0.362 OA
HETATM   18  H   UNK N   1      24.956  18.254   4.863  0.00  0.00     0.174 HD
HETATM   19  H   UNK N   1      18.958  13.920   2.252  0.00  0.00     0.174 HD
HETATM   20  H   UNK N   1      19.259  15.341   1.429  0.00  0.00     0.174 HD
HETATM   21  H   UNK N   1      18.386  17.162   3.566  0.00  0.00     0.178 HD
HETATM   22  H   UNK N   1      19.078  16.845   7.566  0.00  0.00     0.213 HD
ENDROOT
BRANCH  16  23
HETATM   23  O   UNK N   1      19.993  14.232   6.233  0.00  0.00    -0.362 OA
HETATM   24  H   UNK N   1      20.405  13.399   6.350  0.00  0.00     0.213 HD
ENDBRANCH  16  23
BRANCH   5  25
HETATM   25  C   UNK N   1      20.976  18.220   2.351  0.00  0.00     0.211 C 
BRANCH  25  26
HETATM   26  O   UNK N   1      20.245  19.213   1.743  0.00  0.00    -0.302 OA
BRANCH  26  27
HETATM   27  C   UNK N   1      20.809  20.380   1.349  0.00  0.00     0.358 C 
HETATM   28  N   UNK N   1      20.994  21.366   2.248  0.00  0.00    -0.346 N 
HETATM   29  H   UNK N   1      20.993  22.308   1.959  0.00  0.00     0.161 HD
HETATM   30  H   UNK N   1      21.130  21.145   3.197  0.00  0.00     0.161 HD
HETATM   31  O   UNK N   1      21.148  20.551   0.186  0.00  0.00    -0.239 OA
ENDBRANCH  26  27
ENDBRANCH  25  26
ENDBRANCH   5  25
BRANCH   4  32
HETATM   32  O   UNK N   1      23.071  19.679   3.926  0.00  0.00    -0.273 OA
HETATM   33  H   UNK N   1      23.543  20.222   4.576  0.00  0.00     0.245 HD
ENDBRANCH   4  32
TORSDOF 5
ENDMDL
MODEL 8
REMARK VINA RESULT:      -6.0      5.005      7.941
REMARK  5 active torsions:
REMARK  status: ('A' for Active; 'I' for Inactive)
REMARK    1  A    between atoms: N_4  and  O_24 
REMARK    2  A    between atoms: C_5  and  C_6 
REMARK    3  A    between atoms: C_6  and  O_7 
REMARK    4  A    between atoms: O_7  and  C_8 
REMARK       I    between atoms: C_8  and  N_9 
REMARK       I    between atoms: C_15  and  N_16 
REMARK    5  A    between atoms: C_21  and  O_23 
ROOT
HETATM    1  N   UNK N   1      30.064  18.675   9.796  0.00  0.00    -0.233 N 
ATOM      2  HN  UNK N   1      30.921  18.453  10.303  1.00  0.00     0.174 HD
HETATM    3  C   UNK N   1      29.788  18.003   8.734  0.00  0.00     0.698 C 
HETATM    4  N   UNK N   1      28.438  17.646   8.474  0.00  0.00    -0.082 N 
HETATM    5  C   UNK N   1      28.062  16.864   7.317  0.00  0.00     0.185 C 
HETATM    6  C   UNK N   1      29.229  16.026   6.711  0.00  0.00     0.183 C 
HETATM    7  C   UNK N   1      30.629  16.741   6.721  0.00  0.00     0.217 C 
HETATM    8  N   UNK N   1      30.640  17.433   5.445  0.00  0.00    -0.191 N 
ATOM      9  HN  UNK N   1      31.249  18.216   5.206  1.00  0.00     0.180 HD
HETATM   10  C   UNK N   1      29.775  16.914   4.672  0.00  0.00     0.670 C 
HETATM   11  N   UNK N   1      29.575  17.346   3.343  0.00  0.00    -0.235 N 
HETATM   12  N   UNK N   1      28.987  15.940   5.289  0.00  0.00    -0.215 N 
HETATM   13  N   UNK N   1      30.840  17.630   7.840  0.00  0.00    -0.181 N 
HETATM   14  C   UNK N   1      32.163  17.548   8.378  0.00  0.00     0.150 C 
HETATM   15  C   UNK N   1      32.694  16.214   7.903  0.00  0.00     0.093 C 
HETATM   16  C   UNK N   1      31.823  15.750   6.770  0.00  0.00     0.209 C 
HETATM   17  O   UNK N   1      31.392  14.497   7.019  0.00  0.00    -0.362 OA
HETATM   18  H   UNK N   1      29.487  19.394  10.142  0.00  0.00     0.174 HD
HETATM   19  H   UNK N   1      30.223  17.349   2.602  0.00  0.00     0.174 HD
HETATM   20  H   UNK N   1      28.676  17.685   3.131  0.00  0.00     0.174 HD
HETATM   21  H   UNK N   1      28.378  15.310   4.839  0.00  0.00     0.178 HD
HETATM   22  H   UNK N   1      31.147  13.641   7.314  0.00  0.00     0.213 HD
ENDROOT
BRANCH  16  23
HETATM   23  O   UNK N   1      32.551  15.795   5.632  0.00  0.00    -0.362 OA
HETATM   24  H   UNK N   1      32.554  15.182   4.923  0.00  0.00     0.213 HD
ENDBRANCH  16  23
BRANCH   5  25
HETATM   25  C   UNK N   1      27.292  17.745   6.320  0.00  0.00     0.211 C 
BRANCH  25  26
HETATM   26  O   UNK N   1      27.618  19.073   6.468  0.00  0.00    -0.302 OA
BRANCH  26  27
HETATM   27  C   UNK N   1      27.464  19.965   5.460  0.00  0.00     0.358 C 
HETATM   28  N   UNK N   1      26.426  20.823   5.485  0.00  0.00    -0.346 N 
HETATM   29  H   UNK N   1      26.046  21.166   4.644  0.00  0.00     0.161 HD
HETATM   30  H   UNK N   1      26.046  21.108   6.346  0.00  0.00     0.161 HD
HETATM   31  O   UNK N   1      28.253  19.998   4.526  0.00  0.00    -0.239 OA
ENDBRANCH  26  27
ENDBRANCH  25  26
ENDBRANCH   5  25
BRANCH   4  32
HETATM   32  O   UNK N   1      27.475  18.093   9.293  0.00  0.00    -0.273 OA
HETATM   33  H   UNK N   1      26.684  18.533   8.943  0.00  0.00     0.245 HD
ENDBRANCH   4  32
TORSDOF 5
ENDMDL
MODEL 9
REMARK VINA RESULT:      -6.0     12.881     14.583
REMARK  5 active torsions:
REMARK  status: ('A' for Active; 'I' for Inactive)
REMARK    1  A    between atoms: N_4  and  O_24 
REMARK    2  A    between atoms: C_5  and  C_6 
REMARK    3  A    between atoms: C_6  and  O_7 
REMARK    4  A    between atoms: O_7  and  C_8 
REMARK       I    between atoms: C_8  and  N_9 
REMARK       I    between atoms: C_15  and  N_16 
REMARK    5  A    between atoms: C_21  and  O_23 
ROOT
HETATM    1  N   UNK N   1      46.127  19.865   3.448  0.00  0.00    -0.233 N 
ATOM      2  HN  UNK N   1      46.000  18.875   3.659  1.00  0.00     0.174 HD
HETATM    3  C   UNK N   1      45.089  20.569   3.162  0.00  0.00     0.698 C 
HETATM    4  N   UNK N   1      45.006  21.903   3.640  0.00  0.00    -0.082 N 
HETATM    5  C   UNK N   1      43.854  22.739   3.383  0.00  0.00     0.185 C 
HETATM    6  C   UNK N   1      42.557  21.944   3.039  0.00  0.00     0.183 C 
HETATM    7  C   UNK N   1      42.783  20.667   2.149  0.00  0.00     0.217 C 
HETATM    8  N   UNK N   1      42.657  21.195   0.802  0.00  0.00    -0.191 N 
ATOM      9  HN  UNK N   1      43.007  20.741  -0.042  1.00  0.00     0.180 HD
HETATM   10  C   UNK N   1      42.046  22.309   0.836  0.00  0.00     0.670 C 
HETATM   11  N   UNK N   1      41.737  23.052  -0.323  0.00  0.00    -0.235 N 
HETATM   12  N   UNK N   1      41.791  22.767   2.132  0.00  0.00    -0.215 N 
HETATM   13  N   UNK N   1      44.043  19.997   2.371  0.00  0.00    -0.181 N 
HETATM   14  C   UNK N   1      43.926  18.572   2.364  0.00  0.00     0.150 C 
HETATM   15  C   UNK N   1      42.463  18.299   2.625  0.00  0.00     0.093 C 
HETATM   16  C   UNK N   1      41.705  19.572   2.365  0.00  0.00     0.209 C 
HETATM   17  O   UNK N   1      40.937  19.862   3.435  0.00  0.00    -0.362 OA
HETATM   18  H   UNK N   1      47.038  20.236   3.472  0.00  0.00     0.174 HD
HETATM   19  H   UNK N   1      41.180  22.779  -1.088  0.00  0.00     0.174 HD
HETATM   20  H   UNK N   1      42.127  23.954  -0.374  0.00  0.00     0.174 HD
HETATM   21  H   UNK N   1      41.198  23.512   2.381  0.00  0.00     0.178 HD
HETATM   22  H   UNK N   1      40.467  19.964   4.240  0.00  0.00     0.213 HD
ENDROOT
BRANCH  16  23
HETATM   23  O   UNK N   1      40.949  19.395   1.259  0.00  0.00    -0.362 OA
HETATM   24  H   UNK N   1      41.069  18.771   0.570  0.00  0.00     0.213 HD
ENDBRANCH  16  23
BRANCH   5  25
HETATM   25  C   UNK N   1      44.228  23.854   2.394  0.00  0.00     0.211 C 
BRANCH  25  26
HETATM   26  O   UNK N   1      45.129  24.734   2.947  0.00  0.00    -0.302 OA
BRANCH  26  27
HETATM   27  C   UNK N   1      45.825  25.617   2.192  0.00  0.00     0.358 C 
HETATM   28  N   UNK N   1      47.148  25.441   2.013  0.00  0.00    -0.346 N 
HETATM   29  H   UNK N   1      47.736  26.216   1.855  0.00  0.00     0.161 HD
HETATM   30  H   UNK N   1      47.530  24.535   2.040  0.00  0.00     0.161 HD
HETATM   31  O   UNK N   1      45.268  26.576   1.675  0.00  0.00    -0.239 OA
ENDBRANCH  26  27
ENDBRANCH  25  26
ENDBRANCH   5  25
BRANCH   4  32
HETATM   32  O   UNK N   1      46.049  22.426   4.302  0.00  0.00    -0.273 OA
HETATM   33  H   UNK N   1      46.393  22.004   5.105  0.00  0.00     0.245 HD
ENDBRANCH   4  32
TORSDOF 5
ENDMDL
