MODEL 1
REMARK VINA RESULT:      -8.8      0.000      0.000
REMARK  22 active torsions:
REMARK  status: ('A' for Active; 'I' for Inactive)
REMARK    1  A    between atoms: C_2  and  C_67 
REMARK    2  A    between atoms: C_4  and  N_25 
REMARK    3  A    between atoms: C_5  and  O_19 
REMARK    4  A    between atoms: C_6  and  N_7 
REMARK       I    between atoms: N_7  and  C_8 
REMARK    5  A    between atoms: C_8  and  C_10 
REMARK    6  A    between atoms: C_10  and  C_11 
REMARK    7  A    between atoms: C_11  and  C_12 
REMARK    8  A    between atoms: C_12  and  C_13 
REMARK    9  A    between atoms: C_13  and  N_14 
REMARK       I    between atoms: N_14  and  C_15 
REMARK       I    between atoms: C_15  and  N_18 
REMARK   10  A    between atoms: C_20  and  O_19 
REMARK       I    between atoms: N_25  and  C_26 
REMARK   11  A    between atoms: C_26  and  C_28 
REMARK   12  A    between atoms: C_30  and  C_36 
REMARK       I    between atoms: C_36  and  N_38 
REMARK   13  A    between atoms: N_38  and  C_39 
REMARK   14  A    between atoms: C_41  and  C_63 
REMARK   15  A    between atoms: C_43  and  N_51 
REMARK   16  A    between atoms: C_44  and  O_45 
REMARK   17  A    between atoms: C_46  and  O_45 
REMARK       I    between atoms: N_51  and  C_52 
REMARK   18  A    between atoms: C_52  and  C_54 
REMARK   19  A    between atoms: C_54  and  C_55 
REMARK   20  A    between atoms: C_55  and  C_56 
REMARK   21  A    between atoms: C_56  and  C_57 
REMARK   22  A    between atoms: C_57  and  N_58 
REMARK       I    between atoms: N_58  and  C_59 
REMARK       I    between atoms: C_59  and  N_62 
ROOT
HETATM    1  C   UNK N   1      27.797  17.954   4.102  0.00  0.00     0.104 C 
HETATM    2  C   UNK N   1      26.709  17.113   4.209  0.00  0.00     0.070 C 
HETATM    3  C   UNK N   1      25.548  17.585   4.760  0.00  0.00     0.104 C 
HETATM    4  N   UNK N   1      25.497  18.866   5.219  0.00  0.00    -0.348 N 
ATOM      5  HN  UNK N   1      24.667  19.189   5.716  1.00  0.00     0.167 HD
HETATM    6  C   UNK N   1      26.537  19.719   5.022  0.00  0.00     0.181 C 
HETATM    7  N   UNK N   1      27.703  19.246   4.510  0.00  0.00    -0.348 N 
ATOM      8  HN  UNK N   1      28.511  19.863   4.431  1.00  0.00     0.167 HD
ENDROOT
BRANCH   1   9
HETATM    9  C   UNK N   1      29.089  17.326   3.848  0.00  0.00     0.272 C 
HETATM   10  N   UNK N   1      30.149  17.613   4.633  0.00  0.00    -0.319 N 
HETATM   11  H   UNK N   1      30.824  18.231   4.269  0.00  0.00     0.169 HD
HETATM   12  O   UNK N   1      29.278  16.795   2.762  0.00  0.00    -0.266 OA
BRANCH  10  13
HETATM   13  C   UNK N   1      30.374  17.099   5.943  0.00  0.00     0.071 A 
HETATM   14  C   UNK N   1      29.614  17.637   6.983  0.00  0.00     0.048 A 
HETATM   15  C   UNK N   1      29.962  17.416   8.319  0.00  0.00     0.052 A 
HETATM   16  C   UNK N   1      31.149  16.737   8.611  0.00  0.00     0.048 A 
HETATM   17  C   UNK N   1      31.911  16.178   7.577  0.00  0.00     0.071 A 
HETATM   18  C   UNK N   1      31.497  16.293   6.244  0.00  0.00     0.122 A 
BRANCH  15  19
HETATM   19  C   UNK N   1      29.113  18.008   9.404  0.00  0.00     0.417 C 
HETATM   20  F   UNK N   1      29.890  18.849  10.179  0.00  0.00    -0.166 F 
HETATM   21  F   UNK N   1      28.080  18.739   8.842  0.00  0.00    -0.166 F 
HETATM   22  F   UNK N   1      28.573  17.025  10.215  0.00  0.00    -0.166 F 
ENDBRANCH  15  19
BRANCH  17  23
HETATM   23  N   UNK N   1      33.225  15.709   7.800  0.00  0.00    -0.325 N 
HETATM   24  C   UNK N   1      33.461  14.463   8.295  0.00  0.00     0.222 C 
HETATM   25  O   UNK N   1      32.550  13.658   8.427  0.00  0.00    -0.273 OA
HETATM   26  H   UNK N   1      33.988  16.296   7.592  0.00  0.00     0.169 HD
BRANCH  24  27
HETATM   27  C   UNK N   1      34.814  14.105   8.814  0.00  0.00     0.103 C 
BRANCH  27  28
HETATM   28  C   UNK N   1      34.752  13.443  10.182  0.00  0.00     0.011 C 
BRANCH  28  29
HETATM   29  C   UNK N   1      35.889  13.904  11.083  0.00  0.00     0.021 C 
BRANCH  29  30
HETATM   30  C   UNK N   1      35.947  13.114  12.387  0.00  0.00     0.138 C 
BRANCH  30  31
HETATM   31  N   UNK N   1      36.830  13.799  13.297  0.00  0.00    -0.227 N 
HETATM   32  C   UNK N   1      36.543  13.944  14.680  0.00  0.00     0.665 C 
HETATM   33  N   UNK N   1      37.297  14.680  15.406  0.00  0.00    -0.235 N 
HETATM   34  N   UNK N   1      35.395  13.345  15.247  0.00  0.00    -0.235 N 
HETATM   35  H   UNK N   1      37.248  15.282  16.183  0.00  0.00     0.174 HD
ATOM     36  HN  UNK N   1      38.260  14.625  15.072  1.00  0.00     0.174 HD
HETATM   37  H   UNK N   1      34.569  13.093  14.773  0.00  0.00     0.174 HD
HETATM   38  H   UNK N   1      35.424  13.160  16.214  0.00  0.00     0.174 HD
HETATM   39  H   UNK N   1      37.667  14.182  12.946  0.00  0.00     0.177 HD
ENDBRANCH  30  31
ENDBRANCH  29  30
ENDBRANCH  28  29
ENDBRANCH  27  28
ENDBRANCH  24  27
ENDBRANCH  17  23
BRANCH  18  40
HETATM   40  O   UNK N   1      32.248  15.716   5.275  0.00  0.00    -0.340 OA
BRANCH  40  41
HETATM   41  C   UNK N   1      31.710  14.715   4.471  0.00  0.00     0.148 C 
HETATM   42  C   UNK N   1      32.801  13.867   3.886  0.00  0.00     0.053 C 
HETATM   43  C   UNK N   1      32.998  12.761   4.899  0.00  0.00     0.116 C 
HETATM   44  N   UNK N   1      31.763  12.616   5.660  0.00  0.00    -0.419 N 
HETATM   45  C   UNK N   1      30.886  13.709   5.256  0.00  0.00     0.146 C 
HETATM   46  H   UNK N   1      31.553  11.889   6.344  0.00  0.00     0.153 HD
ENDBRANCH  40  41
ENDBRANCH  18  40
ENDBRANCH  10  13
ENDBRANCH   1   9
BRANCH   3  47
HETATM   47  C   UNK N   1      24.792  16.566   5.435  0.00  0.00     0.272 C 
HETATM   48  O   UNK N   1      25.293  15.840   6.281  0.00  0.00    -0.266 OA
HETATM   49  N   UNK N   1      23.459  16.588   5.212  0.00  0.00    -0.319 N 
HETATM   50  H   UNK N   1      23.109  17.280   4.607  0.00  0.00     0.169 HD
BRANCH  49  51
HETATM   51  C   UNK N   1      22.542  15.696   5.780  0.00  0.00     0.071 A 
HETATM   52  C   UNK N   1      21.708  16.166   6.794  0.00  0.00     0.048 A 
HETATM   53  C   UNK N   1      20.754  15.334   7.370  0.00  0.00     0.052 A 
HETATM   54  C   UNK N   1      20.626  14.020   6.908  0.00  0.00     0.048 A 
HETATM   55  C   UNK N   1      21.444  13.528   5.880  0.00  0.00     0.071 A 
HETATM   56  C   UNK N   1      22.435  14.366   5.307  0.00  0.00     0.122 A 
BRANCH  53  57
HETATM   57  C   UNK N   1      19.884  15.833   8.492  0.00  0.00     0.417 C 
HETATM   58  F   UNK N   1      20.521  16.864   9.157  0.00  0.00    -0.166 F 
HETATM   59  F   UNK N   1      18.688  16.297   7.975  0.00  0.00    -0.166 F 
HETATM   60  F   UNK N   1      19.607  14.822   9.399  0.00  0.00    -0.166 F 
ENDBRANCH  53  57
BRANCH  55  61
HETATM   61  N   UNK N   1      21.296  12.157   5.515  0.00  0.00    -0.325 N 
HETATM   62  C   UNK N   1      21.661  11.064   6.239  0.00  0.00     0.222 C 
HETATM   63  O   UNK N   1      21.289   9.964   5.866  0.00  0.00    -0.273 OA
HETATM   64  H   UNK N   1      20.883  11.982   4.639  0.00  0.00     0.169 HD
BRANCH  62  65
HETATM   65  C   UNK N   1      22.521  11.168   7.467  0.00  0.00     0.103 C 
BRANCH  65  66
HETATM   66  C   UNK N   1      23.967  11.556   7.190  0.00  0.00     0.011 C 
BRANCH  66  67
HETATM   67  C   UNK N   1      24.442  12.768   8.004  0.00  0.00     0.021 C 
BRANCH  67  68
HETATM   68  C   UNK N   1      23.458  13.279   9.061  0.00  0.00     0.138 C 
BRANCH  68  69
HETATM   69  N   UNK N   1      23.902  12.963  10.397  0.00  0.00    -0.227 N 
HETATM   70  C   UNK N   1      23.076  12.283  11.324  0.00  0.00     0.665 C 
HETATM   71  N   UNK N   1      21.926  11.839  10.971  0.00  0.00    -0.235 N 
HETATM   72  N   UNK N   1      23.531  12.075  12.643  0.00  0.00    -0.235 N 
HETATM   73  H   UNK N   1      21.213  11.697  11.635  0.00  0.00     0.174 HD
ATOM     74  HN  UNK N   1      21.747  11.630   9.988  1.00  0.00     0.174 HD
HETATM   75  H   UNK N   1      24.460  12.209  12.943  0.00  0.00     0.174 HD
HETATM   76  H   UNK N   1      22.874  11.776  13.311  0.00  0.00     0.174 HD
HETATM   77  H   UNK N   1      24.809  13.230  10.672  0.00  0.00     0.177 HD
ENDBRANCH  68  69
ENDBRANCH  67  68
ENDBRANCH  66  67
ENDBRANCH  65  66
ENDBRANCH  62  65
ENDBRANCH  55  61
BRANCH  56  78
HETATM   78  O   UNK N   1      23.262  13.868   4.337  0.00  0.00    -0.340 OA
BRANCH  78  79
HETATM   79  C   UNK N   1      22.955  13.687   3.003  0.00  0.00     0.148 C 
HETATM   80  C   UNK N   1      24.101  13.980   2.089  0.00  0.00     0.053 C 
HETATM   81  C   UNK N   1      23.397  14.277   0.779  0.00  0.00     0.116 C 
HETATM   82  N   UNK N   1      22.027  14.696   1.080  0.00  0.00    -0.419 N 
HETATM   83  C   UNK N   1      21.895  14.638   2.531  0.00  0.00     0.146 C 
HETATM   84  H   UNK N   1      21.309  14.971   0.410  0.00  0.00     0.153 HD
ENDBRANCH  78  79
ENDBRANCH  56  78
ENDBRANCH  49  51
ENDBRANCH   3  47
TORSDOF 22
ENDMDL
MODEL 2
REMARK VINA RESULT:      -8.8      1.640      2.229
REMARK  22 active torsions:
REMARK  status: ('A' for Active; 'I' for Inactive)
REMARK    1  A    between atoms: C_2  and  C_67 
REMARK    2  A    between atoms: C_4  and  N_25 
REMARK    3  A    between atoms: C_5  and  O_19 
REMARK    4  A    between atoms: C_6  and  N_7 
REMARK       I    between atoms: N_7  and  C_8 
REMARK    5  A    between atoms: C_8  and  C_10 
REMARK    6  A    between atoms: C_10  and  C_11 
REMARK    7  A    between atoms: C_11  and  C_12 
REMARK    8  A    between atoms: C_12  and  C_13 
REMARK    9  A    between atoms: C_13  and  N_14 
REMARK       I    between atoms: N_14  and  C_15 
REMARK       I    between atoms: C_15  and  N_18 
REMARK   10  A    between atoms: C_20  and  O_19 
REMARK       I    between atoms: N_25  and  C_26 
REMARK   11  A    between atoms: C_26  and  C_28 
REMARK   12  A    between atoms: C_30  and  C_36 
REMARK       I    between atoms: C_36  and  N_38 
REMARK   13  A    between atoms: N_38  and  C_39 
REMARK   14  A    between atoms: C_41  and  C_63 
REMARK   15  A    between atoms: C_43  and  N_51 
REMARK   16  A    between atoms: C_44  and  O_45 
REMARK   17  A    between atoms: C_46  and  O_45 
REMARK       I    between atoms: N_51  and  C_52 
REMARK   18  A    between atoms: C_52  and  C_54 
REMARK   19  A    between atoms: C_54  and  C_55 
REMARK   20  A    between atoms: C_55  and  C_56 
REMARK   21  A    between atoms: C_56  and  C_57 
REMARK   22  A    between atoms: C_57  and  N_58 
REMARK       I    between atoms: N_58  and  C_59 
REMARK       I    between atoms: C_59  and  N_62 
ROOT
HETATM    1  C   UNK N   1      27.675  18.157   4.196  0.00  0.00     0.104 C 
HETATM    2  C   UNK N   1      26.408  17.629   4.065  0.00  0.00     0.070 C 
HETATM    3  C   UNK N   1      25.342  18.299   4.602  0.00  0.00     0.104 C 
HETATM    4  N   UNK N   1      25.554  19.460   5.281  0.00  0.00    -0.348 N 
ATOM      5  HN  UNK N   1      24.776  19.910   5.763  1.00  0.00     0.167 HD
HETATM    6  C   UNK N   1      26.789  20.027   5.323  0.00  0.00     0.181 C 
HETATM    7  N   UNK N   1      27.855  19.348   4.824  0.00  0.00    -0.348 N 
ATOM      8  HN  UNK N   1      28.794  19.734   4.921  1.00  0.00     0.167 HD
ENDROOT
BRANCH   1   9
HETATM    9  C   UNK N   1      28.792  17.258   3.931  0.00  0.00     0.272 C 
HETATM   10  N   UNK N   1      29.950  17.396   4.611  0.00  0.00    -0.319 N 
HETATM   11  H   UNK N   1      30.700  17.825   4.141  0.00  0.00     0.169 HD
HETATM   12  O   UNK N   1      28.781  16.599   2.900  0.00  0.00    -0.266 OA
BRANCH  10  13
HETATM   13  C   UNK N   1      30.178  16.974   5.953  0.00  0.00     0.071 A 
HETATM   14  C   UNK N   1      29.435  17.595   6.958  0.00  0.00     0.048 A 
HETATM   15  C   UNK N   1      29.790  17.465   8.303  0.00  0.00     0.052 A 
HETATM   16  C   UNK N   1      30.971  16.792   8.635  0.00  0.00     0.048 A 
HETATM   17  C   UNK N   1      31.716  16.150   7.638  0.00  0.00     0.071 A 
HETATM   18  C   UNK N   1      31.293  16.175   6.304  0.00  0.00     0.122 A 
BRANCH  15  19
HETATM   19  C   UNK N   1      28.958  18.145   9.350  0.00  0.00     0.417 C 
HETATM   20  F   UNK N   1      28.033  18.965   8.730  0.00  0.00    -0.166 F 
HETATM   21  F   UNK N   1      28.287  17.196  10.101  0.00  0.00    -0.166 F 
HETATM   22  F   UNK N   1      29.740  18.913  10.196  0.00  0.00    -0.166 F 
ENDBRANCH  15  19
BRANCH  17  23
HETATM   23  N   UNK N   1      33.026  15.679   7.885  0.00  0.00    -0.325 N 
HETATM   24  C   UNK N   1      33.250  14.445   8.414  0.00  0.00     0.222 C 
HETATM   25  O   UNK N   1      32.333  13.650   8.560  0.00  0.00    -0.273 OA
HETATM   26  H   UNK N   1      33.794  16.256   7.668  0.00  0.00     0.169 HD
BRANCH  24  27
HETATM   27  C   UNK N   1      34.597  14.093   8.954  0.00  0.00     0.103 C 
BRANCH  27  28
HETATM   28  C   UNK N   1      35.145  15.165   9.883  0.00  0.00     0.011 C 
BRANCH  28  29
HETATM   29  C   UNK N   1      36.365  14.675  10.650  0.00  0.00     0.021 C 
BRANCH  29  30
HETATM   30  C   UNK N   1      35.982  13.837  11.866  0.00  0.00     0.138 C 
BRANCH  30  31
HETATM   31  N   UNK N   1      36.829  14.218  12.969  0.00  0.00    -0.227 N 
HETATM   32  C   UNK N   1      36.471  13.992  14.324  0.00  0.00     0.665 C 
HETATM   33  N   UNK N   1      37.201  14.477  15.257  0.00  0.00    -0.235 N 
HETATM   34  N   UNK N   1      35.281  13.303  14.652  0.00  0.00    -0.235 N 
HETATM   35  H   UNK N   1      37.123  14.847  16.166  0.00  0.00     0.174 HD
ATOM     36  HN  UNK N   1      38.178  14.480  14.965  1.00  0.00     0.174 HD
HETATM   37  H   UNK N   1      34.477  13.219  14.091  0.00  0.00     0.174 HD
HETATM   38  H   UNK N   1      35.254  12.862  15.533  0.00  0.00     0.174 HD
HETATM   39  H   UNK N   1      37.692  14.652  12.774  0.00  0.00     0.177 HD
ENDBRANCH  30  31
ENDBRANCH  29  30
ENDBRANCH  28  29
ENDBRANCH  27  28
ENDBRANCH  24  27
ENDBRANCH  17  23
BRANCH  18  40
HETATM   40  O   UNK N   1      32.028  15.520   5.372  0.00  0.00    -0.340 OA
BRANCH  40  41
HETATM   41  C   UNK N   1      33.145  16.126   4.804  0.00  0.00     0.148 C 
HETATM   42  C   UNK N   1      34.296  15.164   4.752  0.00  0.00     0.053 C 
HETATM   43  C   UNK N   1      34.152  14.481   3.411  0.00  0.00     0.116 C 
HETATM   44  N   UNK N   1      33.400  15.366   2.528  0.00  0.00    -0.419 N 
HETATM   45  C   UNK N   1      32.940  16.485   3.343  0.00  0.00     0.146 C 
HETATM   46  H   UNK N   1      33.228  15.228   1.532  0.00  0.00     0.153 HD
ENDBRANCH  40  41
ENDBRANCH  18  40
ENDBRANCH  10  13
ENDBRANCH   1   9
BRANCH   3  47
HETATM   47  C   UNK N   1      24.282  17.424   5.020  0.00  0.00     0.272 C 
HETATM   48  O   UNK N   1      24.498  16.385   5.627  0.00  0.00    -0.266 OA
HETATM   49  N   UNK N   1      23.030  17.913   4.868  0.00  0.00    -0.319 N 
HETATM   50  H   UNK N   1      22.936  18.812   4.478  0.00  0.00     0.169 HD
BRANCH  49  51
HETATM   51  C   UNK N   1      21.861  17.232   5.223  0.00  0.00     0.071 A 
HETATM   52  C   UNK N   1      21.378  17.385   6.521  0.00  0.00     0.048 A 
HETATM   53  C   UNK N   1      20.201  16.761   6.919  0.00  0.00     0.052 A 
HETATM   54  C   UNK N   1      19.493  15.988   5.994  0.00  0.00     0.048 A 
HETATM   55  C   UNK N   1      19.950  15.828   4.677  0.00  0.00     0.071 A 
HETATM   56  C   UNK N   1      21.164  16.444   4.276  0.00  0.00     0.122 A 
BRANCH  53  57
HETATM   57  C   UNK N   1      19.705  16.896   8.333  0.00  0.00     0.417 C 
HETATM   58  F   UNK N   1      20.374  16.007   9.153  0.00  0.00    -0.166 F 
HETATM   59  F   UNK N   1      19.934  18.186   8.780  0.00  0.00    -0.166 F 
HETATM   60  F   UNK N   1      18.345  16.639   8.415  0.00  0.00    -0.166 F 
ENDBRANCH  53  57
BRANCH  55  61
HETATM   61  N   UNK N   1      19.207  14.967   3.817  0.00  0.00    -0.325 N 
HETATM   62  C   UNK N   1      19.319  13.616   3.700  0.00  0.00     0.222 C 
HETATM   63  O   UNK N   1      18.476  13.012   3.059  0.00  0.00    -0.273 OA
HETATM   64  H   UNK N   1      18.536  15.401   3.242  0.00  0.00     0.169 HD
BRANCH  62  65
HETATM   65  C   UNK N   1      20.455  12.851   4.317  0.00  0.00     0.103 C 
BRANCH  65  66
HETATM   66  C   UNK N   1      20.085  12.095   5.587  0.00  0.00     0.011 C 
BRANCH  66  67
HETATM   67  C   UNK N   1      21.213  12.058   6.628  0.00  0.00     0.021 C 
BRANCH  67  68
HETATM   68  C   UNK N   1      21.582  13.410   7.247  0.00  0.00     0.138 C 
BRANCH  68  69
HETATM   69  N   UNK N   1      22.921  13.810   6.887  0.00  0.00    -0.227 N 
HETATM   70  C   UNK N   1      24.022  13.626   7.758  0.00  0.00     0.665 C 
HETATM   71  N   UNK N   1      23.878  13.006   8.872  0.00  0.00    -0.235 N 
HETATM   72  N   UNK N   1      25.293  14.113   7.389  0.00  0.00    -0.235 N 
HETATM   73  H   UNK N   1      24.491  13.168   9.624  0.00  0.00     0.174 HD
ATOM     74  HN  UNK N   1      23.116  12.335   8.979  1.00  0.00     0.174 HD
HETATM   75  H   UNK N   1      25.533  14.426   6.486  0.00  0.00     0.174 HD
HETATM   76  H   UNK N   1      25.990  14.143   8.083  0.00  0.00     0.174 HD
HETATM   77  H   UNK N   1      23.072  14.225   6.007  0.00  0.00     0.177 HD
ENDBRANCH  68  69
ENDBRANCH  67  68
ENDBRANCH  66  67
ENDBRANCH  65  66
ENDBRANCH  62  65
ENDBRANCH  55  61
BRANCH  56  78
HETATM   78  O   UNK N   1      21.632  16.248   3.004  0.00  0.00    -0.340 OA
BRANCH  78  79
HETATM   79  C   UNK N   1      22.280  15.127   2.526  0.00  0.00     0.148 C 
HETATM   80  C   UNK N   1      23.746  15.337   2.319  0.00  0.00     0.053 C 
HETATM   81  C   UNK N   1      24.084  14.263   1.304  0.00  0.00     0.116 C 
HETATM   82  N   UNK N   1      22.858  13.911   0.585  0.00  0.00    -0.419 N 
HETATM   83  C   UNK N   1      21.801  14.735   1.159  0.00  0.00     0.146 C 
HETATM   84  H   UNK N   1      22.763  13.226  -0.165  0.00  0.00     0.153 HD
ENDBRANCH  78  79
ENDBRANCH  56  78
ENDBRANCH  49  51
ENDBRANCH   3  47
TORSDOF 22
ENDMDL
MODEL 3
REMARK VINA RESULT:      -8.7      2.172      3.438
REMARK  22 active torsions:
REMARK  status: ('A' for Active; 'I' for Inactive)
REMARK    1  A    between atoms: C_2  and  C_67 
REMARK    2  A    between atoms: C_4  and  N_25 
REMARK    3  A    between atoms: C_5  and  O_19 
REMARK    4  A    between atoms: C_6  and  N_7 
REMARK       I    between atoms: N_7  and  C_8 
REMARK    5  A    between atoms: C_8  and  C_10 
REMARK    6  A    between atoms: C_10  and  C_11 
REMARK    7  A    between atoms: C_11  and  C_12 
REMARK    8  A    between atoms: C_12  and  C_13 
REMARK    9  A    between atoms: C_13  and  N_14 
REMARK       I    between atoms: N_14  and  C_15 
REMARK       I    between atoms: C_15  and  N_18 
REMARK   10  A    between atoms: C_20  and  O_19 
REMARK       I    between atoms: N_25  and  C_26 
REMARK   11  A    between atoms: C_26  and  C_28 
REMARK   12  A    between atoms: C_30  and  C_36 
REMARK       I    between atoms: C_36  and  N_38 
REMARK   13  A    between atoms: N_38  and  C_39 
REMARK   14  A    between atoms: C_41  and  C_63 
REMARK   15  A    between atoms: C_43  and  N_51 
REMARK   16  A    between atoms: C_44  and  O_45 
REMARK   17  A    between atoms: C_46  and  O_45 
REMARK       I    between atoms: N_51  and  C_52 
REMARK   18  A    between atoms: C_52  and  C_54 
REMARK   19  A    between atoms: C_54  and  C_55 
REMARK   20  A    between atoms: C_55  and  C_56 
REMARK   21  A    between atoms: C_56  and  C_57 
REMARK   22  A    between atoms: C_57  and  N_58 
REMARK       I    between atoms: N_58  and  C_59 
REMARK       I    between atoms: C_59  and  N_62 
ROOT
HETATM    1  C   UNK N   1      27.658  17.750   3.997  0.00  0.00     0.104 C 
HETATM    2  C   UNK N   1      26.624  16.852   4.156  0.00  0.00     0.070 C 
HETATM    3  C   UNK N   1      25.431  17.286   4.668  0.00  0.00     0.104 C 
HETATM    4  N   UNK N   1      25.296  18.590   5.040  0.00  0.00    -0.348 N 
ATOM      5  HN  UNK N   1      24.444  18.893   5.510  1.00  0.00     0.167 HD
HETATM    6  C   UNK N   1      26.284  19.491   4.792  0.00  0.00     0.181 C 
HETATM    7  N   UNK N   1      27.481  19.058   4.318  0.00  0.00    -0.348 N 
ATOM      8  HN  UNK N   1      28.250  19.717   4.202  1.00  0.00     0.167 HD
ENDROOT
BRANCH   1   9
HETATM    9  C   UNK N   1      28.989  17.188   3.792  0.00  0.00     0.272 C 
HETATM   10  N   UNK N   1      30.012  17.557   4.593  0.00  0.00    -0.319 N 
HETATM   11  H   UNK N   1      30.660  18.200   4.227  0.00  0.00     0.169 HD
HETATM   12  O   UNK N   1      29.234  16.638   2.727  0.00  0.00    -0.266 OA
BRANCH  10  13
HETATM   13  C   UNK N   1      30.232  17.094   5.922  0.00  0.00     0.071 A 
HETATM   14  C   UNK N   1      29.502  17.703   6.944  0.00  0.00     0.048 A 
HETATM   15  C   UNK N   1      29.855  17.531   8.285  0.00  0.00     0.052 A 
HETATM   16  C   UNK N   1      31.022  16.824   8.598  0.00  0.00     0.048 A 
HETATM   17  C   UNK N   1      31.753  16.194   7.583  0.00  0.00     0.071 A 
HETATM   18  C   UNK N   1      31.330  16.264   6.250  0.00  0.00     0.122 A 
BRANCH  15  19
HETATM   19  C   UNK N   1      29.038  18.200   9.350  0.00  0.00     0.417 C 
HETATM   20  F   UNK N   1      28.132  19.057   8.754  0.00  0.00    -0.166 F 
HETATM   21  F   UNK N   1      28.346  17.245  10.075  0.00  0.00    -0.166 F 
HETATM   22  F   UNK N   1      29.836  18.926  10.217  0.00  0.00    -0.166 F 
ENDBRANCH  15  19
BRANCH  17  23
HETATM   23  N   UNK N   1      33.053  15.690   7.816  0.00  0.00    -0.325 N 
HETATM   24  C   UNK N   1      33.252  14.438   8.313  0.00  0.00     0.222 C 
HETATM   25  O   UNK N   1      32.319  13.659   8.440  0.00  0.00    -0.273 OA
HETATM   26  H   UNK N   1      33.833  16.256   7.612  0.00  0.00     0.169 HD
BRANCH  24  27
HETATM   27  C   UNK N   1      34.591  14.045   8.841  0.00  0.00     0.103 C 
BRANCH  27  28
HETATM   28  C   UNK N   1      34.997  14.864  10.057  0.00  0.00     0.011 C 
BRANCH  28  29
HETATM   29  C   UNK N   1      36.057  14.154  10.887  0.00  0.00     0.021 C 
BRANCH  29  30
HETATM   30  C   UNK N   1      35.603  13.924  12.325  0.00  0.00     0.138 C 
BRANCH  30  31
HETATM   31  N   UNK N   1      36.532  14.583  13.209  0.00  0.00    -0.227 N 
HETATM   32  C   UNK N   1      36.589  14.313  14.601  0.00  0.00     0.665 C 
HETATM   33  N   UNK N   1      37.338  15.029  15.351  0.00  0.00    -0.235 N 
HETATM   34  N   UNK N   1      35.772  13.313  15.177  0.00  0.00    -0.235 N 
HETATM   35  H   UNK N   1      37.370  15.394  16.265  0.00  0.00     0.174 HD
ATOM     36  HN  UNK N   1      38.172  15.313  14.837  1.00  0.00     0.174 HD
HETATM   37  H   UNK N   1      34.921  12.971  14.819  0.00  0.00     0.174 HD
HETATM   38  H   UNK N   1      36.087  12.918  16.023  0.00  0.00     0.174 HD
HETATM   39  H   UNK N   1      37.154  15.247  12.830  0.00  0.00     0.177 HD
ENDBRANCH  30  31
ENDBRANCH  29  30
ENDBRANCH  28  29
ENDBRANCH  27  28
ENDBRANCH  24  27
ENDBRANCH  17  23
BRANCH  18  40
HETATM   40  O   UNK N   1      32.051  15.619   5.301  0.00  0.00    -0.340 OA
BRANCH  40  41
HETATM   41  C   UNK N   1      33.187  16.211   4.758  0.00  0.00     0.148 C 
HETATM   42  C   UNK N   1      34.308  15.216   4.670  0.00  0.00     0.053 C 
HETATM   43  C   UNK N   1      34.146  14.589   3.304  0.00  0.00     0.116 C 
HETATM   44  N   UNK N   1      33.424  15.530   2.455  0.00  0.00    -0.419 N 
HETATM   45  C   UNK N   1      32.997  16.632   3.311  0.00  0.00     0.146 C 
HETATM   46  H   UNK N   1      33.250  15.436   1.454  0.00  0.00     0.153 HD
ENDBRANCH  40  41
ENDBRANCH  18  40
ENDBRANCH  10  13
ENDBRANCH   1   9
BRANCH   3  47
HETATM   47  C   UNK N   1      24.733  16.269   5.407  0.00  0.00     0.272 C 
HETATM   48  O   UNK N   1      23.559  16.386   5.722  0.00  0.00    -0.266 OA
HETATM   49  N   UNK N   1      25.402  15.105   5.564  0.00  0.00    -0.319 N 
HETATM   50  H   UNK N   1      26.305  15.041   5.178  0.00  0.00     0.169 HD
BRANCH  49  51
HETATM   51  C   UNK N   1      24.901  13.985   6.237  0.00  0.00     0.071 A 
HETATM   52  C   UNK N   1      24.994  13.957   7.627  0.00  0.00     0.048 A 
HETATM   53  C   UNK N   1      24.481  12.885   8.351  0.00  0.00     0.052 A 
HETATM   54  C   UNK N   1      23.853  11.839   7.668  0.00  0.00     0.048 A 
HETATM   55  C   UNK N   1      23.735  11.850   6.271  0.00  0.00     0.071 A 
HETATM   56  C   UNK N   1      24.280  12.929   5.528  0.00  0.00     0.122 A 
BRANCH  53  57
HETATM   57  C   UNK N   1      24.619  12.840   9.849  0.00  0.00     0.417 C 
HETATM   58  F   UNK N   1      23.432  13.228  10.441  0.00  0.00    -0.166 F 
HETATM   59  F   UNK N   1      24.923  11.550  10.245  0.00  0.00    -0.166 F 
HETATM   60  F   UNK N   1      25.630  13.683  10.285  0.00  0.00    -0.166 F 
ENDBRANCH  53  57
BRANCH  55  61
HETATM   61  N   UNK N   1      23.143  10.713   5.647  0.00  0.00    -0.325 N 
HETATM   62  C   UNK N   1      21.817  10.469   5.458  0.00  0.00     0.222 C 
HETATM   63  O   UNK N   1      21.490   9.541   4.736  0.00  0.00    -0.273 OA
HETATM   64  H   UNK N   1      23.764  10.025   5.316  0.00  0.00     0.169 HD
BRANCH  62  65
HETATM   65  C   UNK N   1      20.749  11.291   6.122  0.00  0.00     0.103 C 
BRANCH  65  66
HETATM   66  C   UNK N   1      20.052  12.278   5.196  0.00  0.00     0.011 C 
BRANCH  66  67
HETATM   67  C   UNK N   1      20.216  13.743   5.628  0.00  0.00     0.021 C 
BRANCH  67  68
HETATM   68  C   UNK N   1      19.859  14.787   4.565  0.00  0.00     0.138 C 
BRANCH  68  69
HETATM   69  N   UNK N   1      20.880  15.801   4.454  0.00  0.00    -0.227 N 
HETATM   70  C   UNK N   1      20.670  17.005   3.739  0.00  0.00     0.665 C 
HETATM   71  N   UNK N   1      19.521  17.275   3.237  0.00  0.00    -0.235 N 
HETATM   72  N   UNK N   1      21.731  17.923   3.592  0.00  0.00    -0.235 N 
HETATM   73  H   UNK N   1      19.435  17.884   2.468  0.00  0.00     0.174 HD
ATOM     74  HN  UNK N   1      18.684  16.853   3.641  1.00  0.00     0.174 HD
HETATM   75  H   UNK N   1      22.576  17.889   4.096  0.00  0.00     0.174 HD
HETATM   76  H   UNK N   1      21.618  18.650   2.938  0.00  0.00     0.174 HD
HETATM   77  H   UNK N   1      21.749  15.650   4.890  0.00  0.00     0.177 HD
ENDBRANCH  68  69
ENDBRANCH  67  68
ENDBRANCH  66  67
ENDBRANCH  65  66
ENDBRANCH  62  65
ENDBRANCH  55  61
BRANCH  56  78
HETATM   78  O   UNK N   1      24.204  12.914   4.161  0.00  0.00    -0.340 OA
BRANCH  78  79
HETATM   79  C   UNK N   1      23.191  13.438   3.383  0.00  0.00     0.148 C 
HETATM   80  C   UNK N   1      22.575  12.434   2.462  0.00  0.00     0.053 C 
HETATM   81  C   UNK N   1      21.973  13.315   1.384  0.00  0.00     0.116 C 
HETATM   82  N   UNK N   1      22.690  14.592   1.384  0.00  0.00    -0.419 N 
HETATM   83  C   UNK N   1      23.687  14.498   2.444  0.00  0.00     0.146 C 
HETATM   84  H   UNK N   1      22.523  15.388   0.768  0.00  0.00     0.153 HD
ENDBRANCH  78  79
ENDBRANCH  56  78
ENDBRANCH  49  51
ENDBRANCH   3  47
TORSDOF 22
ENDMDL
MODEL 4
REMARK VINA RESULT:      -8.7      3.130     10.692
REMARK  22 active torsions:
REMARK  status: ('A' for Active; 'I' for Inactive)
REMARK    1  A    between atoms: C_2  and  C_67 
REMARK    2  A    between atoms: C_4  and  N_25 
REMARK    3  A    between atoms: C_5  and  O_19 
REMARK    4  A    between atoms: C_6  and  N_7 
REMARK       I    between atoms: N_7  and  C_8 
REMARK    5  A    between atoms: C_8  and  C_10 
REMARK    6  A    between atoms: C_10  and  C_11 
REMARK    7  A    between atoms: C_11  and  C_12 
REMARK    8  A    between atoms: C_12  and  C_13 
REMARK    9  A    between atoms: C_13  and  N_14 
REMARK       I    between atoms: N_14  and  C_15 
REMARK       I    between atoms: C_15  and  N_18 
REMARK   10  A    between atoms: C_20  and  O_19 
REMARK       I    between atoms: N_25  and  C_26 
REMARK   11  A    between atoms: C_26  and  C_28 
REMARK   12  A    between atoms: C_30  and  C_36 
REMARK       I    between atoms: C_36  and  N_38 
REMARK   13  A    between atoms: N_38  and  C_39 
REMARK   14  A    between atoms: C_41  and  C_63 
REMARK   15  A    between atoms: C_43  and  N_51 
REMARK   16  A    between atoms: C_44  and  O_45 
REMARK   17  A    between atoms: C_46  and  O_45 
REMARK       I    between atoms: N_51  and  C_52 
REMARK   18  A    between atoms: C_52  and  C_54 
REMARK   19  A    between atoms: C_54  and  C_55 
REMARK   20  A    between atoms: C_55  and  C_56 
REMARK   21  A    between atoms: C_56  and  C_57 
REMARK   22  A    between atoms: C_57  and  N_58 
REMARK       I    between atoms: N_58  and  C_59 
REMARK       I    between atoms: C_59  and  N_62 
ROOT
HETATM    1  C   UNK N   1      24.397  13.029   1.733  0.00  0.00     0.104 C 
HETATM    2  C   UNK N   1      25.597  13.707   1.760  0.00  0.00     0.070 C 
HETATM    3  C   UNK N   1      26.498  13.437   2.754  0.00  0.00     0.104 C 
HETATM    4  N   UNK N   1      26.182  12.527   3.717  0.00  0.00    -0.348 N 
ATOM      5  HN  UNK N   1      26.808  12.396   4.511  1.00  0.00     0.167 HD
HETATM    6  C   UNK N   1      25.041  11.792   3.632  0.00  0.00     0.181 C 
HETATM    7  N   UNK N   1      24.128  12.081   2.668  0.00  0.00    -0.348 N 
ATOM      8  HN  UNK N   1      23.238  11.584   2.646  1.00  0.00     0.167 HD
ENDROOT
BRANCH   1   9
HETATM    9  C   UNK N   1      23.346  13.588   0.890  0.00  0.00     0.272 C 
HETATM   10  N   UNK N   1      22.056  13.528   1.283  0.00  0.00    -0.319 N 
HETATM   11  H   UNK N   1      21.487  12.847   0.858  0.00  0.00     0.169 HD
HETATM   12  O   UNK N   1      23.601  13.823  -0.283  0.00  0.00    -0.266 OA
BRANCH  10  13
HETATM   13  C   UNK N   1      21.449  14.365   2.264  0.00  0.00     0.071 A 
HETATM   14  C   UNK N   1      21.139  15.673   1.889  0.00  0.00     0.048 A 
HETATM   15  C   UNK N   1      20.822  16.642   2.846  0.00  0.00     0.052 A 
HETATM   16  C   UNK N   1      20.922  16.318   4.203  0.00  0.00     0.048 A 
HETATM   17  C   UNK N   1      21.215  15.005   4.591  0.00  0.00     0.071 A 
HETATM   18  C   UNK N   1      21.412  14.004   3.632  0.00  0.00     0.122 A 
BRANCH  15  19
HETATM   19  C   UNK N   1      20.489  18.033   2.397  0.00  0.00     0.417 C 
HETATM   20  F   UNK N   1      19.236  18.375   2.871  0.00  0.00    -0.166 F 
HETATM   21  F   UNK N   1      21.420  18.923   2.904  0.00  0.00    -0.166 F 
HETATM   22  F   UNK N   1      20.486  18.131   1.016  0.00  0.00    -0.166 F 
ENDBRANCH  15  19
BRANCH  17  23
HETATM   23  N   UNK N   1      21.570  14.692   5.924  0.00  0.00    -0.325 N 
HETATM   24  C   UNK N   1      20.641  14.662   6.918  0.00  0.00     0.222 C 
HETATM   25  O   UNK N   1      19.449  14.765   6.666  0.00  0.00    -0.273 OA
HETATM   26  H   UNK N   1      22.510  14.489   6.137  0.00  0.00     0.169 HD
BRANCH  24  27
HETATM   27  C   UNK N   1      21.071  14.642   8.347  0.00  0.00     0.103 C 
BRANCH  27  28
HETATM   28  C   UNK N   1      22.273  13.738   8.576  0.00  0.00     0.011 C 
BRANCH  28  29
HETATM   29  C   UNK N   1      21.867  12.275   8.680  0.00  0.00     0.021 C 
BRANCH  29  30
HETATM   30  C   UNK N   1      22.909  11.439   9.416  0.00  0.00     0.138 C 
BRANCH  30  31
HETATM   31  N   UNK N   1      22.696  11.589  10.834  0.00  0.00    -0.227 N 
HETATM   32  C   UNK N   1      23.695  12.087  11.710  0.00  0.00     0.665 C 
HETATM   33  N   UNK N   1      23.492  12.066  12.974  0.00  0.00    -0.235 N 
HETATM   34  N   UNK N   1      24.937  12.538  11.209  0.00  0.00    -0.235 N 
HETATM   35  H   UNK N   1      23.983  11.953  13.819  0.00  0.00     0.174 HD
ATOM     36  HN  UNK N   1      22.501  12.214  13.167  1.00  0.00     0.174 HD
HETATM   37  H   UNK N   1      25.360  12.271  10.360  0.00  0.00     0.174 HD
HETATM   38  H   UNK N   1      25.430  13.186  11.764  0.00  0.00     0.174 HD
HETATM   39  H   UNK N   1      21.821  11.334  11.210  0.00  0.00     0.177 HD
ENDBRANCH  30  31
ENDBRANCH  29  30
ENDBRANCH  28  29
ENDBRANCH  27  28
ENDBRANCH  24  27
ENDBRANCH  17  23
BRANCH  18  40
HETATM   40  O   UNK N   1      21.668  12.741   4.049  0.00  0.00    -0.340 OA
BRANCH  40  41
HETATM   41  C   UNK N   1      20.653  11.788   4.069  0.00  0.00     0.148 C 
HETATM   42  C   UNK N   1      21.057  10.572   3.288  0.00  0.00     0.053 C 
HETATM   43  C   UNK N   1      21.730   9.680   4.307  0.00  0.00     0.116 C 
HETATM   44  N   UNK N   1      21.227  10.038   5.628  0.00  0.00    -0.419 N 
HETATM   45  C   UNK N   1      20.401  11.228   5.458  0.00  0.00     0.146 C 
HETATM   46  H   UNK N   1      21.416   9.549   6.503  0.00  0.00     0.153 HD
ENDBRANCH  40  41
ENDBRANCH  18  40
ENDBRANCH  10  13
ENDBRANCH   1   9
BRANCH   3  47
HETATM   47  C   UNK N   1      27.308  14.573   3.101  0.00  0.00     0.272 C 
HETATM   48  O   UNK N   1      27.025  15.706   2.742  0.00  0.00    -0.266 OA
HETATM   49  N   UNK N   1      28.289  14.334   4.000  0.00  0.00    -0.319 N 
HETATM   50  H   UNK N   1      28.385  13.415   4.338  0.00  0.00     0.169 HD
BRANCH  49  51
HETATM   51  C   UNK N   1      29.180  15.300   4.482  0.00  0.00     0.071 A 
HETATM   52  C   UNK N   1      30.292  15.617   3.704  0.00  0.00     0.048 A 
HETATM   53  C   UNK N   1      31.191  16.595   4.116  0.00  0.00     0.052 A 
HETATM   54  C   UNK N   1      30.958  17.273   5.316  0.00  0.00     0.048 A 
HETATM   55  C   UNK N   1      29.840  16.982   6.111  0.00  0.00     0.071 A 
HETATM   56  C   UNK N   1      28.934  15.967   5.706  0.00  0.00     0.122 A 
BRANCH  53  57
HETATM   57  C   UNK N   1      32.412  16.905   3.292  0.00  0.00     0.417 C 
HETATM   58  F   UNK N   1      33.167  17.877   3.921  0.00  0.00    -0.166 F 
HETATM   59  F   UNK N   1      33.175  15.760   3.149  0.00  0.00    -0.166 F 
HETATM   60  F   UNK N   1      32.062  17.360   2.030  0.00  0.00    -0.166 F 
ENDBRANCH  53  57
BRANCH  55  61
HETATM   61  N   UNK N   1      29.713  17.669   7.354  0.00  0.00    -0.325 N 
HETATM   62  C   UNK N   1      30.673  17.850   8.302  0.00  0.00     0.222 C 
HETATM   63  O   UNK N   1      30.454  18.626   9.217  0.00  0.00    -0.273 OA
HETATM   64  H   UNK N   1      28.830  18.057   7.549  0.00  0.00     0.169 HD
BRANCH  62  65
HETATM   65  C   UNK N   1      31.981  17.112   8.267  0.00  0.00     0.103 C 
BRANCH  65  66
HETATM   66  C   UNK N   1      33.209  18.013   8.251  0.00  0.00     0.011 C 
BRANCH  66  67
HETATM   67  C   UNK N   1      34.447  17.373   8.895  0.00  0.00     0.021 C 
BRANCH  67  68
HETATM   68  C   UNK N   1      34.224  15.994   9.523  0.00  0.00     0.138 C 
BRANCH  68  69
HETATM   69  N   UNK N   1      34.653  15.963  10.901  0.00  0.00    -0.227 N 
HETATM   70  C   UNK N   1      35.931  15.485  11.281  0.00  0.00     0.665 C 
HETATM   71  N   UNK N   1      36.792  15.145  10.393  0.00  0.00    -0.235 N 
HETATM   72  N   UNK N   1      36.265  15.398  12.649  0.00  0.00    -0.235 N 
HETATM   73  H   UNK N   1      37.507  14.501  10.602  0.00  0.00     0.174 HD
ATOM     74  HN  UNK N   1      36.735  15.547   9.457  1.00  0.00     0.174 HD
HETATM   75  H   UNK N   1      35.748  15.809  13.379  0.00  0.00     0.174 HD
HETATM   76  H   UNK N   1      37.073  14.891  12.890  0.00  0.00     0.174 HD
HETATM   77  H   UNK N   1      34.037  16.285  11.598  0.00  0.00     0.177 HD
ENDBRANCH  68  69
ENDBRANCH  67  68
ENDBRANCH  66  67
ENDBRANCH  65  66
ENDBRANCH  62  65
ENDBRANCH  55  61
BRANCH  56  78
HETATM   78  O   UNK N   1      27.869  15.654   6.507  0.00  0.00    -0.340 OA
BRANCH  78  79
HETATM   79  C   UNK N   1      26.632  16.266   6.514  0.00  0.00     0.148 C 
HETATM   80  C   UNK N   1      25.528  15.371   6.049  0.00  0.00     0.053 C 
HETATM   81  C   UNK N   1      24.475  16.367   5.602  0.00  0.00     0.116 C 
HETATM   82  N   UNK N   1      25.145  17.630   5.285  0.00  0.00    -0.419 N 
HETATM   83  C   UNK N   1      26.563  17.415   5.550  0.00  0.00     0.146 C 
HETATM   84  H   UNK N   1      24.708  18.488   4.949  0.00  0.00     0.153 HD
ENDBRANCH  78  79
ENDBRANCH  56  78
ENDBRANCH  49  51
ENDBRANCH   3  47
TORSDOF 22
ENDMDL
MODEL 5
REMARK VINA RESULT:      -8.7      2.303      3.674
REMARK  22 active torsions:
REMARK  status: ('A' for Active; 'I' for Inactive)
REMARK    1  A    between atoms: C_2  and  C_67 
REMARK    2  A    between atoms: C_4  and  N_25 
REMARK    3  A    between atoms: C_5  and  O_19 
REMARK    4  A    between atoms: C_6  and  N_7 
REMARK       I    between atoms: N_7  and  C_8 
REMARK    5  A    between atoms: C_8  and  C_10 
REMARK    6  A    between atoms: C_10  and  C_11 
REMARK    7  A    between atoms: C_11  and  C_12 
REMARK    8  A    between atoms: C_12  and  C_13 
REMARK    9  A    between atoms: C_13  and  N_14 
REMARK       I    between atoms: N_14  and  C_15 
REMARK       I    between atoms: C_15  and  N_18 
REMARK   10  A    between atoms: C_20  and  O_19 
REMARK       I    between atoms: N_25  and  C_26 
REMARK   11  A    between atoms: C_26  and  C_28 
REMARK   12  A    between atoms: C_30  and  C_36 
REMARK       I    between atoms: C_36  and  N_38 
REMARK   13  A    between atoms: N_38  and  C_39 
REMARK   14  A    between atoms: C_41  and  C_63 
REMARK   15  A    between atoms: C_43  and  N_51 
REMARK   16  A    between atoms: C_44  and  O_45 
REMARK   17  A    between atoms: C_46  and  O_45 
REMARK       I    between atoms: N_51  and  C_52 
REMARK   18  A    between atoms: C_52  and  C_54 
REMARK   19  A    between atoms: C_54  and  C_55 
REMARK   20  A    between atoms: C_55  and  C_56 
REMARK   21  A    between atoms: C_56  and  C_57 
REMARK   22  A    between atoms: C_57  and  N_58 
REMARK       I    between atoms: N_58  and  C_59 
REMARK       I    between atoms: C_59  and  N_62 
ROOT
HETATM    1  C   UNK N   1      27.791  18.479   4.365  0.00  0.00     0.104 C 
HETATM    2  C   UNK N   1      26.509  18.129   3.998  0.00  0.00     0.070 C 
HETATM    3  C   UNK N   1      25.447  18.807   4.534  0.00  0.00     0.104 C 
HETATM    4  N   UNK N   1      25.674  19.795   5.444  0.00  0.00    -0.348 N 
ATOM      5  HN  UNK N   1      24.885  20.235   5.916  1.00  0.00     0.167 HD
HETATM    6  C   UNK N   1      26.940  20.202   5.729  0.00  0.00     0.181 C 
HETATM    7  N   UNK N   1      27.996  19.509   5.227  0.00  0.00    -0.348 N 
ATOM      8  HN  UNK N   1      28.945  19.762   5.498  1.00  0.00     0.167 HD
ENDROOT
BRANCH   1   9
HETATM    9  C   UNK N   1      28.846  17.522   4.056  0.00  0.00     0.272 C 
HETATM   10  N   UNK N   1      30.051  17.622   4.657  0.00  0.00    -0.319 N 
HETATM   11  H   UNK N   1      30.788  18.004   4.128  0.00  0.00     0.169 HD
HETATM   12  O   UNK N   1      28.740  16.839   3.046  0.00  0.00    -0.266 OA
BRANCH  10  13
HETATM   13  C   UNK N   1      30.346  17.223   5.993  0.00  0.00     0.071 A 
HETATM   14  C   UNK N   1      29.484  17.660   7.000  0.00  0.00     0.048 A 
HETATM   15  C   UNK N   1      29.846  17.574   8.347  0.00  0.00     0.052 A 
HETATM   16  C   UNK N   1      31.134  17.141   8.681  0.00  0.00     0.048 A 
HETATM   17  C   UNK N   1      32.001  16.683   7.682  0.00  0.00     0.071 A 
HETATM   18  C   UNK N   1      31.594  16.654   6.342  0.00  0.00     0.122 A 
BRANCH  15  19
HETATM   19  C   UNK N   1      28.885  18.050   9.396  0.00  0.00     0.417 C 
HETATM   20  F   UNK N   1      29.548  18.895  10.267  0.00  0.00    -0.166 F 
HETATM   21  F   UNK N   1      27.848  18.744   8.797  0.00  0.00    -0.166 F 
HETATM   22  F   UNK N   1      28.357  16.991  10.115  0.00  0.00    -0.166 F 
ENDBRANCH  15  19
BRANCH  17  23
HETATM   23  N   UNK N   1      33.376  16.476   7.937  0.00  0.00    -0.325 N 
HETATM   24  C   UNK N   1      33.819  15.372   8.599  0.00  0.00     0.222 C 
HETATM   25  O   UNK N   1      33.056  14.455   8.868  0.00  0.00    -0.273 OA
HETATM   26  H   UNK N   1      34.029  17.146   7.627  0.00  0.00     0.169 HD
BRANCH  24  27
HETATM   27  C   UNK N   1      35.213  15.323   9.129  0.00  0.00     0.103 C 
BRANCH  27  28
HETATM   28  C   UNK N   1      36.055  14.259   8.443  0.00  0.00     0.011 C 
BRANCH  28  29
HETATM   29  C   UNK N   1      37.248  13.849   9.295  0.00  0.00     0.021 C 
BRANCH  29  30
HETATM   30  C   UNK N   1      36.830  13.046  10.523  0.00  0.00     0.138 C 
BRANCH  30  31
HETATM   31  N   UNK N   1      37.227  13.773  11.702  0.00  0.00    -0.227 N 
HETATM   32  C   UNK N   1      36.383  13.917  12.834  0.00  0.00     0.665 C 
HETATM   33  N   UNK N   1      36.739  14.689  13.791  0.00  0.00    -0.235 N 
HETATM   34  N   UNK N   1      35.124  13.276  12.884  0.00  0.00    -0.235 N 
HETATM   35  H   UNK N   1      36.350  15.295  14.462  0.00  0.00     0.174 HD
ATOM     36  HN  UNK N   1      37.755  14.671  13.891  1.00  0.00     0.174 HD
HETATM   37  H   UNK N   1      34.581  12.988  12.115  0.00  0.00     0.174 HD
HETATM   38  H   UNK N   1      34.752  13.100  13.779  0.00  0.00     0.174 HD
HETATM   39  H   UNK N   1      38.121  14.188  11.723  0.00  0.00     0.177 HD
ENDBRANCH  30  31
ENDBRANCH  29  30
ENDBRANCH  28  29
ENDBRANCH  27  28
ENDBRANCH  24  27
ENDBRANCH  17  23
BRANCH  18  40
HETATM   40  O   UNK N   1      32.454  16.180   5.408  0.00  0.00    -0.340 OA
BRANCH  40  41
HETATM   41  C   UNK N   1      32.158  15.013   4.708  0.00  0.00     0.148 C 
HETATM   42  C   UNK N   1      33.418  14.286   4.340  0.00  0.00     0.053 C 
HETATM   43  C   UNK N   1      33.671  13.361   5.508  0.00  0.00     0.116 C 
HETATM   44  N   UNK N   1      32.399  13.114   6.176  0.00  0.00    -0.419 N 
HETATM   45  C   UNK N   1      31.415  13.993   5.553  0.00  0.00     0.146 C 
HETATM   46  H   UNK N   1      32.229  12.452   6.934  0.00  0.00     0.153 HD
ENDBRANCH  40  41
ENDBRANCH  18  40
ENDBRANCH  10  13
ENDBRANCH   1   9
BRANCH   3  47
HETATM   47  C   UNK N   1      24.267  17.996   4.658  0.00  0.00     0.272 C 
HETATM   48  O   UNK N   1      23.245  18.237   4.035  0.00  0.00    -0.266 OA
HETATM   49  N   UNK N   1      24.422  16.849   5.359  0.00  0.00    -0.319 N 
HETATM   50  H   UNK N   1      25.311  16.661   5.736  0.00  0.00     0.169 HD
BRANCH  49  51
HETATM   51  C   UNK N   1      23.407  15.913   5.587  0.00  0.00     0.071 A 
HETATM   52  C   UNK N   1      22.451  16.203   6.559  0.00  0.00     0.048 A 
HETATM   53  C   UNK N   1      21.399  15.326   6.804  0.00  0.00     0.052 A 
HETATM   54  C   UNK N   1      21.300  14.153   6.049  0.00  0.00     0.048 A 
HETATM   55  C   UNK N   1      22.241  13.845   5.056  0.00  0.00     0.071 A 
HETATM   56  C   UNK N   1      23.330  14.726   4.821  0.00  0.00     0.122 A 
BRANCH  53  57
HETATM   57  C   UNK N   1      20.393  15.623   7.882  0.00  0.00     0.417 C 
HETATM   58  F   UNK N   1      19.234  16.123   7.317  0.00  0.00    -0.166 F 
HETATM   59  F   UNK N   1      20.096  14.459   8.569  0.00  0.00    -0.166 F 
HETATM   60  F   UNK N   1      20.885  16.553   8.785  0.00  0.00    -0.166 F 
ENDBRANCH  53  57
BRANCH  55  61
HETATM   61  N   UNK N   1      22.107  12.597   4.380  0.00  0.00    -0.325 N 
HETATM   62  C   UNK N   1      21.409  12.344   3.239  0.00  0.00     0.222 C 
HETATM   63  O   UNK N   1      21.556  11.265   2.689  0.00  0.00    -0.273 OA
HETATM   64  H   UNK N   1      22.573  11.830   4.785  0.00  0.00     0.169 HD
BRANCH  62  65
HETATM   65  C   UNK N   1      20.453  13.341   2.648  0.00  0.00     0.103 C 
BRANCH  65  66
HETATM   66  C   UNK N   1      21.035  14.172   1.513  0.00  0.00     0.011 C 
BRANCH  66  67
HETATM   67  C   UNK N   1      21.109  15.673   1.828  0.00  0.00     0.021 C 
BRANCH  67  68
HETATM   68  C   UNK N   1      20.220  16.149   2.980  0.00  0.00     0.138 C 
BRANCH  68  69
HETATM   69  N   UNK N   1      20.625  17.447   3.462  0.00  0.00    -0.227 N 
HETATM   70  C   UNK N   1      19.949  18.634   3.086  0.00  0.00     0.665 C 
HETATM   71  N   UNK N   1      18.887  18.582   2.370  0.00  0.00    -0.235 N 
HETATM   72  N   UNK N   1      20.440  19.884   3.519  0.00  0.00    -0.235 N 
HETATM   73  H   UNK N   1      18.614  19.347   1.814  0.00  0.00     0.174 HD
ATOM     74  HN  UNK N   1      18.316  17.736   2.377  1.00  0.00     0.174 HD
HETATM   75  H   UNK N   1      21.125  20.006   4.216  0.00  0.00     0.174 HD
HETATM   76  H   UNK N   1      20.072  20.691   3.094  0.00  0.00     0.174 HD
HETATM   77  H   UNK N   1      21.396  17.510   4.071  0.00  0.00     0.177 HD
ENDBRANCH  68  69
ENDBRANCH  67  68
ENDBRANCH  66  67
ENDBRANCH  65  66
ENDBRANCH  62  65
ENDBRANCH  55  61
BRANCH  56  78
HETATM   78  O   UNK N   1      24.272  14.399   3.883  0.00  0.00    -0.340 OA
BRANCH  78  79
HETATM   79  C   UNK N   1      25.373  13.587   4.066  0.00  0.00     0.148 C 
HETATM   80  C   UNK N   1      26.546  14.305   4.652  0.00  0.00     0.053 C 
HETATM   81  C   UNK N   1      27.706  13.430   4.219  0.00  0.00     0.116 C 
HETATM   82  N   UNK N   1      27.292  12.674   3.036  0.00  0.00    -0.419 N 
HETATM   83  C   UNK N   1      25.913  13.063   2.768  0.00  0.00     0.146 C 
HETATM   84  H   UNK N   1      27.855  12.007   2.507  0.00  0.00     0.153 HD
ENDBRANCH  78  79
ENDBRANCH  56  78
ENDBRANCH  49  51
ENDBRANCH   3  47
TORSDOF 22
ENDMDL
MODEL 6
REMARK VINA RESULT:      -8.6      4.122     11.869
REMARK  22 active torsions:
REMARK  status: ('A' for Active; 'I' for Inactive)
REMARK    1  A    between atoms: C_2  and  C_67 
REMARK    2  A    between atoms: C_4  and  N_25 
REMARK    3  A    between atoms: C_5  and  O_19 
REMARK    4  A    between atoms: C_6  and  N_7 
REMARK       I    between atoms: N_7  and  C_8 
REMARK    5  A    between atoms: C_8  and  C_10 
REMARK    6  A    between atoms: C_10  and  C_11 
REMARK    7  A    between atoms: C_11  and  C_12 
REMARK    8  A    between atoms: C_12  and  C_13 
REMARK    9  A    between atoms: C_13  and  N_14 
REMARK       I    between atoms: N_14  and  C_15 
REMARK       I    between atoms: C_15  and  N_18 
REMARK   10  A    between atoms: C_20  and  O_19 
REMARK       I    between atoms: N_25  and  C_26 
REMARK   11  A    between atoms: C_26  and  C_28 
REMARK   12  A    between atoms: C_30  and  C_36 
REMARK       I    between atoms: C_36  and  N_38 
REMARK   13  A    between atoms: N_38  and  C_39 
REMARK   14  A    between atoms: C_41  and  C_63 
REMARK   15  A    between atoms: C_43  and  N_51 
REMARK   16  A    between atoms: C_44  and  O_45 
REMARK   17  A    between atoms: C_46  and  O_45 
REMARK       I    between atoms: N_51  and  C_52 
REMARK   18  A    between atoms: C_52  and  C_54 
REMARK   19  A    between atoms: C_54  and  C_55 
REMARK   20  A    between atoms: C_55  and  C_56 
REMARK   21  A    between atoms: C_56  and  C_57 
REMARK   22  A    between atoms: C_57  and  N_58 
REMARK       I    between atoms: N_58  and  C_59 
REMARK       I    between atoms: C_59  and  N_62 
ROOT
HETATM    1  C   UNK N   1      33.405  16.555   7.650  0.00  0.00     0.104 C 
HETATM    2  C   UNK N   1      33.799  15.985   8.842  0.00  0.00     0.070 C 
HETATM    3  C   UNK N   1      34.620  16.687   9.683  0.00  0.00     0.104 C 
HETATM    4  N   UNK N   1      35.056  17.924   9.315  0.00  0.00    -0.348 N 
ATOM      5  HN  UNK N   1      35.743  18.408   9.893  1.00  0.00     0.167 HD
HETATM    6  C   UNK N   1      34.588  18.521   8.187  0.00  0.00     0.181 C 
HETATM    7  N   UNK N   1      33.803  17.814   7.332  0.00  0.00    -0.348 N 
ATOM      8  HN  UNK N   1      33.511  18.230   6.448  1.00  0.00     0.167 HD
ENDROOT
BRANCH   1   9
HETATM    9  C   UNK N   1      32.840  15.657   6.649  0.00  0.00     0.272 C 
HETATM   10  N   UNK N   1      31.580  15.193   6.787  0.00  0.00    -0.319 N 
HETATM   11  H   UNK N   1      31.473  14.268   7.103  0.00  0.00     0.169 HD
HETATM   12  O   UNK N   1      33.600  15.094   5.873  0.00  0.00    -0.266 OA
BRANCH  10  13
HETATM   13  C   UNK N   1      30.391  15.931   6.516  0.00  0.00     0.071 A 
HETATM   14  C   UNK N   1      30.077  16.983   7.377  0.00  0.00     0.048 A 
HETATM   15  C   UNK N   1      28.806  17.565   7.372  0.00  0.00     0.052 A 
HETATM   16  C   UNK N   1      27.806  17.011   6.566  0.00  0.00     0.048 A 
HETATM   17  C   UNK N   1      28.113  15.967   5.685  0.00  0.00     0.071 A 
HETATM   18  C   UNK N   1      29.417  15.465   5.601  0.00  0.00     0.122 A 
BRANCH  15  19
HETATM   19  C   UNK N   1      28.515  18.698   8.311  0.00  0.00     0.417 C 
HETATM   20  F   UNK N   1      29.690  19.090   8.926  0.00  0.00    -0.166 F 
HETATM   21  F   UNK N   1      27.997  19.769   7.604  0.00  0.00    -0.166 F 
HETATM   22  F   UNK N   1      27.604  18.325   9.285  0.00  0.00    -0.166 F 
ENDBRANCH  15  19
BRANCH  17  23
HETATM   23  N   UNK N   1      27.098  15.220   5.044  0.00  0.00    -0.325 N 
HETATM   24  C   UNK N   1      26.433  15.706   3.961  0.00  0.00     0.222 C 
HETATM   25  O   UNK N   1      26.790  16.743   3.420  0.00  0.00    -0.273 OA
HETATM   26  H   UNK N   1      26.867  14.327   5.390  0.00  0.00     0.169 HD
BRANCH  24  27
HETATM   27  C   UNK N   1      25.173  15.055   3.499  0.00  0.00     0.103 C 
BRANCH  27  28
HETATM   28  C   UNK N   1      23.983  16.001   3.542  0.00  0.00     0.011 C 
BRANCH  28  29
HETATM   29  C   UNK N   1      23.751  16.553   4.942  0.00  0.00     0.021 C 
BRANCH  29  30
HETATM   30  C   UNK N   1      23.409  18.039   4.926  0.00  0.00     0.138 C 
BRANCH  30  31
HETATM   31  N   UNK N   1      24.232  18.687   3.935  0.00  0.00    -0.227 N 
HETATM   32  C   UNK N   1      25.295  19.563   4.276  0.00  0.00     0.665 C 
HETATM   33  N   UNK N   1      25.897  20.213   3.352  0.00  0.00    -0.235 N 
HETATM   34  N   UNK N   1      25.647  19.781   5.628  0.00  0.00    -0.235 N 
HETATM   35  H   UNK N   1      26.338  21.079   3.198  0.00  0.00     0.174 HD
ATOM     36  HN  UNK N   1      25.931  19.651   2.501  1.00  0.00     0.174 HD
HETATM   37  H   UNK N   1      25.064  19.665   6.413  0.00  0.00     0.174 HD
HETATM   38  H   UNK N   1      26.570  20.080   5.802  0.00  0.00     0.174 HD
HETATM   39  H   UNK N   1      24.048  18.515   2.982  0.00  0.00     0.177 HD
ENDBRANCH  30  31
ENDBRANCH  29  30
ENDBRANCH  28  29
ENDBRANCH  27  28
ENDBRANCH  24  27
ENDBRANCH  17  23
BRANCH  18  40
HETATM   40  O   UNK N   1      29.680  14.472   4.717  0.00  0.00    -0.340 OA
BRANCH  40  41
HETATM   41  C   UNK N   1      29.896  14.765   3.373  0.00  0.00     0.148 C 
HETATM   42  C   UNK N   1      30.234  16.217   3.199  0.00  0.00     0.053 C 
HETATM   43  C   UNK N   1      31.741  16.266   3.313  0.00  0.00     0.116 C 
HETATM   44  N   UNK N   1      32.266  14.951   2.963  0.00  0.00    -0.419 N 
HETATM   45  C   UNK N   1      31.118  14.064   2.807  0.00  0.00     0.146 C 
HETATM   46  H   UNK N   1      33.248  14.700   2.849  0.00  0.00     0.153 HD
ENDBRANCH  40  41
ENDBRANCH  18  40
ENDBRANCH  10  13
ENDBRANCH   1   9
BRANCH   3  47
HETATM   47  C   UNK N   1      35.482  15.842  10.463  0.00  0.00     0.272 C 
HETATM   48  O   UNK N   1      36.601  16.194  10.805  0.00  0.00    -0.266 OA
HETATM   49  N   UNK N   1      34.908  14.718  10.948  0.00  0.00    -0.319 N 
HETATM   50  H   UNK N   1      33.963  14.556  10.728  0.00  0.00     0.169 HD
BRANCH  49  51
HETATM   51  C   UNK N   1      35.564  13.767  11.739  0.00  0.00     0.071 A 
HETATM   52  C   UNK N   1      35.586  13.962  13.119  0.00  0.00     0.048 A 
HETATM   53  C   UNK N   1      36.192  13.032  13.957  0.00  0.00     0.052 A 
HETATM   54  C   UNK N   1      36.766  11.885  13.400  0.00  0.00     0.048 A 
HETATM   55  C   UNK N   1      36.745  11.658  12.016  0.00  0.00     0.071 A 
HETATM   56  C   UNK N   1      36.149  12.618  11.156  0.00  0.00     0.122 A 
BRANCH  53  57
HETATM   57  C   UNK N   1      36.251  13.267  15.442  0.00  0.00     0.417 C 
HETATM   58  F   UNK N   1      37.108  14.315  15.718  0.00  0.00    -0.166 F 
HETATM   59  F   UNK N   1      34.986  13.579  15.909  0.00  0.00    -0.166 F 
HETATM   60  F   UNK N   1      36.699  12.138  16.111  0.00  0.00    -0.166 F 
ENDBRANCH  53  57
BRANCH  55  61
HETATM   61  N   UNK N   1      37.412  10.499  11.524  0.00  0.00    -0.325 N 
HETATM   62  C   UNK N   1      37.000   9.205  11.614  0.00  0.00     0.222 C 
HETATM   63  O   UNK N   1      37.593   8.355  10.972  0.00  0.00    -0.273 OA
HETATM   64  H   UNK N   1      38.270  10.652  11.066  0.00  0.00     0.169 HD
BRANCH  62  65
HETATM   65  C   UNK N   1      35.853   8.790  12.492  0.00  0.00     0.103 C 
BRANCH  65  66
HETATM   66  C   UNK N   1      34.574   8.454  11.736  0.00  0.00     0.011 C 
BRANCH  66  67
HETATM   67  C   UNK N   1      33.658   9.666  11.514  0.00  0.00     0.021 C 
BRANCH  67  68
HETATM   68  C   UNK N   1      32.691   9.553  10.332  0.00  0.00     0.138 C 
BRANCH  68  69
HETATM   69  N   UNK N   1      32.520  10.820   9.663  0.00  0.00    -0.227 N 
HETATM   70  C   UNK N   1      33.389  11.250   8.632  0.00  0.00     0.665 C 
HETATM   71  N   UNK N   1      34.313  10.478   8.191  0.00  0.00    -0.235 N 
HETATM   72  N   UNK N   1      33.226  12.535   8.071  0.00  0.00    -0.235 N 
HETATM   73  H   UNK N   1      35.120  10.846   7.764  0.00  0.00     0.174 HD
ATOM     74  HN  UNK N   1      34.211   9.467   8.286  1.00  0.00     0.174 HD
HETATM   75  H   UNK N   1      32.440  13.111   8.211  0.00  0.00     0.174 HD
HETATM   76  H   UNK N   1      33.949  12.879   7.500  0.00  0.00     0.174 HD
HETATM   77  H   UNK N   1      31.774  11.404   9.933  0.00  0.00     0.177 HD
ENDBRANCH  68  69
ENDBRANCH  67  68
ENDBRANCH  66  67
ENDBRANCH  65  66
ENDBRANCH  62  65
ENDBRANCH  55  61
BRANCH  56  78
HETATM   78  O   UNK N   1      36.171  12.417   9.802  0.00  0.00    -0.340 OA
BRANCH  78  79
HETATM   79  C   UNK N   1      37.132  12.860   8.917  0.00  0.00     0.148 C 
HETATM   80  C   UNK N   1      36.567  13.644   7.777  0.00  0.00     0.053 C 
HETATM   81  C   UNK N   1      37.648  13.500   6.722  0.00  0.00     0.116 C 
HETATM   82  N   UNK N   1      38.418  12.291   7.019  0.00  0.00    -0.419 N 
HETATM   83  C   UNK N   1      37.836  11.726   8.229  0.00  0.00     0.146 C 
HETATM   84  H   UNK N   1      39.206  11.921   6.486  0.00  0.00     0.153 HD
ENDBRANCH  78  79
ENDBRANCH  56  78
ENDBRANCH  49  51
ENDBRANCH   3  47
TORSDOF 22
ENDMDL
MODEL 7
REMARK VINA RESULT:      -8.6      4.082     12.229
REMARK  22 active torsions:
REMARK  status: ('A' for Active; 'I' for Inactive)
REMARK    1  A    between atoms: C_2  and  C_67 
REMARK    2  A    between atoms: C_4  and  N_25 
REMARK    3  A    between atoms: C_5  and  O_19 
REMARK    4  A    between atoms: C_6  and  N_7 
REMARK       I    between atoms: N_7  and  C_8 
REMARK    5  A    between atoms: C_8  and  C_10 
REMARK    6  A    between atoms: C_10  and  C_11 
REMARK    7  A    between atoms: C_11  and  C_12 
REMARK    8  A    between atoms: C_12  and  C_13 
REMARK    9  A    between atoms: C_13  and  N_14 
REMARK       I    between atoms: N_14  and  C_15 
REMARK       I    between atoms: C_15  and  N_18 
REMARK   10  A    between atoms: C_20  and  O_19 
REMARK       I    between atoms: N_25  and  C_26 
REMARK   11  A    between atoms: C_26  and  C_28 
REMARK   12  A    between atoms: C_30  and  C_36 
REMARK       I    between atoms: C_36  and  N_38 
REMARK   13  A    between atoms: N_38  and  C_39 
REMARK   14  A    between atoms: C_41  and  C_63 
REMARK   15  A    between atoms: C_43  and  N_51 
REMARK   16  A    between atoms: C_44  and  O_45 
REMARK   17  A    between atoms: C_46  and  O_45 
REMARK       I    between atoms: N_51  and  C_52 
REMARK   18  A    between atoms: C_52  and  C_54 
REMARK   19  A    between atoms: C_54  and  C_55 
REMARK   20  A    between atoms: C_55  and  C_56 
REMARK   21  A    between atoms: C_56  and  C_57 
REMARK   22  A    between atoms: C_57  and  N_58 
REMARK       I    between atoms: N_58  and  C_59 
REMARK       I    between atoms: C_59  and  N_62 
ROOT
HETATM    1  C   UNK N   1      34.175  15.319   9.504  0.00  0.00     0.104 C 
HETATM    2  C   UNK N   1      34.215  14.478  10.596  0.00  0.00     0.070 C 
HETATM    3  C   UNK N   1      34.969  14.825  11.684  0.00  0.00     0.104 C 
HETATM    4  N   UNK N   1      35.689  15.981  11.658  0.00  0.00    -0.348 N 
ATOM      5  HN  UNK N   1      36.326  16.194  12.425  1.00  0.00     0.167 HD
HETATM    6  C   UNK N   1      35.570  16.853  10.622  0.00  0.00     0.181 C 
HETATM    7  N   UNK N   1      34.852  16.496   9.525  0.00  0.00    -0.348 N 
ATOM      8  HN  UNK N   1      34.822  17.113   8.714  1.00  0.00     0.167 HD
ENDROOT
BRANCH   1   9
HETATM    9  C   UNK N   1      33.663  14.755   8.260  0.00  0.00     0.272 C 
HETATM   10  N   UNK N   1      32.336  14.758   8.009  0.00  0.00    -0.319 N 
HETATM   11  H   UNK N   1      31.853  13.910   8.129  0.00  0.00     0.169 HD
HETATM   12  O   UNK N   1      34.391  14.018   7.608  0.00  0.00    -0.266 OA
BRANCH  10  13
HETATM   13  C   UNK N   1      31.576  15.887   7.585  0.00  0.00     0.071 A 
HETATM   14  C   UNK N   1      30.876  16.595   8.563  0.00  0.00     0.048 A 
HETATM   15  C   UNK N   1      29.885  17.517   8.216  0.00  0.00     0.052 A 
HETATM   16  C   UNK N   1      29.518  17.650   6.872  0.00  0.00     0.048 A 
HETATM   17  C   UNK N   1      30.224  16.958   5.880  0.00  0.00     0.071 A 
HETATM   18  C   UNK N   1      31.299  16.128   6.218  0.00  0.00     0.122 A 
BRANCH  15  19
HETATM   19  C   UNK N   1      29.163  18.259   9.301  0.00  0.00     0.417 C 
HETATM   20  F   UNK N   1      28.599  17.349  10.175  0.00  0.00    -0.166 F 
HETATM   21  F   UNK N   1      30.057  19.057   9.994  0.00  0.00    -0.166 F 
HETATM   22  F   UNK N   1      28.160  19.061   8.782  0.00  0.00    -0.166 F 
ENDBRANCH  15  19
BRANCH  17  23
HETATM   23  N   UNK N   1      29.737  16.867   4.556  0.00  0.00    -0.325 N 
HETATM   24  C   UNK N   1      28.899  15.865   4.174  0.00  0.00     0.222 C 
HETATM   25  O   UNK N   1      28.426  15.095   4.998  0.00  0.00    -0.273 OA
HETATM   26  H   UNK N   1      30.010  17.545   3.895  0.00  0.00     0.169 HD
BRANCH  24  27
HETATM   27  C   UNK N   1      28.651  15.606   2.726  0.00  0.00     0.103 C 
BRANCH  27  28
HETATM   28  C   UNK N   1      27.311  14.927   2.481  0.00  0.00     0.011 C 
BRANCH  28  29
HETATM   29  C   UNK N   1      26.191  15.940   2.298  0.00  0.00     0.021 C 
BRANCH  29  30
HETATM   30  C   UNK N   1      24.975  15.616   3.161  0.00  0.00     0.138 C 
BRANCH  30  31
HETATM   31  N   UNK N   1      25.425  15.348   4.503  0.00  0.00    -0.227 N 
HETATM   32  C   UNK N   1      25.366  16.317   5.539  0.00  0.00     0.665 C 
HETATM   33  N   UNK N   1      25.908  16.063   6.671  0.00  0.00    -0.235 N 
HETATM   34  N   UNK N   1      24.782  17.583   5.312  0.00  0.00    -0.235 N 
HETATM   35  H   UNK N   1      26.377  16.518   7.406  0.00  0.00     0.174 HD
ATOM     36  HN  UNK N   1      25.827  15.066   6.877  1.00  0.00     0.174 HD
HETATM   37  H   UNK N   1      24.681  18.037   4.444  0.00  0.00     0.174 HD
HETATM   38  H   UNK N   1      24.439  18.061   6.103  0.00  0.00     0.174 HD
HETATM   39  H   UNK N   1      25.789  14.456   4.710  0.00  0.00     0.177 HD
ENDBRANCH  30  31
ENDBRANCH  29  30
ENDBRANCH  28  29
ENDBRANCH  27  28
ENDBRANCH  24  27
ENDBRANCH  17  23
BRANCH  18  40
HETATM   40  O   UNK N   1      31.974  15.496   5.227  0.00  0.00    -0.340 OA
BRANCH  40  41
HETATM   41  C   UNK N   1      33.192  15.996   4.776  0.00  0.00     0.148 C 
HETATM   42  C   UNK N   1      34.111  14.874   4.388  0.00  0.00     0.053 C 
HETATM   43  C   UNK N   1      33.817  14.642   2.923  0.00  0.00     0.116 C 
HETATM   44  N   UNK N   1      33.269  15.873   2.368  0.00  0.00    -0.419 N 
HETATM   45  C   UNK N   1      33.062  16.787   3.486  0.00  0.00     0.146 C 
HETATM   46  H   UNK N   1      33.068  16.060   1.385  0.00  0.00     0.153 HD
ENDBRANCH  40  41
ENDBRANCH  18  40
ENDBRANCH  10  13
ENDBRANCH   1   9
BRANCH   3  47
HETATM   47  C   UNK N   1      35.490  13.689  12.393  0.00  0.00     0.272 C 
HETATM   48  O   UNK N   1      36.683  13.557  12.622  0.00  0.00    -0.266 OA
HETATM   49  N   UNK N   1      34.563  12.877  12.950  0.00  0.00    -0.319 N 
HETATM   50  H   UNK N   1      33.615  13.112  12.824  0.00  0.00     0.169 HD
BRANCH  49  51
HETATM   51  C   UNK N   1      34.854  11.727  13.692  0.00  0.00     0.071 A 
HETATM   52  C   UNK N   1      35.026  11.858  15.069  0.00  0.00     0.048 A 
HETATM   53  C   UNK N   1      35.282  10.744  15.861  0.00  0.00     0.052 A 
HETATM   54  C   UNK N   1      35.349   9.482  15.262  0.00  0.00     0.048 A 
HETATM   55  C   UNK N   1      35.167   9.322  13.881  0.00  0.00     0.071 A 
HETATM   56  C   UNK N   1      34.930  10.460  13.066  0.00  0.00     0.122 A 
BRANCH  53  57
HETATM   57  C   UNK N   1      35.507  10.895  17.341  0.00  0.00     0.417 C 
HETATM   58  F   UNK N   1      35.389  12.224  17.701  0.00  0.00    -0.166 F 
HETATM   59  F   UNK N   1      34.563  10.153  18.029  0.00  0.00    -0.166 F 
HETATM   60  F   UNK N   1      36.767  10.446  17.705  0.00  0.00    -0.166 F 
ENDBRANCH  53  57
BRANCH  55  61
HETATM   61  N   UNK N   1      35.319   8.012  13.340  0.00  0.00    -0.325 N 
HETATM   62  C   UNK N   1      36.424   7.485  12.746  0.00  0.00     0.222 C 
HETATM   63  O   UNK N   1      36.450   6.288  12.512  0.00  0.00    -0.273 OA
HETATM   64  H   UNK N   1      34.535   7.421  13.402  0.00  0.00     0.169 HD
BRANCH  62  65
HETATM   65  C   UNK N   1      37.603   8.331  12.354  0.00  0.00     0.103 C 
BRANCH  65  66
HETATM   66  C   UNK N   1      37.697   8.622  10.862  0.00  0.00     0.011 C 
BRANCH  66  67
HETATM   67  C   UNK N   1      38.512   9.882  10.534  0.00  0.00     0.021 C 
BRANCH  67  68
HETATM   68  C   UNK N   1      37.856  10.852   9.546  0.00  0.00     0.138 C 
BRANCH  68  69
HETATM   69  N   UNK N   1      37.734  12.176  10.106  0.00  0.00    -0.227 N 
HETATM   70  C   UNK N   1      38.401  13.293   9.548  0.00  0.00     0.665 C 
HETATM   71  N   UNK N   1      39.072  13.178   8.461  0.00  0.00    -0.235 N 
HETATM   72  N   UNK N   1      38.313  14.549  10.186  0.00  0.00    -0.235 N 
HETATM   73  H   UNK N   1      39.806  13.799   8.251  0.00  0.00     0.174 HD
ATOM     74  HN  UNK N   1      38.840  12.433   7.803  1.00  0.00     0.174 HD
HETATM   75  H   UNK N   1      37.677  14.769  10.905  0.00  0.00     0.174 HD
HETATM   76  H   UNK N   1      38.932  15.255   9.891  0.00  0.00     0.174 HD
HETATM   77  H   UNK N   1      37.168  12.306  10.900  0.00  0.00     0.177 HD
ENDBRANCH  68  69
ENDBRANCH  67  68
ENDBRANCH  66  67
ENDBRANCH  65  66
ENDBRANCH  62  65
ENDBRANCH  55  61
BRANCH  56  78
HETATM   78  O   UNK N   1      34.799  10.306  11.712  0.00  0.00    -0.340 OA
BRANCH  78  79
HETATM   79  C   UNK N   1      33.621  10.296  10.992  0.00  0.00     0.148 C 
HETATM   80  C   UNK N   1      33.210   8.928  10.552  0.00  0.00     0.053 C 
HETATM   81  C   UNK N   1      32.309   9.229   9.370  0.00  0.00     0.116 C 
HETATM   82  N   UNK N   1      32.667  10.548   8.846  0.00  0.00    -0.419 N 
HETATM   83  C   UNK N   1      33.742  11.044   9.697  0.00  0.00     0.146 C 
HETATM   84  H   UNK N   1      32.248  11.025   8.048  0.00  0.00     0.153 HD
ENDBRANCH  78  79
ENDBRANCH  56  78
ENDBRANCH  49  51
ENDBRANCH   3  47
TORSDOF 22
ENDMDL
MODEL 8
REMARK VINA RESULT:      -8.6      2.278      3.675
REMARK  22 active torsions:
REMARK  status: ('A' for Active; 'I' for Inactive)
REMARK    1  A    between atoms: C_2  and  C_67 
REMARK    2  A    between atoms: C_4  and  N_25 
REMARK    3  A    between atoms: C_5  and  O_19 
REMARK    4  A    between atoms: C_6  and  N_7 
REMARK       I    between atoms: N_7  and  C_8 
REMARK    5  A    between atoms: C_8  and  C_10 
REMARK    6  A    between atoms: C_10  and  C_11 
REMARK    7  A    between atoms: C_11  and  C_12 
REMARK    8  A    between atoms: C_12  and  C_13 
REMARK    9  A    between atoms: C_13  and  N_14 
REMARK       I    between atoms: N_14  and  C_15 
REMARK       I    between atoms: C_15  and  N_18 
REMARK   10  A    between atoms: C_20  and  O_19 
REMARK       I    between atoms: N_25  and  C_26 
REMARK   11  A    between atoms: C_26  and  C_28 
REMARK   12  A    between atoms: C_30  and  C_36 
REMARK       I    between atoms: C_36  and  N_38 
REMARK   13  A    between atoms: N_38  and  C_39 
REMARK   14  A    between atoms: C_41  and  C_63 
REMARK   15  A    between atoms: C_43  and  N_51 
REMARK   16  A    between atoms: C_44  and  O_45 
REMARK   17  A    between atoms: C_46  and  O_45 
REMARK       I    between atoms: N_51  and  C_52 
REMARK   18  A    between atoms: C_52  and  C_54 
REMARK   19  A    between atoms: C_54  and  C_55 
REMARK   20  A    between atoms: C_55  and  C_56 
REMARK   21  A    between atoms: C_56  and  C_57 
REMARK   22  A    between atoms: C_57  and  N_58 
REMARK       I    between atoms: N_58  and  C_59 
REMARK       I    between atoms: C_59  and  N_62 
ROOT
HETATM    1  C   UNK N   1      28.168  17.661   3.503  0.00  0.00     0.104 C 
HETATM    2  C   UNK N   1      27.087  16.820   3.349  0.00  0.00     0.070 C 
HETATM    3  C   UNK N   1      25.832  17.277   3.652  0.00  0.00     0.104 C 
HETATM    4  N   UNK N   1      25.678  18.544   4.129  0.00  0.00    -0.348 N 
ATOM      5  HN  UNK N   1      24.760  18.853   4.446  1.00  0.00     0.167 HD
HETATM    6  C   UNK N   1      26.732  19.400   4.187  0.00  0.00     0.181 C 
HETATM    7  N   UNK N   1      27.983  18.940   3.922  0.00  0.00    -0.348 N 
ATOM      8  HN  UNK N   1      28.787  19.558   4.037  1.00  0.00     0.167 HD
ENDROOT
BRANCH   1   9
HETATM    9  C   UNK N   1      29.487  17.039   3.513  0.00  0.00     0.272 C 
HETATM   10  N   UNK N   1      30.411  17.420   4.421  0.00  0.00    -0.319 N 
HETATM   11  H   UNK N   1      31.130  18.014   4.110  0.00  0.00     0.169 HD
HETATM   12  O   UNK N   1      29.846  16.414   2.524  0.00  0.00    -0.266 OA
BRANCH  10  13
HETATM   13  C   UNK N   1      30.431  17.035   5.793  0.00  0.00     0.071 A 
HETATM   14  C   UNK N   1      29.465  17.592   6.632  0.00  0.00     0.048 A 
HETATM   15  C   UNK N   1      29.583  17.511   8.022  0.00  0.00     0.052 A 
HETATM   16  C   UNK N   1      30.741  16.956   8.577  0.00  0.00     0.048 A 
HETATM   17  C   UNK N   1      31.710  16.378   7.747  0.00  0.00     0.071 A 
HETATM   18  C   UNK N   1      31.534  16.349   6.358  0.00  0.00     0.122 A 
BRANCH  15  19
HETATM   19  C   UNK N   1      28.517  18.119   8.885  0.00  0.00     0.417 C 
HETATM   20  F   UNK N   1      27.858  19.099   8.166  0.00  0.00    -0.166 F 
HETATM   21  F   UNK N   1      27.607  17.145   9.258  0.00  0.00    -0.166 F 
HETATM   22  F   UNK N   1      29.055  18.687  10.027  0.00  0.00    -0.166 F 
ENDBRANCH  15  19
BRANCH  17  23
HETATM   23  N   UNK N   1      32.991  16.036   8.236  0.00  0.00    -0.325 N 
HETATM   24  C   UNK N   1      33.234  14.827   8.812  0.00  0.00     0.222 C 
HETATM   25  O   UNK N   1      32.388  13.944   8.796  0.00  0.00    -0.273 OA
HETATM   26  H   UNK N   1      33.726  16.688   8.157  0.00  0.00     0.169 HD
BRANCH  24  27
HETATM   27  C   UNK N   1      34.485  14.605   9.594  0.00  0.00     0.103 C 
BRANCH  27  28
HETATM   28  C   UNK N   1      35.293  15.883   9.767  0.00  0.00     0.011 C 
BRANCH  28  29
HETATM   29  C   UNK N   1      35.656  16.127  11.225  0.00  0.00     0.021 C 
BRANCH  29  30
HETATM   30  C   UNK N   1      35.526  14.864  12.070  0.00  0.00     0.138 C 
BRANCH  30  31
HETATM   31  N   UNK N   1      36.477  14.936  13.151  0.00  0.00    -0.227 N 
HETATM   32  C   UNK N   1      36.395  14.109  14.301  0.00  0.00     0.665 C 
HETATM   33  N   UNK N   1      37.187  14.317  15.284  0.00  0.00    -0.235 N 
HETATM   34  N   UNK N   1      35.403  13.107  14.402  0.00  0.00    -0.235 N 
HETATM   35  H   UNK N   1      37.208  14.260  16.267  0.00  0.00     0.174 HD
ATOM     36  HN  UNK N   1      38.088  14.649  14.938  1.00  0.00     0.174 HD
HETATM   37  H   UNK N   1      34.538  13.087  13.931  0.00  0.00     0.174 HD
HETATM   38  H   UNK N   1      35.596  12.352  15.004  0.00  0.00     0.174 HD
HETATM   39  H   UNK N   1      37.214  15.587  13.088  0.00  0.00     0.177 HD
ENDBRANCH  30  31
ENDBRANCH  29  30
ENDBRANCH  28  29
ENDBRANCH  27  28
ENDBRANCH  24  27
ENDBRANCH  17  23
BRANCH  18  40
HETATM   40  O   UNK N   1      32.481  15.758   5.591  0.00  0.00    -0.340 OA
BRANCH  40  41
HETATM   41  C   UNK N   1      32.153  14.678   4.776  0.00  0.00     0.148 C 
HETATM   42  C   UNK N   1      33.391  13.947   4.346  0.00  0.00     0.053 C 
HETATM   43  C   UNK N   1      33.600  12.902   5.418  0.00  0.00     0.116 C 
HETATM   44  N   UNK N   1      32.312  12.634   6.049  0.00  0.00    -0.419 N 
HETATM   45  C   UNK N   1      31.366  13.605   5.510  0.00  0.00     0.146 C 
HETATM   46  H   UNK N   1      32.111  11.907   6.736  0.00  0.00     0.153 HD
ENDBRANCH  40  41
ENDBRANCH  18  40
ENDBRANCH  10  13
ENDBRANCH   1   9
BRANCH   3  47
HETATM   47  C   UNK N   1      24.954  16.239   4.118  0.00  0.00     0.272 C 
HETATM   48  O   UNK N   1      25.004  15.100   3.678  0.00  0.00    -0.266 OA
HETATM   49  N   UNK N   1      24.205  16.554   5.199  0.00  0.00    -0.319 N 
HETATM   50  H   UNK N   1      24.304  17.458   5.576  0.00  0.00     0.169 HD
BRANCH  49  51
HETATM   51  C   UNK N   1      23.297  15.688   5.818  0.00  0.00     0.071 A 
HETATM   52  C   UNK N   1      23.740  14.941   6.909  0.00  0.00     0.048 A 
HETATM   53  C   UNK N   1      22.873  14.090   7.586  0.00  0.00     0.052 A 
HETATM   54  C   UNK N   1      21.540  14.004   7.170  0.00  0.00     0.048 A 
HETATM   55  C   UNK N   1      21.066  14.755   6.084  0.00  0.00     0.071 A 
HETATM   56  C   UNK N   1      21.956  15.605   5.376  0.00  0.00     0.122 A 
BRANCH  53  57
HETATM   57  C   UNK N   1      23.365  13.256   8.737  0.00  0.00     0.417 C 
HETATM   58  F   UNK N   1      22.790  13.696   9.914  0.00  0.00    -0.166 F 
HETATM   59  F   UNK N   1      23.017  11.933   8.529  0.00  0.00    -0.166 F 
HETATM   60  F   UNK N   1      24.743  13.333   8.859  0.00  0.00    -0.166 F 
ENDBRANCH  53  57
BRANCH  55  61
HETATM   61  N   UNK N   1      19.713  14.557   5.681  0.00  0.00    -0.325 N 
HETATM   62  C   UNK N   1      19.260  13.797   4.647  0.00  0.00     0.222 C 
HETATM   63  O   UNK N   1      18.062  13.582   4.559  0.00  0.00    -0.273 OA
HETATM   64  H   UNK N   1      19.028  15.023   6.212  0.00  0.00     0.169 HD
BRANCH  62  65
HETATM   65  C   UNK N   1      20.182  13.233   3.604  0.00  0.00     0.103 C 
BRANCH  65  66
HETATM   66  C   UNK N   1      19.866  13.676   2.181  0.00  0.00     0.011 C 
BRANCH  66  67
HETATM   67  C   UNK N   1      21.059  14.321   1.461  0.00  0.00     0.021 C 
BRANCH  67  68
HETATM   68  C   UNK N   1      22.132  13.349   0.964  0.00  0.00     0.138 C 
BRANCH  68  69
HETATM   69  N   UNK N   1      23.256  13.291   1.868  0.00  0.00    -0.227 N 
HETATM   70  C   UNK N   1      23.660  12.085   2.490  0.00  0.00     0.665 C 
HETATM   71  N   UNK N   1      23.090  10.975   2.196  0.00  0.00    -0.235 N 
HETATM   72  N   UNK N   1      24.712  12.104   3.430  0.00  0.00    -0.235 N 
HETATM   73  H   UNK N   1      23.087  10.223   2.832  0.00  0.00     0.174 HD
ATOM     74  HN  UNK N   1      22.632  10.869   1.290  1.00  0.00     0.174 HD
HETATM   75  H   UNK N   1      25.323  12.863   3.573  0.00  0.00     0.174 HD
HETATM   76  H   UNK N   1      24.845  11.301   3.983  0.00  0.00     0.174 HD
HETATM   77  H   UNK N   1      23.756  14.117   2.057  0.00  0.00     0.177 HD
ENDBRANCH  68  69
ENDBRANCH  67  68
ENDBRANCH  66  67
ENDBRANCH  65  66
ENDBRANCH  62  65
ENDBRANCH  55  61
BRANCH  56  78
HETATM   78  O   UNK N   1      21.502  16.300   4.288  0.00  0.00    -0.340 OA
BRANCH  78  79
HETATM   79  C   UNK N   1      20.790  17.483   4.302  0.00  0.00     0.148 C 
HETATM   80  C   UNK N   1      19.848  17.618   3.149  0.00  0.00     0.053 C 
HETATM   81  C   UNK N   1      19.659  19.120   3.063  0.00  0.00     0.116 C 
HETATM   82  N   UNK N   1      20.819  19.762   3.684  0.00  0.00    -0.419 N 
HETATM   83  C   UNK N   1      21.679  18.682   4.152  0.00  0.00     0.146 C 
HETATM   84  H   UNK N   1      20.990  20.764   3.774  0.00  0.00     0.153 HD
ENDBRANCH  78  79
ENDBRANCH  56  78
ENDBRANCH  49  51
ENDBRANCH   3  47
TORSDOF 22
ENDMDL
MODEL 9
REMARK VINA RESULT:      -8.6      2.245      2.945
REMARK  22 active torsions:
REMARK  status: ('A' for Active; 'I' for Inactive)
REMARK    1  A    between atoms: C_2  and  C_67 
REMARK    2  A    between atoms: C_4  and  N_25 
REMARK    3  A    between atoms: C_5  and  O_19 
REMARK    4  A    between atoms: C_6  and  N_7 
REMARK       I    between atoms: N_7  and  C_8 
REMARK    5  A    between atoms: C_8  and  C_10 
REMARK    6  A    between atoms: C_10  and  C_11 
REMARK    7  A    between atoms: C_11  and  C_12 
REMARK    8  A    between atoms: C_12  and  C_13 
REMARK    9  A    between atoms: C_13  and  N_14 
REMARK       I    between atoms: N_14  and  C_15 
REMARK       I    between atoms: C_15  and  N_18 
REMARK   10  A    between atoms: C_20  and  O_19 
REMARK       I    between atoms: N_25  and  C_26 
REMARK   11  A    between atoms: C_26  and  C_28 
REMARK   12  A    between atoms: C_30  and  C_36 
REMARK       I    between atoms: C_36  and  N_38 
REMARK   13  A    between atoms: N_38  and  C_39 
REMARK   14  A    between atoms: C_41  and  C_63 
REMARK   15  A    between atoms: C_43  and  N_51 
REMARK   16  A    between atoms: C_44  and  O_45 
REMARK   17  A    between atoms: C_46  and  O_45 
REMARK       I    between atoms: N_51  and  C_52 
REMARK   18  A    between atoms: C_52  and  C_54 
REMARK   19  A    between atoms: C_54  and  C_55 
REMARK   20  A    between atoms: C_55  and  C_56 
REMARK   21  A    between atoms: C_56  and  C_57 
REMARK   22  A    between atoms: C_57  and  N_58 
REMARK       I    between atoms: N_58  and  C_59 
REMARK       I    between atoms: C_59  and  N_62 
ROOT
HETATM    1  C   UNK N   1      28.187  17.750   3.681  0.00  0.00     0.104 C 
HETATM    2  C   UNK N   1      27.041  16.988   3.767  0.00  0.00     0.070 C 
HETATM    3  C   UNK N   1      25.863  17.586   4.129  0.00  0.00     0.104 C 
HETATM    4  N   UNK N   1      25.851  18.915   4.427  0.00  0.00    -0.348 N 
ATOM      5  HN  UNK N   1      24.998  19.341   4.790  1.00  0.00     0.167 HD
HETATM    6  C   UNK N   1      26.960  19.680   4.247  0.00  0.00     0.181 C 
HETATM    7  N   UNK N   1      28.138  19.085   3.923  0.00  0.00    -0.348 N 
ATOM      8  HN  UNK N   1      28.989  19.644   3.861  1.00  0.00     0.167 HD
ENDROOT
BRANCH   1   9
HETATM    9  C   UNK N   1      29.453  17.027   3.644  0.00  0.00     0.272 C 
HETATM   10  N   UNK N   1      30.441  17.343   4.510  0.00  0.00    -0.319 N 
HETATM   11  H   UNK N   1      31.190  17.877   4.161  0.00  0.00     0.169 HD
HETATM   12  O   UNK N   1      29.721  16.367   2.650  0.00  0.00    -0.266 OA
BRANCH  10  13
HETATM   13  C   UNK N   1      30.489  16.970   5.884  0.00  0.00     0.071 A 
HETATM   14  C   UNK N   1      29.589  17.591   6.751  0.00  0.00     0.048 A 
HETATM   15  C   UNK N   1      29.753  17.516   8.137  0.00  0.00     0.052 A 
HETATM   16  C   UNK N   1      30.895  16.898   8.656  0.00  0.00     0.048 A 
HETATM   17  C   UNK N   1      31.797  16.256   7.797  0.00  0.00     0.071 A 
HETATM   18  C   UNK N   1      31.569  16.225   6.416  0.00  0.00     0.122 A 
BRANCH  15  19
HETATM   19  C   UNK N   1      28.757  18.194   9.030  0.00  0.00     0.417 C 
HETATM   20  F   UNK N   1      29.431  18.861  10.036  0.00  0.00    -0.166 F 
HETATM   21  F   UNK N   1      28.021  19.109   8.298  0.00  0.00    -0.166 F 
HETATM   22  F   UNK N   1      27.889  17.280   9.603  0.00  0.00    -0.166 F 
ENDBRANCH  15  19
BRANCH  17  23
HETATM   23  N   UNK N   1      33.073  15.843   8.244  0.00  0.00    -0.325 N 
HETATM   24  C   UNK N   1      33.254  14.654   8.881  0.00  0.00     0.222 C 
HETATM   25  O   UNK N   1      32.343  13.841   8.960  0.00  0.00    -0.273 OA
HETATM   26  H   UNK N   1      33.850  16.429   8.089  0.00  0.00     0.169 HD
BRANCH  24  27
HETATM   27  C   UNK N   1      34.524  14.379   9.613  0.00  0.00     0.103 C 
BRANCH  27  28
HETATM   28  C   UNK N   1      34.375  14.555  11.117  0.00  0.00     0.011 C 
BRANCH  28  29
HETATM   29  C   UNK N   1      35.703  14.891  11.780  0.00  0.00     0.021 C 
BRANCH  29  30
HETATM   30  C   UNK N   1      35.902  14.131  13.088  0.00  0.00     0.138 C 
BRANCH  30  31
HETATM   31  N   UNK N   1      36.765  14.909  13.941  0.00  0.00    -0.227 N 
HETATM   32  C   UNK N   1      36.859  14.689  15.340  0.00  0.00     0.665 C 
HETATM   33  N   UNK N   1      37.537  15.502  16.061  0.00  0.00    -0.235 N 
HETATM   34  N   UNK N   1      36.156  13.629  15.955  0.00  0.00    -0.235 N 
HETATM   35  H   UNK N   1      37.538  15.896  16.963  0.00  0.00     0.174 HD
ATOM     36  HN  UNK N   1      38.333  15.854  15.529  1.00  0.00     0.174 HD
HETATM   37  H   UNK N   1      35.341  13.190  15.617  0.00  0.00     0.174 HD
HETATM   38  H   UNK N   1      36.516  13.295  16.809  0.00  0.00     0.174 HD
HETATM   39  H   UNK N   1      37.312  15.622  13.537  0.00  0.00     0.177 HD
ENDBRANCH  30  31
ENDBRANCH  29  30
ENDBRANCH  28  29
ENDBRANCH  27  28
ENDBRANCH  24  27
ENDBRANCH  17  23
BRANCH  18  40
HETATM   40  O   UNK N   1      32.451  15.571   5.622  0.00  0.00    -0.340 OA
BRANCH  40  41
HETATM   41  C   UNK N   1      32.110  14.348   5.052  0.00  0.00     0.148 C 
HETATM   42  C   UNK N   1      32.331  14.379   3.568  0.00  0.00     0.053 C 
HETATM   43  C   UNK N   1      33.759  13.911   3.393  0.00  0.00     0.116 C 
HETATM   44  N   UNK N   1      34.119  13.108   4.555  0.00  0.00    -0.419 N 
HETATM   45  C   UNK N   1      33.017  13.216   5.504  0.00  0.00     0.146 C 
HETATM   46  H   UNK N   1      34.979  12.572   4.681  0.00  0.00     0.153 HD
ENDBRANCH  40  41
ENDBRANCH  18  40
ENDBRANCH  10  13
ENDBRANCH   1   9
BRANCH   3  47
HETATM   47  C   UNK N   1      24.977  16.700   4.833  0.00  0.00     0.272 C 
HETATM   48  O   UNK N   1      25.156  16.396   6.003  0.00  0.00    -0.266 OA
HETATM   49  N   UNK N   1      23.839  16.377   4.178  0.00  0.00    -0.319 N 
HETATM   50  H   UNK N   1      23.705  16.755   3.280  0.00  0.00     0.169 HD
BRANCH  49  51
HETATM   51  C   UNK N   1      22.838  15.542   4.687  0.00  0.00     0.071 A 
HETATM   52  C   UNK N   1      23.060  14.165   4.675  0.00  0.00     0.048 A 
HETATM   53  C   UNK N   1      22.116  13.289   5.200  0.00  0.00     0.052 A 
HETATM   54  C   UNK N   1      20.943  13.807   5.760  0.00  0.00     0.048 A 
HETATM   55  C   UNK N   1      20.702  15.188   5.796  0.00  0.00     0.071 A 
HETATM   56  C   UNK N   1      21.652  16.082   5.238  0.00  0.00     0.122 A 
BRANCH  53  57
HETATM   57  C   UNK N   1      22.341  11.803   5.149  0.00  0.00     0.417 C 
HETATM   58  F   UNK N   1      23.697  11.535   5.112  0.00  0.00    -0.166 F 
HETATM   59  F   UNK N   1      21.793  11.214   6.275  0.00  0.00    -0.166 F 
HETATM   60  F   UNK N   1      21.747  11.244   4.028  0.00  0.00    -0.166 F 
ENDBRANCH  53  57
BRANCH  55  61
HETATM   61  N   UNK N   1      19.451  15.629   6.320  0.00  0.00    -0.325 N 
HETATM   62  C   UNK N   1      19.203  16.123   7.564  0.00  0.00     0.222 C 
HETATM   63  O   UNK N   1      18.117  16.633   7.785  0.00  0.00    -0.273 OA
HETATM   64  H   UNK N   1      18.679  15.567   5.713  0.00  0.00     0.169 HD
BRANCH  62  65
HETATM   65  C   UNK N   1      20.213  16.045   8.673  0.00  0.00     0.103 C 
BRANCH  65  66
HETATM   66  C   UNK N   1      20.414  14.646   9.240  0.00  0.00     0.011 C 
BRANCH  66  67
HETATM   67  C   UNK N   1      21.880  14.188   9.236  0.00  0.00     0.021 C 
BRANCH  67  68
HETATM   68  C   UNK N   1      22.101  12.683   9.418  0.00  0.00     0.138 C 
BRANCH  68  69
HETATM   69  N   UNK N   1      22.935  12.404  10.562  0.00  0.00    -0.227 N 
HETATM   70  C   UNK N   1      22.393  12.022  11.813  0.00  0.00     0.665 C 
HETATM   71  N   UNK N   1      21.134  11.821  11.946  0.00  0.00    -0.235 N 
HETATM   72  N   UNK N   1      23.250  11.843  12.919  0.00  0.00    -0.235 N 
HETATM   73  H   UNK N   1      20.697  11.910  12.824  0.00  0.00     0.174 HD
ATOM     74  HN  UNK N   1      20.576  11.565  11.130  1.00  0.00     0.174 HD
HETATM   75  H   UNK N   1      24.232  11.790  12.865  0.00  0.00     0.174 HD
HETATM   76  H   UNK N   1      22.837  11.767  13.809  0.00  0.00     0.174 HD
HETATM   77  H   UNK N   1      23.912  12.482  10.468  0.00  0.00     0.177 HD
ENDBRANCH  68  69
ENDBRANCH  67  68
ENDBRANCH  66  67
ENDBRANCH  65  66
ENDBRANCH  62  65
ENDBRANCH  55  61
BRANCH  56  78
HETATM   78  O   UNK N   1      21.392  17.427   5.234  0.00  0.00    -0.340 OA
BRANCH  78  79
HETATM   79  C   UNK N   1      20.696  18.130   4.271  0.00  0.00     0.148 C 
HETATM   80  C   UNK N   1      20.504  17.363   3.003  0.00  0.00     0.053 C 
HETATM   81  C   UNK N   1      20.279  18.469   1.990  0.00  0.00     0.116 C 
HETATM   82  N   UNK N   1      20.880  19.697   2.513  0.00  0.00    -0.419 N 
HETATM   83  C   UNK N   1      21.438  19.353   3.816  0.00  0.00     0.146 C 
HETATM   84  H   UNK N   1      20.902  20.610   2.059  0.00  0.00     0.153 HD
ENDBRANCH  78  79
ENDBRANCH  56  78
ENDBRANCH  49  51
ENDBRANCH   3  47
TORSDOF 22
ENDMDL
