MODEL 1
REMARK VINA RESULT:      -6.6      0.000      0.000
REMARK  16 active torsions:
REMARK  status: ('A' for Active; 'I' for Inactive)
REMARK    1  A    between atoms: C_6  and  N_7 
REMARK       I    between atoms: N_7  and  C_8 
REMARK       I    between atoms: C_8  and  N_10 
REMARK    2  A    between atoms: N_10  and  C_11 
REMARK    3  A    between atoms: C_11  and  C_12 
REMARK    4  A    between atoms: C_12  and  C_13 
REMARK    5  A    between atoms: C_13  and  C_14 
REMARK    6  A    between atoms: C_14  and  C_15 
REMARK    7  A    between atoms: C_15  and  C_16 
REMARK    8  A    between atoms: C_15  and  N_19 
REMARK    9  A    between atoms: C_16  and  O_18 
REMARK       I    between atoms: N_19  and  C_20 
REMARK       I    between atoms: C_20  and  N_22 
REMARK   10  A    between atoms: C_23  and  N_22 
REMARK   11  A    between atoms: C_23  and  C_24 
REMARK   12  A    between atoms: C_23  and  C_29 
REMARK   13  A    between atoms: C_24  and  C_25 
REMARK   14  A    between atoms: C_25  and  C_26 
REMARK   15  A    between atoms: C_26  and  O_28 
REMARK   16  A    between atoms: C_29  and  O_31 
ROOT
HETATM    1  C   UNK N   1      19.946  16.109   3.071  0.00  0.00     0.184 C 
ENDROOT
BRANCH   1   2
HETATM    2  C   UNK N   1      20.999  17.005   2.391  0.00  0.00     0.036 C 
BRANCH   2   3
HETATM    3  C   UNK N   1      20.421  18.232   1.691  0.00  0.00     0.004 C 
BRANCH   3   4
HETATM    4  C   UNK N   1      19.771  19.237   2.641  0.00  0.00     0.020 C 
BRANCH   4   5
HETATM    5  C   UNK N   1      20.762  19.980   3.539  0.00  0.00     0.124 C 
BRANCH   5   6
HETATM    6  N   UNK N   1      21.813  20.611   2.774  0.00  0.00    -0.343 N 
HETATM    7  C   UNK N   1      23.127  20.310   2.896  0.00  0.00     0.320 C 
HETATM    8  N   UNK N   1      23.548  19.419   3.839  0.00  0.00    -0.309 N 
HETATM    9  O   UNK N   1      23.928  20.879   2.171  0.00  0.00    -0.247 OA
HETATM   10  H   UNK N   1      22.862  18.998   4.405  0.00  0.00     0.170 HD
HETATM   11  H   UNK N   1      21.557  21.304   2.123  0.00  0.00     0.164 HD
BRANCH   8  12
HETATM   12  C   UNK N   1      24.907  19.050   4.067  0.00  0.00     0.036 A 
HETATM   13  C   UNK N   1      25.759  19.816   4.881  0.00  0.00     0.031 A 
HETATM   14  C   UNK N   1      27.062  19.389   5.144  0.00  0.00     0.020 A 
HETATM   15  C   UNK N   1      27.524  18.190   4.599  0.00  0.00     0.006 A 
HETATM   16  C   UNK N   1      26.692  17.431   3.771  0.00  0.00     0.020 A 
HETATM   17  I   UNK N   1      29.459  17.509   5.064  0.00  0.00    -0.045 I 
HETATM   18  C   UNK N   1      25.389  17.864   3.503  0.00  0.00     0.031 A 
ENDBRANCH   8  12
ENDBRANCH   5   6
ENDBRANCH   4   5
ENDBRANCH   3   4
ENDBRANCH   2   3
ENDBRANCH   1   2
BRANCH   1  19
HETATM   19  C   UNK N   1      19.877  14.687   2.564  0.00  0.00     0.163 C 
HETATM   20  O   UNK N   1      20.911  14.091   2.311  0.00  0.00    -0.648 OA
BRANCH  19  21
HETATM   21  O   UNK N   1      18.695  14.066   2.388  0.00  0.00    -0.775 OA
HETATM   22  H   UNK N   1      18.028  13.830   1.774  0.00  0.00     0.167 HD
ENDBRANCH  19  21
ENDBRANCH   1  19
BRANCH   1  23
HETATM   23  N   UNK N   1      20.140  16.089   4.508  0.00  0.00    -0.329 N 
HETATM   24  C   UNK N   1      19.112  16.044   5.402  0.00  0.00     0.317 C 
HETATM   25  O   UNK N   1      17.960  15.925   5.015  0.00  0.00    -0.247 OA
HETATM   26  N   UNK N   1      19.351  16.148   6.728  0.00  0.00    -0.329 N 
HETATM   27  H   UNK N   1      18.598  16.052   7.353  0.00  0.00     0.165 HD
HETATM   28  H   UNK N   1      21.062  16.109   4.856  0.00  0.00     0.165 HD
BRANCH  26  29
HETATM   29  C   UNK N   1      20.669  16.395   7.262  0.00  0.00     0.184 C 
BRANCH  29  30
HETATM   30  C   UNK N   1      20.705  16.197   8.780  0.00  0.00     0.046 C 
BRANCH  30  31
HETATM   31  C   UNK N   1      19.371  15.746   9.370  0.00  0.00     0.112 C 
BRANCH  31  32
HETATM   32  C   UNK N   1      18.321  16.797   9.216  0.00  0.00     0.139 C 
HETATM   33  O   UNK N   1      17.168  16.484   8.974  0.00  0.00    -0.650 OA
BRANCH  32  34
HETATM   34  O   UNK N   1      18.644  18.092   9.380  0.00  0.00    -0.776 OA
HETATM   35  H   UNK N   1      18.959  18.595   8.654  0.00  0.00     0.167 HD
ENDBRANCH  32  34
ENDBRANCH  31  32
ENDBRANCH  30  31
ENDBRANCH  29  30
BRANCH  29  36
HETATM   36  C   UNK N   1      21.132  17.757   6.840  0.00  0.00     0.163 C 
HETATM   37  O   UNK N   1      21.942  17.887   5.937  0.00  0.00    -0.648 OA
BRANCH  36  38
HETATM   38  O   UNK N   1      20.681  18.844   7.493  0.00  0.00    -0.775 OA
HETATM   39  H   UNK N   1      20.803  19.761   7.636  0.00  0.00     0.167 HD
ENDBRANCH  36  38
ENDBRANCH  29  36
ENDBRANCH  26  29
ENDBRANCH   1  23
TORSDOF 16
ENDMDL
MODEL 2
REMARK VINA RESULT:      -6.6      3.144      5.939
REMARK  16 active torsions:
REMARK  status: ('A' for Active; 'I' for Inactive)
REMARK    1  A    between atoms: C_6  and  N_7 
REMARK       I    between atoms: N_7  and  C_8 
REMARK       I    between atoms: C_8  and  N_10 
REMARK    2  A    between atoms: N_10  and  C_11 
REMARK    3  A    between atoms: C_11  and  C_12 
REMARK    4  A    between atoms: C_12  and  C_13 
REMARK    5  A    between atoms: C_13  and  C_14 
REMARK    6  A    between atoms: C_14  and  C_15 
REMARK    7  A    between atoms: C_15  and  C_16 
REMARK    8  A    between atoms: C_15  and  N_19 
REMARK    9  A    between atoms: C_16  and  O_18 
REMARK       I    between atoms: N_19  and  C_20 
REMARK       I    between atoms: C_20  and  N_22 
REMARK   10  A    between atoms: C_23  and  N_22 
REMARK   11  A    between atoms: C_23  and  C_24 
REMARK   12  A    between atoms: C_23  and  C_29 
REMARK   13  A    between atoms: C_24  and  C_25 
REMARK   14  A    between atoms: C_25  and  C_26 
REMARK   15  A    between atoms: C_26  and  O_28 
REMARK   16  A    between atoms: C_29  and  O_31 
ROOT
HETATM    1  C   UNK N   1      20.885  15.498   6.709  0.00  0.00     0.184 C 
ENDROOT
BRANCH   1   2
HETATM    2  C   UNK N   1      22.409  15.301   6.818  0.00  0.00     0.036 C 
BRANCH   2   3
HETATM    3  C   UNK N   1      23.154  15.433   5.492  0.00  0.00     0.004 C 
BRANCH   3   4
HETATM    4  C   UNK N   1      23.890  16.763   5.326  0.00  0.00     0.020 C 
BRANCH   4   5
HETATM    5  C   UNK N   1      25.406  16.664   5.505  0.00  0.00     0.124 C 
BRANCH   5   6
HETATM    6  N   UNK N   1      26.043  17.958   5.424  0.00  0.00    -0.343 N 
HETATM    7  C   UNK N   1      27.325  18.198   5.789  0.00  0.00     0.320 C 
HETATM    8  N   UNK N   1      28.082  17.210   6.348  0.00  0.00    -0.309 N 
HETATM    9  O   UNK N   1      27.775  19.323   5.642  0.00  0.00    -0.247 OA
HETATM   10  H   UNK N   1      27.666  16.324   6.454  0.00  0.00     0.170 HD
HETATM   11  H   UNK N   1      25.513  18.713   5.081  0.00  0.00     0.164 HD
BRANCH   8  12
HETATM   12  C   UNK N   1      29.430  17.363   6.788  0.00  0.00     0.036 A 
HETATM   13  C   UNK N   1      29.743  17.749   8.103  0.00  0.00     0.031 A 
HETATM   14  C   UNK N   1      31.072  17.818   8.524  0.00  0.00     0.020 A 
HETATM   15  C   UNK N   1      32.100  17.496   7.637  0.00  0.00     0.006 A 
HETATM   16  C   UNK N   1      31.801  17.130   6.322  0.00  0.00     0.020 A 
HETATM   17  I   UNK N   1      34.097  17.520   8.300  0.00  0.00    -0.045 I 
HETATM   18  C   UNK N   1      30.469  17.070   5.899  0.00  0.00     0.031 A 
ENDBRANCH   8  12
ENDBRANCH   5   6
ENDBRANCH   4   5
ENDBRANCH   3   4
ENDBRANCH   2   3
ENDBRANCH   1   2
BRANCH   1  19
HETATM   19  C   UNK N   1      20.239  16.218   7.870  0.00  0.00     0.163 C 
HETATM   20  O   UNK N   1      19.433  15.625   8.568  0.00  0.00    -0.648 OA
BRANCH  19  21
HETATM   21  O   UNK N   1      20.539  17.501   8.149  0.00  0.00    -0.775 OA
HETATM   22  H   UNK N   1      20.316  18.255   8.658  0.00  0.00     0.167 HD
ENDBRANCH  19  21
ENDBRANCH   1  19
BRANCH   1  23
HETATM   23  N   UNK N   1      20.543  16.184   5.478  0.00  0.00    -0.329 N 
HETATM   24  C   UNK N   1      19.363  16.000   4.821  0.00  0.00     0.317 C 
HETATM   25  O   UNK N   1      18.487  15.299   5.306  0.00  0.00    -0.247 OA
HETATM   26  N   UNK N   1      19.150  16.575   3.617  0.00  0.00    -0.329 N 
HETATM   27  H   UNK N   1      18.268  16.474   3.194  0.00  0.00     0.165 HD
HETATM   28  H   UNK N   1      21.197  16.815   5.097  0.00  0.00     0.165 HD
BRANCH  26  29
HETATM   29  C   UNK N   1      20.169  17.331   2.929  0.00  0.00     0.184 C 
BRANCH  29  30
HETATM   30  C   UNK N   1      19.674  18.734   2.565  0.00  0.00     0.046 C 
BRANCH  30  31
HETATM   31  C   UNK N   1      20.792  19.768   2.452  0.00  0.00     0.112 C 
BRANCH  31  32
HETATM   32  C   UNK N   1      20.739  20.491   1.148  0.00  0.00     0.139 C 
HETATM   33  O   UNK N   1      20.844  21.705   1.112  0.00  0.00    -0.650 OA
BRANCH  32  34
HETATM   34  O   UNK N   1      20.609  19.796   0.003  0.00  0.00    -0.776 OA
HETATM   35  H   UNK N   1      20.842  20.188  -0.816  0.00  0.00     0.167 HD
ENDBRANCH  32  34
ENDBRANCH  31  32
ENDBRANCH  30  31
ENDBRANCH  29  30
BRANCH  29  36
HETATM   36  C   UNK N   1      20.648  16.555   1.739  0.00  0.00     0.163 C 
HETATM   37  O   UNK N   1      21.404  15.607   1.879  0.00  0.00    -0.648 OA
BRANCH  36  38
HETATM   38  O   UNK N   1      20.277  16.935   0.503  0.00  0.00    -0.775 OA
HETATM   39  H   UNK N   1      19.854  16.669  -0.290  0.00  0.00     0.167 HD
ENDBRANCH  36  38
ENDBRANCH  29  36
ENDBRANCH  26  29
ENDBRANCH   1  23
TORSDOF 16
ENDMDL
MODEL 3
REMARK VINA RESULT:      -6.5     11.927     15.281
REMARK  16 active torsions:
REMARK  status: ('A' for Active; 'I' for Inactive)
REMARK    1  A    between atoms: C_6  and  N_7 
REMARK       I    between atoms: N_7  and  C_8 
REMARK       I    between atoms: C_8  and  N_10 
REMARK    2  A    between atoms: N_10  and  C_11 
REMARK    3  A    between atoms: C_11  and  C_12 
REMARK    4  A    between atoms: C_12  and  C_13 
REMARK    5  A    between atoms: C_13  and  C_14 
REMARK    6  A    between atoms: C_14  and  C_15 
REMARK    7  A    between atoms: C_15  and  C_16 
REMARK    8  A    between atoms: C_15  and  N_19 
REMARK    9  A    between atoms: C_16  and  O_18 
REMARK       I    between atoms: N_19  and  C_20 
REMARK       I    between atoms: C_20  and  N_22 
REMARK   10  A    between atoms: C_23  and  N_22 
REMARK   11  A    between atoms: C_23  and  C_24 
REMARK   12  A    between atoms: C_23  and  C_29 
REMARK   13  A    between atoms: C_24  and  C_25 
REMARK   14  A    between atoms: C_25  and  C_26 
REMARK   15  A    between atoms: C_26  and  O_28 
REMARK   16  A    between atoms: C_29  and  O_31 
ROOT
HETATM    1  C   UNK N   1      34.416  15.548   9.353  0.00  0.00     0.184 C 
ENDROOT
BRANCH   1   2
HETATM    2  C   UNK N   1      35.428  14.957   8.353  0.00  0.00     0.036 C 
BRANCH   2   3
HETATM    3  C   UNK N   1      36.028  13.621   8.784  0.00  0.00     0.004 C 
BRANCH   3   4
HETATM    4  C   UNK N   1      37.484  13.714   9.238  0.00  0.00     0.020 C 
BRANCH   4   5
HETATM    5  C   UNK N   1      37.722  13.248  10.676  0.00  0.00     0.124 C 
BRANCH   5   6
HETATM    6  N   UNK N   1      36.965  14.028  11.627  0.00  0.00    -0.343 N 
HETATM    7  C   UNK N   1      36.466  13.538  12.786  0.00  0.00     0.320 C 
HETATM    8  N   UNK N   1      36.589  12.213  13.087  0.00  0.00    -0.309 N 
HETATM    9  O   UNK N   1      35.874  14.297  13.537  0.00  0.00    -0.247 OA
HETATM   10  H   UNK N   1      37.066  11.643  12.441  0.00  0.00     0.170 HD
HETATM   11  H   UNK N   1      36.802  14.977  11.421  0.00  0.00     0.164 HD
BRANCH   8  12
HETATM   12  C   UNK N   1      36.080  11.590  14.265  0.00  0.00     0.036 A 
HETATM   13  C   UNK N   1      34.781  11.058  14.322  0.00  0.00     0.031 A 
HETATM   14  C   UNK N   1      34.338  10.390  15.466  0.00  0.00     0.020 A 
HETATM   15  C   UNK N   1      35.191  10.244  16.560  0.00  0.00     0.006 A 
HETATM   16  C   UNK N   1      36.479  10.787  16.521  0.00  0.00     0.020 A 
HETATM   17  I   UNK N   1      34.550   9.164  18.247  0.00  0.00    -0.045 I 
HETATM   18  C   UNK N   1      36.918  11.463  15.378  0.00  0.00     0.031 A 
ENDBRANCH   8  12
ENDBRANCH   5   6
ENDBRANCH   4   5
ENDBRANCH   3   4
ENDBRANCH   2   3
ENDBRANCH   1   2
BRANCH   1  19
HETATM   19  C   UNK N   1      34.951  16.642  10.248  0.00  0.00     0.163 C 
HETATM   20  O   UNK N   1      35.312  17.697   9.753  0.00  0.00    -0.648 OA
BRANCH  19  21
HETATM   21  O   UNK N   1      35.032  16.475  11.582  0.00  0.00    -0.775 OA
HETATM   22  H   UNK N   1      34.821  15.920  12.306  0.00  0.00     0.167 HD
ENDBRANCH  19  21
ENDBRANCH   1  19
BRANCH   1  23
HETATM   23  N   UNK N   1      33.238  16.036   8.662  0.00  0.00    -0.329 N 
HETATM   24  C   UNK N   1      32.240  15.222   8.216  0.00  0.00     0.317 C 
HETATM   25  O   UNK N   1      32.258  14.026   8.467  0.00  0.00    -0.247 OA
HETATM   26  N   UNK N   1      31.227  15.720   7.475  0.00  0.00    -0.329 N 
HETATM   27  H   UNK N   1      30.490  15.122   7.217  0.00  0.00     0.165 HD
HETATM   28  H   UNK N   1      33.155  17.006   8.507  0.00  0.00     0.165 HD
BRANCH  26  29
HETATM   29  C   UNK N   1      31.184  17.098   7.046  0.00  0.00     0.184 C 
BRANCH  29  30
HETATM   30  C   UNK N   1      29.746  17.616   6.969  0.00  0.00     0.046 C 
BRANCH  30  31
HETATM   31  C   UNK N   1      29.363  18.537   8.125  0.00  0.00     0.112 C 
BRANCH  31  32
HETATM   32  C   UNK N   1      28.707  17.782   9.232  0.00  0.00     0.139 C 
HETATM   33  O   UNK N   1      29.359  17.031   9.937  0.00  0.00    -0.650 OA
BRANCH  32  34
HETATM   34  O   UNK N   1      27.395  17.958   9.475  0.00  0.00    -0.776 OA
HETATM   35  H   UNK N   1      27.071  18.801   9.725  0.00  0.00     0.167 HD
ENDBRANCH  32  34
ENDBRANCH  31  32
ENDBRANCH  30  31
ENDBRANCH  29  30
BRANCH  29  36
HETATM   36  C   UNK N   1      31.926  17.241   5.751  0.00  0.00     0.163 C 
HETATM   37  O   UNK N   1      31.336  17.167   4.685  0.00  0.00    -0.648 OA
BRANCH  36  38
HETATM   38  O   UNK N   1      33.261  17.409   5.764  0.00  0.00    -0.775 OA
HETATM   39  H   UNK N   1      33.994  17.785   5.318  0.00  0.00     0.167 HD
ENDBRANCH  36  38
ENDBRANCH  29  36
ENDBRANCH  26  29
ENDBRANCH   1  23
TORSDOF 16
ENDMDL
MODEL 4
REMARK VINA RESULT:      -6.4      2.263      5.834
REMARK  16 active torsions:
REMARK  status: ('A' for Active; 'I' for Inactive)
REMARK    1  A    between atoms: C_6  and  N_7 
REMARK       I    between atoms: N_7  and  C_8 
REMARK       I    between atoms: C_8  and  N_10 
REMARK    2  A    between atoms: N_10  and  C_11 
REMARK    3  A    between atoms: C_11  and  C_12 
REMARK    4  A    between atoms: C_12  and  C_13 
REMARK    5  A    between atoms: C_13  and  C_14 
REMARK    6  A    between atoms: C_14  and  C_15 
REMARK    7  A    between atoms: C_15  and  C_16 
REMARK    8  A    between atoms: C_15  and  N_19 
REMARK    9  A    between atoms: C_16  and  O_18 
REMARK       I    between atoms: N_19  and  C_20 
REMARK       I    between atoms: C_20  and  N_22 
REMARK   10  A    between atoms: C_23  and  N_22 
REMARK   11  A    between atoms: C_23  and  C_24 
REMARK   12  A    between atoms: C_23  and  C_29 
REMARK   13  A    between atoms: C_24  and  C_25 
REMARK   14  A    between atoms: C_25  and  C_26 
REMARK   15  A    between atoms: C_26  and  O_28 
REMARK   16  A    between atoms: C_29  and  O_31 
ROOT
HETATM    1  C   UNK N   1      19.979  16.378   7.414  0.00  0.00     0.184 C 
ENDROOT
BRANCH   1   2
HETATM    2  C   UNK N   1      21.156  15.442   7.749  0.00  0.00     0.036 C 
BRANCH   2   3
HETATM    3  C   UNK N   1      20.744  14.009   8.077  0.00  0.00     0.004 C 
BRANCH   3   4
HETATM    4  C   UNK N   1      21.304  12.968   7.109  0.00  0.00     0.020 C 
BRANCH   4   5
HETATM    5  C   UNK N   1      21.028  13.272   5.635  0.00  0.00     0.124 C 
BRANCH   5   6
HETATM    6  N   UNK N   1      22.175  12.992   4.803  0.00  0.00    -0.343 N 
HETATM    7  C   UNK N   1      23.175  13.873   4.568  0.00  0.00     0.320 C 
HETATM    8  N   UNK N   1      23.108  15.144   5.058  0.00  0.00    -0.309 N 
HETATM    9  O   UNK N   1      24.119  13.518   3.879  0.00  0.00    -0.247 OA
HETATM   10  H   UNK N   1      22.319  15.382   5.598  0.00  0.00     0.170 HD
HETATM   11  H   UNK N   1      22.234  12.104   4.381  0.00  0.00     0.164 HD
BRANCH   8  12
HETATM   12  C   UNK N   1      24.092  16.155   4.849  0.00  0.00     0.036 A 
HETATM   13  C   UNK N   1      23.873  17.238   3.979  0.00  0.00     0.031 A 
HETATM   14  C   UNK N   1      24.827  18.249   3.852  0.00  0.00     0.020 A 
HETATM   15  C   UNK N   1      26.005  18.191   4.597  0.00  0.00     0.006 A 
HETATM   16  C   UNK N   1      26.242  17.110   5.450  0.00  0.00     0.020 A 
HETATM   17  I   UNK N   1      27.401  19.759   4.466  0.00  0.00    -0.045 I 
HETATM   18  C   UNK N   1      25.289  16.092   5.570  0.00  0.00     0.031 A 
ENDBRANCH   8  12
ENDBRANCH   5   6
ENDBRANCH   4   5
ENDBRANCH   3   4
ENDBRANCH   2   3
ENDBRANCH   1   2
BRANCH   1  19
HETATM   19  C   UNK N   1      19.928  17.666   8.203  0.00  0.00     0.163 C 
HETATM   20  O   UNK N   1      19.266  17.714   9.227  0.00  0.00    -0.648 OA
BRANCH  19  21
HETATM   21  O   UNK N   1      20.602  18.759   7.798  0.00  0.00    -0.775 OA
HETATM   22  H   UNK N   1      20.978  19.577   8.058  0.00  0.00     0.167 HD
ENDBRANCH  19  21
ENDBRANCH   1  19
BRANCH   1  23
HETATM   23  N   UNK N   1      19.959  16.690   5.998  0.00  0.00    -0.329 N 
HETATM   24  C   UNK N   1      19.056  16.158   5.127  0.00  0.00     0.317 C 
HETATM   25  O   UNK N   1      18.148  15.448   5.532  0.00  0.00    -0.247 OA
HETATM   26  N   UNK N   1      19.161  16.394   3.801  0.00  0.00    -0.329 N 
HETATM   27  H   UNK N   1      18.462  16.047   3.201  0.00  0.00     0.165 HD
HETATM   28  H   UNK N   1      20.632  17.319   5.648  0.00  0.00     0.165 HD
BRANCH  26  29
HETATM   29  C   UNK N   1      20.261  17.134   3.229  0.00  0.00     0.184 C 
BRANCH  29  30
HETATM   30  C   UNK N   1      19.875  18.591   2.961  0.00  0.00     0.046 C 
BRANCH  30  31
HETATM   31  C   UNK N   1      21.073  19.530   2.843  0.00  0.00     0.112 C 
BRANCH  31  32
HETATM   32  C   UNK N   1      20.978  20.388   1.625  0.00  0.00     0.139 C 
HETATM   33  O   UNK N   1      20.915  19.882   0.518  0.00  0.00    -0.650 OA
BRANCH  32  34
HETATM   34  O   UNK N   1      20.926  21.726   1.753  0.00  0.00    -0.776 OA
HETATM   35  H   UNK N   1      20.294  22.222   1.271  0.00  0.00     0.167 HD
ENDBRANCH  32  34
ENDBRANCH  31  32
ENDBRANCH  30  31
ENDBRANCH  29  30
BRANCH  29  36
HETATM   36  C   UNK N   1      20.756  16.426   2.004  0.00  0.00     0.163 C 
HETATM   37  O   UNK N   1      21.542  15.497   2.097  0.00  0.00    -0.648 OA
BRANCH  36  38
HETATM   38  O   UNK N   1      20.363  16.848   0.788  0.00  0.00    -0.775 OA
HETATM   39  H   UNK N   1      20.294  16.624  -0.119  0.00  0.00     0.167 HD
ENDBRANCH  36  38
ENDBRANCH  29  36
ENDBRANCH  26  29
ENDBRANCH   1  23
TORSDOF 16
ENDMDL
MODEL 5
REMARK VINA RESULT:      -6.3     13.419     15.371
REMARK  16 active torsions:
REMARK  status: ('A' for Active; 'I' for Inactive)
REMARK    1  A    between atoms: C_6  and  N_7 
REMARK       I    between atoms: N_7  and  C_8 
REMARK       I    between atoms: C_8  and  N_10 
REMARK    2  A    between atoms: N_10  and  C_11 
REMARK    3  A    between atoms: C_11  and  C_12 
REMARK    4  A    between atoms: C_12  and  C_13 
REMARK    5  A    between atoms: C_13  and  C_14 
REMARK    6  A    between atoms: C_14  and  C_15 
REMARK    7  A    between atoms: C_15  and  C_16 
REMARK    8  A    between atoms: C_15  and  N_19 
REMARK    9  A    between atoms: C_16  and  O_18 
REMARK       I    between atoms: N_19  and  C_20 
REMARK       I    between atoms: C_20  and  N_22 
REMARK   10  A    between atoms: C_23  and  N_22 
REMARK   11  A    between atoms: C_23  and  C_24 
REMARK   12  A    between atoms: C_23  and  C_29 
REMARK   13  A    between atoms: C_24  and  C_25 
REMARK   14  A    between atoms: C_25  and  C_26 
REMARK   15  A    between atoms: C_26  and  O_28 
REMARK   16  A    between atoms: C_29  and  O_31 
ROOT
HETATM    1  C   UNK N   1      26.588  28.270  -4.419  0.00  0.00     0.184 C 
ENDROOT
BRANCH   1   2
HETATM    2  C   UNK N   1      25.213  27.602  -4.606  0.00  0.00     0.036 C 
BRANCH   2   3
HETATM    3  C   UNK N   1      25.034  26.902  -5.951  0.00  0.00     0.004 C 
BRANCH   3   4
HETATM    4  C   UNK N   1      25.253  25.391  -5.896  0.00  0.00     0.020 C 
BRANCH   4   5
HETATM    5  C   UNK N   1      25.953  24.815  -7.129  0.00  0.00     0.124 C 
BRANCH   5   6
HETATM    6  N   UNK N   1      25.305  23.614  -7.604  0.00  0.00    -0.343 N 
HETATM    7  C   UNK N   1      25.966  22.502  -8.000  0.00  0.00     0.320 C 
HETATM    8  N   UNK N   1      27.330  22.486  -8.048  0.00  0.00    -0.309 N 
HETATM    9  O   UNK N   1      25.317  21.527  -8.348  0.00  0.00    -0.247 OA
HETATM   10  H   UNK N   1      27.803  23.302  -7.768  0.00  0.00     0.170 HD
HETATM   11  H   UNK N   1      24.322  23.604  -7.642  0.00  0.00     0.164 HD
BRANCH   8  12
HETATM   12  C   UNK N   1      28.121  21.378  -8.472  0.00  0.00     0.036 A 
HETATM   13  C   UNK N   1      28.478  21.190  -9.819  0.00  0.00     0.031 A 
HETATM   14  C   UNK N   1      29.314  20.136 -10.191  0.00  0.00     0.020 A 
HETATM   15  C   UNK N   1      29.806  19.263  -9.220  0.00  0.00     0.006 A 
HETATM   16  C   UNK N   1      29.442  19.428  -7.881  0.00  0.00     0.020 A 
HETATM   17  I   UNK N   1      31.133  17.727  -9.773  0.00  0.00    -0.045 I 
HETATM   18  C   UNK N   1      28.597  20.480  -7.511  0.00  0.00     0.031 A 
ENDBRANCH   8  12
ENDBRANCH   5   6
ENDBRANCH   4   5
ENDBRANCH   3   4
ENDBRANCH   2   3
ENDBRANCH   1   2
BRANCH   1  19
HETATM   19  C   UNK N   1      26.665  29.304  -3.319  0.00  0.00     0.163 C 
HETATM   20  O   UNK N   1      27.110  28.985  -2.228  0.00  0.00    -0.648 OA
BRANCH  19  21
HETATM   21  O   UNK N   1      26.253  30.570  -3.522  0.00  0.00    -0.775 OA
HETATM   22  H   UNK N   1      26.300  31.456  -3.222  0.00  0.00     0.167 HD
ENDBRANCH  19  21
ENDBRANCH   1  19
BRANCH   1  23
HETATM   23  N   UNK N   1      27.618  27.272  -4.202  0.00  0.00    -0.329 N 
HETATM   24  C   UNK N   1      28.631  27.038  -5.084  0.00  0.00     0.317 C 
HETATM   25  O   UNK N   1      28.765  27.740  -6.075  0.00  0.00    -0.247 OA
HETATM   26  N   UNK N   1      29.491  26.015  -4.884  0.00  0.00    -0.329 N 
HETATM   27  H   UNK N   1      30.248  25.906  -5.504  0.00  0.00     0.165 HD
HETATM   28  H   UNK N   1      27.584  26.737  -3.376  0.00  0.00     0.165 HD
BRANCH  26  29
HETATM   29  C   UNK N   1      29.342  25.077  -3.798  0.00  0.00     0.184 C 
BRANCH  29  30
HETATM   30  C   UNK N   1      30.672  24.400  -3.456  0.00  0.00     0.046 C 
BRANCH  30  31
HETATM   31  C   UNK N   1      30.544  23.284  -2.422  0.00  0.00     0.112 C 
BRANCH  31  32
HETATM   32  C   UNK N   1      31.137  22.007  -2.919  0.00  0.00     0.139 C 
HETATM   33  O   UNK N   1      30.708  21.482  -3.932  0.00  0.00    -0.650 OA
BRANCH  32  34
HETATM   34  O   UNK N   1      32.172  21.452  -2.264  0.00  0.00    -0.776 OA
HETATM   35  H   UNK N   1      32.253  21.554  -1.336  0.00  0.00     0.167 HD
ENDBRANCH  32  34
ENDBRANCH  31  32
ENDBRANCH  30  31
ENDBRANCH  29  30
BRANCH  29  36
HETATM   36  C   UNK N   1      28.257  24.097  -4.130  0.00  0.00     0.163 C 
HETATM   37  O   UNK N   1      27.234  24.052  -3.466  0.00  0.00    -0.648 OA
BRANCH  36  38
HETATM   38  O   UNK N   1      28.433  23.229  -5.144  0.00  0.00    -0.775 OA
HETATM   39  H   UNK N   1      28.004  22.700  -5.787  0.00  0.00     0.167 HD
ENDBRANCH  36  38
ENDBRANCH  29  36
ENDBRANCH  26  29
ENDBRANCH   1  23
TORSDOF 16
ENDMDL
MODEL 6
REMARK VINA RESULT:      -6.3     10.326     13.488
REMARK  16 active torsions:
REMARK  status: ('A' for Active; 'I' for Inactive)
REMARK    1  A    between atoms: C_6  and  N_7 
REMARK       I    between atoms: N_7  and  C_8 
REMARK       I    between atoms: C_8  and  N_10 
REMARK    2  A    between atoms: N_10  and  C_11 
REMARK    3  A    between atoms: C_11  and  C_12 
REMARK    4  A    between atoms: C_12  and  C_13 
REMARK    5  A    between atoms: C_13  and  C_14 
REMARK    6  A    between atoms: C_14  and  C_15 
REMARK    7  A    between atoms: C_15  and  C_16 
REMARK    8  A    between atoms: C_15  and  N_19 
REMARK    9  A    between atoms: C_16  and  O_18 
REMARK       I    between atoms: N_19  and  C_20 
REMARK       I    between atoms: C_20  and  N_22 
REMARK   10  A    between atoms: C_23  and  N_22 
REMARK   11  A    between atoms: C_23  and  C_24 
REMARK   12  A    between atoms: C_23  and  C_29 
REMARK   13  A    between atoms: C_24  and  C_25 
REMARK   14  A    between atoms: C_25  and  C_26 
REMARK   15  A    between atoms: C_26  and  O_28 
REMARK   16  A    between atoms: C_29  and  O_31 
ROOT
HETATM    1  C   UNK N   1      33.592  15.833   9.190  0.00  0.00     0.184 C 
ENDROOT
BRANCH   1   2
HETATM    2  C   UNK N   1      34.436  15.635   7.916  0.00  0.00     0.036 C 
BRANCH   2   3
HETATM    3  C   UNK N   1      34.480  16.854   6.997  0.00  0.00     0.004 C 
BRANCH   3   4
HETATM    4  C   UNK N   1      33.155  17.611   6.911  0.00  0.00     0.020 C 
BRANCH   4   5
HETATM    5  C   UNK N   1      32.074  16.891   6.103  0.00  0.00     0.124 C 
BRANCH   5   6
HETATM    6  N   UNK N   1      30.864  16.704   6.868  0.00  0.00    -0.343 N 
HETATM    7  C   UNK N   1      29.648  17.165   6.492  0.00  0.00     0.320 C 
HETATM    8  N   UNK N   1      29.514  17.927   5.368  0.00  0.00    -0.309 N 
HETATM    9  O   UNK N   1      28.683  16.916   7.197  0.00  0.00    -0.247 OA
HETATM   10  H   UNK N   1      30.327  18.107   4.842  0.00  0.00     0.170 HD
HETATM   11  H   UNK N   1      30.926  16.210   7.718  0.00  0.00     0.164 HD
BRANCH   8  12
HETATM   12  C   UNK N   1      28.288  18.481   4.897  0.00  0.00     0.036 A 
HETATM   13  C   UNK N   1      27.927  19.816   5.152  0.00  0.00     0.031 A 
HETATM   14  C   UNK N   1      26.755  20.349   4.615  0.00  0.00     0.020 A 
HETATM   15  C   UNK N   1      25.934  19.556   3.813  0.00  0.00     0.006 A 
HETATM   16  C   UNK N   1      26.272  18.222   3.568  0.00  0.00     0.020 A 
HETATM   17  I   UNK N   1      24.212  20.388   2.936  0.00  0.00    -0.045 I 
HETATM   18  C   UNK N   1      27.443  17.686   4.114  0.00  0.00     0.031 A 
ENDBRANCH   8  12
ENDBRANCH   5   6
ENDBRANCH   4   5
ENDBRANCH   3   4
ENDBRANCH   2   3
ENDBRANCH   1   2
BRANCH   1  19
HETATM   19  C   UNK N   1      32.266  15.110   9.210  0.00  0.00     0.163 C 
HETATM   20  O   UNK N   1      31.380  15.504   9.951  0.00  0.00    -0.648 OA
BRANCH  19  21
HETATM   21  O   UNK N   1      32.043  14.040   8.423  0.00  0.00    -0.775 OA
HETATM   22  H   UNK N   1      32.432  13.389   7.874  0.00  0.00     0.167 HD
ENDBRANCH  19  21
ENDBRANCH   1  19
BRANCH   1  23
HETATM   23  N   UNK N   1      34.350  15.464  10.370  0.00  0.00    -0.329 N 
HETATM   24  C   UNK N   1      35.341  16.238  10.896  0.00  0.00     0.317 C 
HETATM   25  O   UNK N   1      35.574  17.344  10.434  0.00  0.00    -0.247 OA
HETATM   26  N   UNK N   1      36.091  15.786  11.925  0.00  0.00    -0.329 N 
HETATM   27  H   UNK N   1      36.760  16.388  12.324  0.00  0.00     0.165 HD
HETATM   28  H   UNK N   1      34.138  14.610  10.814  0.00  0.00     0.165 HD
BRANCH  26  29
HETATM   29  C   UNK N   1      35.951  14.453  12.461  0.00  0.00     0.184 C 
BRANCH  29  30
HETATM   30  C   UNK N   1      36.444  14.377  13.908  0.00  0.00     0.046 C 
BRANCH  30  31
HETATM   31  C   UNK N   1      36.239  13.009  14.554  0.00  0.00     0.112 C 
BRANCH  31  32
HETATM   32  C   UNK N   1      34.792  12.725  14.788  0.00  0.00     0.139 C 
HETATM   33  O   UNK N   1      34.236  13.145  15.789  0.00  0.00    -0.650 OA
BRANCH  32  34
HETATM   34  O   UNK N   1      34.091  12.032  13.874  0.00  0.00    -0.776 OA
HETATM   35  H   UNK N   1      34.512  11.709  13.101  0.00  0.00     0.167 HD
ENDBRANCH  32  34
ENDBRANCH  31  32
ENDBRANCH  30  31
ENDBRANCH  29  30
BRANCH  29  36
HETATM   36  C   UNK N   1      36.642  13.476  11.557  0.00  0.00     0.163 C 
HETATM   37  O   UNK N   1      35.998  12.690  10.881  0.00  0.00    -0.648 OA
BRANCH  36  38
HETATM   38  O   UNK N   1      37.987  13.438  11.524  0.00  0.00    -0.775 OA
HETATM   39  H   UNK N   1      38.776  13.759  11.913  0.00  0.00     0.167 HD
ENDBRANCH  36  38
ENDBRANCH  29  36
ENDBRANCH  26  29
ENDBRANCH   1  23
TORSDOF 16
ENDMDL
MODEL 7
REMARK VINA RESULT:      -6.2     12.153     15.281
REMARK  16 active torsions:
REMARK  status: ('A' for Active; 'I' for Inactive)
REMARK    1  A    between atoms: C_6  and  N_7 
REMARK       I    between atoms: N_7  and  C_8 
REMARK       I    between atoms: C_8  and  N_10 
REMARK    2  A    between atoms: N_10  and  C_11 
REMARK    3  A    between atoms: C_11  and  C_12 
REMARK    4  A    between atoms: C_12  and  C_13 
REMARK    5  A    between atoms: C_13  and  C_14 
REMARK    6  A    between atoms: C_14  and  C_15 
REMARK    7  A    between atoms: C_15  and  C_16 
REMARK    8  A    between atoms: C_15  and  N_19 
REMARK    9  A    between atoms: C_16  and  O_18 
REMARK       I    between atoms: N_19  and  C_20 
REMARK       I    between atoms: C_20  and  N_22 
REMARK   10  A    between atoms: C_23  and  N_22 
REMARK   11  A    between atoms: C_23  and  C_24 
REMARK   12  A    between atoms: C_23  and  C_29 
REMARK   13  A    between atoms: C_24  and  C_25 
REMARK   14  A    between atoms: C_25  and  C_26 
REMARK   15  A    between atoms: C_26  and  O_28 
REMARK   16  A    between atoms: C_29  and  O_31 
ROOT
HETATM    1  C   UNK N   1      35.528  14.344  10.071  0.00  0.00     0.184 C 
ENDROOT
BRANCH   1   2
HETATM    2  C   UNK N   1      34.315  13.978   9.194  0.00  0.00     0.036 C 
BRANCH   2   3
HETATM    3  C   UNK N   1      34.612  12.937   8.116  0.00  0.00     0.004 C 
BRANCH   3   4
HETATM    4  C   UNK N   1      35.770  13.316   7.194  0.00  0.00     0.020 C 
BRANCH   4   5
HETATM    5  C   UNK N   1      35.336  13.980   5.885  0.00  0.00     0.124 C 
BRANCH   5   6
HETATM    6  N   UNK N   1      35.337  15.421   5.986  0.00  0.00    -0.343 N 
HETATM    7  C   UNK N   1      34.218  16.179   6.037  0.00  0.00     0.320 C 
HETATM    8  N   UNK N   1      32.986  15.606   5.910  0.00  0.00    -0.309 N 
HETATM    9  O   UNK N   1      34.335  17.389   6.161  0.00  0.00    -0.247 OA
HETATM   10  H   UNK N   1      32.949  14.628   5.801  0.00  0.00     0.170 HD
HETATM   11  H   UNK N   1      36.207  15.880   6.020  0.00  0.00     0.164 HD
BRANCH   8  12
HETATM   12  C   UNK N   1      31.748  16.315   5.925  0.00  0.00     0.036 A 
HETATM   13  C   UNK N   1      31.101  16.656   7.126  0.00  0.00     0.031 A 
HETATM   14  C   UNK N   1      29.929  17.413   7.109  0.00  0.00     0.020 A 
HETATM   15  C   UNK N   1      29.395  17.841   5.893  0.00  0.00     0.006 A 
HETATM   16  C   UNK N   1      30.019  17.491   4.692  0.00  0.00     0.020 A 
HETATM   17  I   UNK N   1      27.675  19.052   5.876  0.00  0.00    -0.045 I 
HETATM   18  C   UNK N   1      31.189  16.725   4.710  0.00  0.00     0.031 A 
ENDBRANCH   8  12
ENDBRANCH   5   6
ENDBRANCH   4   5
ENDBRANCH   3   4
ENDBRANCH   2   3
ENDBRANCH   1   2
BRANCH   1  19
HETATM   19  C   UNK N   1      35.752  15.823  10.285  0.00  0.00     0.163 C 
HETATM   20  O   UNK N   1      34.977  16.624   9.787  0.00  0.00    -0.648 OA
BRANCH  19  21
HETATM   21  O   UNK N   1      36.789  16.273  11.017  0.00  0.00    -0.775 OA
HETATM   22  H   UNK N   1      37.392  16.976  11.154  0.00  0.00     0.167 HD
ENDBRANCH  19  21
ENDBRANCH   1  19
BRANCH   1  23
HETATM   23  N   UNK N   1      35.446  13.687  11.361  0.00  0.00    -0.329 N 
HETATM   24  C   UNK N   1      36.404  12.840  11.832  0.00  0.00     0.317 C 
HETATM   25  O   UNK N   1      37.440  12.667  11.207  0.00  0.00    -0.247 OA
HETATM   26  N   UNK N   1      36.215  12.165  12.988  0.00  0.00    -0.329 N 
HETATM   27  H   UNK N   1      36.947  11.607  13.334  0.00  0.00     0.165 HD
HETATM   28  H   UNK N   1      34.657  13.862  11.925  0.00  0.00     0.165 HD
BRANCH  26  29
HETATM   29  C   UNK N   1      34.980  12.232  13.732  0.00  0.00     0.184 C 
BRANCH  29  30
HETATM   30  C   UNK N   1      35.155  13.014  15.036  0.00  0.00     0.046 C 
BRANCH  30  31
HETATM   31  C   UNK N   1      36.614  13.229  15.432  0.00  0.00     0.112 C 
BRANCH  31  32
HETATM   32  C   UNK N   1      37.056  14.627  15.157  0.00  0.00     0.139 C 
HETATM   33  O   UNK N   1      37.657  15.262  16.007  0.00  0.00    -0.650 OA
BRANCH  32  34
HETATM   34  O   UNK N   1      36.820  15.178  13.953  0.00  0.00    -0.776 OA
HETATM   35  H   UNK N   1      36.166  15.843  13.858  0.00  0.00     0.167 HD
ENDBRANCH  32  34
ENDBRANCH  31  32
ENDBRANCH  30  31
ENDBRANCH  29  30
BRANCH  29  36
HETATM   36  C   UNK N   1      34.453  10.845  13.949  0.00  0.00     0.163 C 
HETATM   37  O   UNK N   1      35.195   9.948  14.315  0.00  0.00    -0.648 OA
BRANCH  36  38
HETATM   38  O   UNK N   1      33.159  10.579  13.696  0.00  0.00    -0.775 OA
HETATM   39  H   UNK N   1      32.483   9.932  13.739  0.00  0.00     0.167 HD
ENDBRANCH  36  38
ENDBRANCH  29  36
ENDBRANCH  26  29
ENDBRANCH   1  23
TORSDOF 16
ENDMDL
MODEL 8
REMARK VINA RESULT:      -6.2     11.624     14.927
REMARK  16 active torsions:
REMARK  status: ('A' for Active; 'I' for Inactive)
REMARK    1  A    between atoms: C_6  and  N_7 
REMARK       I    between atoms: N_7  and  C_8 
REMARK       I    between atoms: C_8  and  N_10 
REMARK    2  A    between atoms: N_10  and  C_11 
REMARK    3  A    between atoms: C_11  and  C_12 
REMARK    4  A    between atoms: C_12  and  C_13 
REMARK    5  A    between atoms: C_13  and  C_14 
REMARK    6  A    between atoms: C_14  and  C_15 
REMARK    7  A    between atoms: C_15  and  C_16 
REMARK    8  A    between atoms: C_15  and  N_19 
REMARK    9  A    between atoms: C_16  and  O_18 
REMARK       I    between atoms: N_19  and  C_20 
REMARK       I    between atoms: C_20  and  N_22 
REMARK   10  A    between atoms: C_23  and  N_22 
REMARK   11  A    between atoms: C_23  and  C_24 
REMARK   12  A    between atoms: C_23  and  C_29 
REMARK   13  A    between atoms: C_24  and  C_25 
REMARK   14  A    between atoms: C_25  and  C_26 
REMARK   15  A    between atoms: C_26  and  O_28 
REMARK   16  A    between atoms: C_29  and  O_31 
ROOT
HETATM    1  C   UNK N   1      33.369  15.288   8.873  0.00  0.00     0.184 C 
ENDROOT
BRANCH   1   2
HETATM    2  C   UNK N   1      33.891  15.583  10.292  0.00  0.00     0.036 C 
BRANCH   2   3
HETATM    3  C   UNK N   1      35.380  15.917  10.356  0.00  0.00     0.004 C 
BRANCH   3   4
HETATM    4  C   UNK N   1      36.291  14.767   9.929  0.00  0.00     0.020 C 
BRANCH   4   5
HETATM    5  C   UNK N   1      36.729  13.857  11.078  0.00  0.00     0.124 C 
BRANCH   5   6
HETATM    6  N   UNK N   1      35.727  12.865  11.392  0.00  0.00    -0.343 N 
HETATM    7  C   UNK N   1      35.478  12.408  12.641  0.00  0.00     0.320 C 
HETATM    8  N   UNK N   1      36.243  12.816  13.695  0.00  0.00    -0.309 N 
HETATM    9  O   UNK N   1      34.579  11.596  12.799  0.00  0.00    -0.247 OA
HETATM   10  H   UNK N   1      36.962  13.463  13.510  0.00  0.00     0.170 HD
HETATM   11  H   UNK N   1      35.191  12.499  10.652  0.00  0.00     0.164 HD
BRANCH   8  12
HETATM   12  C   UNK N   1      36.081  12.378  15.042  0.00  0.00     0.036 A 
HETATM   13  C   UNK N   1      35.354  13.125  15.985  0.00  0.00     0.031 A 
HETATM   14  C   UNK N   1      35.152  12.634  17.276  0.00  0.00     0.020 A 
HETATM   15  C   UNK N   1      35.670  11.390  17.635  0.00  0.00     0.006 A 
HETATM   16  C   UNK N   1      36.411  10.647  16.712  0.00  0.00     0.020 A 
HETATM   17  I   UNK N   1      35.291  10.616  19.554  0.00  0.00    -0.045 I 
HETATM   18  C   UNK N   1      36.620  11.144  15.421  0.00  0.00     0.031 A 
ENDBRANCH   8  12
ENDBRANCH   5   6
ENDBRANCH   4   5
ENDBRANCH   3   4
ENDBRANCH   2   3
ENDBRANCH   1   2
BRANCH   1  19
HETATM   19  C   UNK N   1      33.028  13.842   8.593  0.00  0.00     0.163 C 
HETATM   20  O   UNK N   1      32.443  13.554   7.562  0.00  0.00    -0.648 OA
BRANCH  19  21
HETATM   21  O   UNK N   1      33.362  12.867   9.459  0.00  0.00    -0.775 OA
HETATM   22  H   UNK N   1      33.153  12.447  10.270  0.00  0.00     0.167 HD
ENDBRANCH  19  21
ENDBRANCH   1  19
BRANCH   1  23
HETATM   23  N   UNK N   1      32.216  16.113   8.568  0.00  0.00    -0.329 N 
HETATM   24  C   UNK N   1      32.278  17.468   8.435  0.00  0.00     0.317 C 
HETATM   25  O   UNK N   1      33.354  18.045   8.478  0.00  0.00    -0.247 OA
HETATM   26  N   UNK N   1      31.151  18.194   8.269  0.00  0.00    -0.329 N 
HETATM   27  H   UNK N   1      31.230  19.162   8.116  0.00  0.00     0.165 HD
HETATM   28  H   UNK N   1      31.343  15.671   8.453  0.00  0.00     0.165 HD
BRANCH  26  29
HETATM   29  C   UNK N   1      29.835  17.603   8.311  0.00  0.00     0.184 C 
BRANCH  29  30
HETATM   30  C   UNK N   1      29.136  17.699   6.952  0.00  0.00     0.046 C 
BRANCH  30  31
HETATM   31  C   UNK N   1      29.497  16.566   5.995  0.00  0.00     0.112 C 
BRANCH  31  32
HETATM   32  C   UNK N   1      30.710  16.895   5.190  0.00  0.00     0.139 C 
HETATM   33  O   UNK N   1      31.774  16.351   5.428  0.00  0.00    -0.650 OA
BRANCH  32  34
HETATM   34  O   UNK N   1      30.619  17.772   4.174  0.00  0.00    -0.776 OA
HETATM   35  H   UNK N   1      30.417  18.672   4.343  0.00  0.00     0.167 HD
ENDBRANCH  32  34
ENDBRANCH  31  32
ENDBRANCH  30  31
ENDBRANCH  29  30
BRANCH  29  36
HETATM   36  C   UNK N   1      29.042  18.226   9.420  0.00  0.00     0.163 C 
HETATM   37  O   UNK N   1      29.605  18.763  10.361  0.00  0.00    -0.648 OA
BRANCH  36  38
HETATM   38  O   UNK N   1      27.699  18.154   9.400  0.00  0.00    -0.775 OA
HETATM   39  H   UNK N   1      26.905  18.474   9.780  0.00  0.00     0.167 HD
ENDBRANCH  36  38
ENDBRANCH  29  36
ENDBRANCH  26  29
ENDBRANCH   1  23
TORSDOF 16
ENDMDL
MODEL 9
REMARK VINA RESULT:      -6.2     10.423     13.894
REMARK  16 active torsions:
REMARK  status: ('A' for Active; 'I' for Inactive)
REMARK    1  A    between atoms: C_6  and  N_7 
REMARK       I    between atoms: N_7  and  C_8 
REMARK       I    between atoms: C_8  and  N_10 
REMARK    2  A    between atoms: N_10  and  C_11 
REMARK    3  A    between atoms: C_11  and  C_12 
REMARK    4  A    between atoms: C_12  and  C_13 
REMARK    5  A    between atoms: C_13  and  C_14 
REMARK    6  A    between atoms: C_14  and  C_15 
REMARK    7  A    between atoms: C_15  and  C_16 
REMARK    8  A    between atoms: C_15  and  N_19 
REMARK    9  A    between atoms: C_16  and  O_18 
REMARK       I    between atoms: N_19  and  C_20 
REMARK       I    between atoms: C_20  and  N_22 
REMARK   10  A    between atoms: C_23  and  N_22 
REMARK   11  A    between atoms: C_23  and  C_24 
REMARK   12  A    between atoms: C_23  and  C_29 
REMARK   13  A    between atoms: C_24  and  C_25 
REMARK   14  A    between atoms: C_25  and  C_26 
REMARK   15  A    between atoms: C_26  and  O_28 
REMARK   16  A    between atoms: C_29  and  O_31 
ROOT
HETATM    1  C   UNK N   1      33.976  17.180   8.275  0.00  0.00     0.184 C 
ENDROOT
BRANCH   1   2
HETATM    2  C   UNK N   1      34.216  16.800   6.801  0.00  0.00     0.036 C 
BRANCH   2   3
HETATM    3  C   UNK N   1      34.730  15.377   6.595  0.00  0.00     0.004 C 
BRANCH   3   4
HETATM    4  C   UNK N   1      33.781  14.487   5.794  0.00  0.00     0.020 C 
BRANCH   4   5
HETATM    5  C   UNK N   1      32.704  13.802   6.638  0.00  0.00     0.124 C 
BRANCH   5   6
HETATM    6  N   UNK N   1      31.482  13.604   5.894  0.00  0.00    -0.343 N 
HETATM    7  C   UNK N   1      30.545  14.562   5.703  0.00  0.00     0.320 C 
HETATM    8  N   UNK N   1      30.675  15.785   6.294  0.00  0.00    -0.309 N 
HETATM    9  O   UNK N   1      29.566  14.297   5.024  0.00  0.00    -0.247 OA
HETATM   10  H   UNK N   1      31.479  15.943   6.841  0.00  0.00     0.170 HD
HETATM   11  H   UNK N   1      31.319  12.716   5.500  0.00  0.00     0.164 HD
BRANCH   8  12
HETATM   12  C   UNK N   1      29.738  16.854   6.178  0.00  0.00     0.036 A 
HETATM   13  C   UNK N   1      28.939  17.263   7.260  0.00  0.00     0.031 A 
HETATM   14  C   UNK N   1      28.084  18.359   7.137  0.00  0.00     0.020 A 
HETATM   15  C   UNK N   1      28.023  19.060   5.932  0.00  0.00     0.006 A 
HETATM   16  C   UNK N   1      28.798  18.650   4.843  0.00  0.00     0.020 A 
HETATM   17  I   UNK N   1      26.796  20.762   5.775  0.00  0.00    -0.045 I 
HETATM   18  C   UNK N   1      29.648  17.546   4.966  0.00  0.00     0.031 A 
ENDBRANCH   8  12
ENDBRANCH   5   6
ENDBRANCH   4   5
ENDBRANCH   3   4
ENDBRANCH   2   3
ENDBRANCH   1   2
BRANCH   1  19
HETATM   19  C   UNK N   1      32.528  17.244   8.702  0.00  0.00     0.163 C 
HETATM   20  O   UNK N   1      31.927  18.303   8.621  0.00  0.00    -0.648 OA
BRANCH  19  21
HETATM   21  O   UNK N   1      31.889  16.154   9.167  0.00  0.00    -0.775 OA
HETATM   22  H   UNK N   1      31.195  15.837   9.710  0.00  0.00     0.167 HD
ENDBRANCH  19  21
ENDBRANCH   1  19
BRANCH   1  23
HETATM   23  N   UNK N   1      34.690  16.279   9.159  0.00  0.00    -0.329 N 
HETATM   24  C   UNK N   1      35.581  16.702  10.100  0.00  0.00     0.317 C 
HETATM   25  O   UNK N   1      35.749  17.895  10.301  0.00  0.00    -0.247 OA
HETATM   26  N   UNK N   1      36.303  15.809  10.812  0.00  0.00    -0.329 N 
HETATM   27  H   UNK N   1      36.894  16.140  11.525  0.00  0.00     0.165 HD
HETATM   28  H   UNK N   1      34.523  15.311   9.074  0.00  0.00     0.165 HD
BRANCH  26  29
HETATM   29  C   UNK N   1      36.242  14.388  10.565  0.00  0.00     0.184 C 
BRANCH  29  30
HETATM   30  C   UNK N   1      36.158  13.596  11.872  0.00  0.00     0.046 C 
BRANCH  30  31
HETATM   31  C   UNK N   1      36.026  14.475  13.114  0.00  0.00     0.112 C 
BRANCH  31  32
HETATM   32  C   UNK N   1      35.960  13.656  14.360  0.00  0.00     0.139 C 
HETATM   33  O   UNK N   1      36.981  13.365  14.959  0.00  0.00    -0.650 OA
BRANCH  32  34
HETATM   34  O   UNK N   1      34.767  13.266  14.841  0.00  0.00    -0.776 OA
HETATM   35  H   UNK N   1      34.697  12.485  15.356  0.00  0.00     0.167 HD
ENDBRANCH  32  34
ENDBRANCH  31  32
ENDBRANCH  30  31
ENDBRANCH  29  30
BRANCH  29  36
HETATM   36  C   UNK N   1      37.402  13.980   9.708  0.00  0.00     0.163 C 
HETATM   37  O   UNK N   1      37.220  13.464   8.617  0.00  0.00    -0.648 OA
BRANCH  36  38
HETATM   38  O   UNK N   1      38.657  14.144  10.166  0.00  0.00    -0.775 OA
HETATM   39  H   UNK N   1      39.562  14.195   9.930  0.00  0.00     0.167 HD
ENDBRANCH  36  38
ENDBRANCH  29  36
ENDBRANCH  26  29
ENDBRANCH   1  23
TORSDOF 16
ENDMDL
