MODEL 1
REMARK VINA RESULT:      -8.5      0.000      0.000
REMARK  10 active torsions:
REMARK  status: ('A' for Active; 'I' for Inactive)
REMARK    1  A    between atoms: C_17  and  C_4 
REMARK    2  A    between atoms: N_34  and  C_17 
REMARK    3  A    between atoms: C_27  and  C_18 
REMARK    4  A    between atoms: C_27  and  C_19 
REMARK    5  A    between atoms: C_20  and  N_35 
REMARK    6  A    between atoms: C_29  and  C_23 
REMARK    7  A    between atoms: C_28  and  C_24 
REMARK    8  A    between atoms: N_34  and  C_25 
REMARK    9  A    between atoms: N_37  and  C_26 
REMARK   10  A    between atoms: O_39  and  C_28 
ROOT
HETATM    1  C   UNK N   1      28.056  17.388   8.027  0.00  0.00     0.147 C 
HETATM    2  N   UNK N   1      27.301  17.967   7.148  0.00  0.00    -0.366 N 
ATOM      3  HN  UNK N   1      26.291  17.845   7.223  1.00  0.00     0.162 HD
HETATM    4  O   UNK N   1      27.485  16.773   9.077  0.00  0.00    -0.346 OA
HETATM    5  H   UNK N   1      27.026  16.294   9.739  0.00  0.00     0.219 HD
ENDROOT
BRANCH   1   6
HETATM    6  C   UNK N   1      29.537  17.357   7.899  0.00  0.00     0.022 A 
HETATM    7  C   UNK N   1      30.132  16.601   6.884  0.00  0.00     0.046 A 
HETATM    8  C   UNK N   1      31.530  16.558   6.737  0.00  0.00     0.043 A 
HETATM    9  C   UNK N   1      32.346  17.327   7.604  0.00  0.00     0.041 A 
HETATM   10  C   UNK N   1      31.737  18.077   8.622  0.00  0.00     0.026 A 
HETATM   11  C   UNK N   1      30.353  18.086   8.784  0.00  0.00    -0.046 A 
HETATM   12  C   UNK N   1      29.769  18.909   9.884  0.00  0.00     0.049 C 
BRANCH   8  13
HETATM   13  N   UNK N   1      32.123  15.728   5.743  0.00  0.00    -0.385 N 
HETATM   14  H   UNK N   1      32.553  14.894   6.040  0.00  0.00     0.160 HD
BRANCH  13  15
HETATM   15  C   UNK N   1      32.135  16.026   4.328  0.00  0.00     0.077 C 
HETATM   16  C   UNK N   1      31.807  17.497   4.149  0.00  0.00     0.032 C 
BRANCH  15  17
HETATM   17  C   UNK N   1      33.516  15.735   3.736  0.00  0.00     0.020 C 
HETATM   18  C   UNK N   1      34.356  14.872   4.664  0.00  0.00     0.007 C 
ENDBRANCH  15  17
ENDBRANCH  13  15
ENDBRANCH   8  13
BRANCH   9  19
HETATM   19  C   UNK N   1      33.831  17.374   7.475  0.00  0.00     0.146 C 
HETATM   20  N   UNK N   1      34.573  16.879   8.399  0.00  0.00    -0.379 N 
HETATM   21  H   UNK N   1      35.547  17.024   8.425  0.00  0.00     0.158 HD
ATOM     22  HN  UNK N   1      34.139  16.318   9.131  1.00  0.00     0.158 HD
BRANCH  19  23
HETATM   23  O   UNK N   1      34.417  17.957   6.412  0.00  0.00    -0.346 OA
HETATM   24  H   UNK N   1      35.331  18.163   6.423  0.00  0.00     0.219 HD
ENDBRANCH  19  23
ENDBRANCH   9  19
ENDBRANCH   1   6
BRANCH   2  25
HETATM   25  C   UNK N   1      27.817  18.779   6.065  0.00  0.00     0.087 C 
HETATM   26  C   UNK N   1      27.560  18.074   4.722  0.00  0.00     0.050 C 
HETATM   27  C   UNK N   1      26.282  18.527   4.016  0.00  0.00     0.088 C 
HETATM   28  C   UNK N   1      26.557  19.835   3.256  0.00  0.00     0.027 C 
HETATM   29  N   UNK N   1      25.320  18.972   4.980  0.00  0.00    -0.358 N 
HETATM   30  C   UNK N   1      26.031  20.965   4.178  0.00  0.00     0.027 C 
HETATM   31  C   UNK N   1      25.752  20.254   5.487  0.00  0.00     0.088 C 
HETATM   32  C   UNK N   1      27.144  20.165   6.164  0.00  0.00     0.050 C 
BRANCH  29  33
HETATM   33  C   UNK N   1      23.940  18.651   4.764  0.00  0.00     0.103 A 
HETATM   34  C   UNK N   1      23.194  19.309   3.777  0.00  0.00     0.049 A 
HETATM   35  C   UNK N   1      21.964  18.781   3.377  0.00  0.00     0.020 A 
HETATM   36  C   UNK N   1      21.479  17.604   3.965  0.00  0.00     0.026 A 
HETATM   37  C   UNK N   1      22.212  17.025   5.002  0.00  0.00     0.104 A 
HETATM   38  N   UNK N   1      23.411  17.543   5.366  0.00  0.00    -0.351 N 
ATOM     39  HN  UNK N   1      23.936  17.092   6.114  1.00  0.00     0.166 HD
BRANCH  36  40
HETATM   40  C   UNK N   1      20.265  16.922   3.454  0.00  0.00     0.165 C 
HETATM   41  O   UNK N   1      19.323  16.725   4.209  0.00  0.00    -0.292 OA
BRANCH  40  42
HETATM   42  C   UNK N   1      20.179  16.420   2.036  0.00  0.00     0.061 A 
HETATM   43  C   UNK N   1      20.002  14.907   2.044  0.00  0.00     0.013 A 
HETATM   44  C   UNK N   1      21.348  15.498   1.714  0.00  0.00     0.013 A 
ENDBRANCH  40  42
ENDBRANCH  36  40
ENDBRANCH  29  33
ENDBRANCH   2  25
TORSDOF 10
ENDMDL
MODEL 2
REMARK VINA RESULT:      -8.3      2.311     10.107
REMARK  10 active torsions:
REMARK  status: ('A' for Active; 'I' for Inactive)
REMARK    1  A    between atoms: C_17  and  C_4 
REMARK    2  A    between atoms: N_34  and  C_17 
REMARK    3  A    between atoms: C_27  and  C_18 
REMARK    4  A    between atoms: C_27  and  C_19 
REMARK    5  A    between atoms: C_20  and  N_35 
REMARK    6  A    between atoms: C_29  and  C_23 
REMARK    7  A    between atoms: C_28  and  C_24 
REMARK    8  A    between atoms: N_34  and  C_25 
REMARK    9  A    between atoms: N_37  and  C_26 
REMARK   10  A    between atoms: O_39  and  C_28 
ROOT
HETATM    1  C   UNK N   1      25.752  19.054   5.390  0.00  0.00     0.147 C 
HETATM    2  N   UNK N   1      26.512  18.013   5.256  0.00  0.00    -0.366 N 
ATOM      3  HN  UNK N   1      27.379  17.976   5.793  1.00  0.00     0.162 HD
HETATM    4  O   UNK N   1      26.055  19.970   6.327  0.00  0.00    -0.346 OA
HETATM    5  H   UNK N   1      26.363  20.609   6.938  0.00  0.00     0.219 HD
ENDROOT
BRANCH   1   6
HETATM    6  C   UNK N   1      24.567  19.283   4.523  0.00  0.00     0.022 A 
HETATM    7  C   UNK N   1      23.351  18.664   4.829  0.00  0.00     0.046 A 
HETATM    8  C   UNK N   1      22.213  18.866   4.028  0.00  0.00     0.043 A 
HETATM    9  C   UNK N   1      22.289  19.745   2.918  0.00  0.00     0.041 A 
HETATM   10  C   UNK N   1      23.516  20.355   2.619  0.00  0.00     0.026 A 
HETATM   11  C   UNK N   1      24.649  20.122   3.395  0.00  0.00    -0.046 A 
HETATM   12  C   UNK N   1      25.922  20.807   3.024  0.00  0.00     0.049 C 
BRANCH   8  13
HETATM   13  N   UNK N   1      21.001  18.173   4.312  0.00  0.00    -0.385 N 
HETATM   14  H   UNK N   1      20.198  18.711   4.495  0.00  0.00     0.160 HD
BRANCH  13  15
HETATM   15  C   UNK N   1      20.871  16.734   4.348  0.00  0.00     0.077 C 
HETATM   16  C   UNK N   1      19.402  16.393   4.524  0.00  0.00     0.032 C 
BRANCH  15  17
HETATM   17  C   UNK N   1      21.385  16.121   3.043  0.00  0.00     0.020 C 
HETATM   18  C   UNK N   1      22.693  15.375   3.248  0.00  0.00     0.007 C 
ENDBRANCH  15  17
ENDBRANCH  13  15
ENDBRANCH   8  13
BRANCH   9  19
HETATM   19  C   UNK N   1      21.111  20.051   2.055  0.00  0.00     0.146 C 
HETATM   20  N   UNK N   1      20.745  21.268   1.874  0.00  0.00    -0.379 N 
HETATM   21  H   UNK N   1      19.892  21.502   1.441  0.00  0.00     0.158 HD
ATOM     22  HN  UNK N   1      21.359  22.019   2.189  1.00  0.00     0.158 HD
BRANCH  19  23
HETATM   23  O   UNK N   1      20.398  19.063   1.480  0.00  0.00    -0.346 OA
HETATM   24  H   UNK N   1      19.806  19.249   0.778  0.00  0.00     0.219 HD
ENDBRANCH  19  23
ENDBRANCH   9  19
ENDBRANCH   1   6
BRANCH   2  25
HETATM   25  C   UNK N   1      26.195  16.901   4.384  0.00  0.00     0.087 C 
HETATM   26  C   UNK N   1      27.036  16.994   3.100  0.00  0.00     0.050 C 
HETATM   27  C   UNK N   1      28.324  16.171   3.138  0.00  0.00     0.088 C 
HETATM   28  C   UNK N   1      28.003  14.706   2.800  0.00  0.00     0.027 C 
HETATM   29  N   UNK N   1      28.783  16.042   4.490  0.00  0.00    -0.358 N 
HETATM   30  C   UNK N   1      27.911  13.979   4.166  0.00  0.00     0.027 C 
HETATM   31  C   UNK N   1      27.914  15.113   5.172  0.00  0.00     0.088 C 
HETATM   32  C   UNK N   1      26.443  15.603   5.182  0.00  0.00     0.050 C 
BRANCH  29  33
HETATM   33  C   UNK N   1      30.193  16.108   4.739  0.00  0.00     0.103 A 
HETATM   34  C   UNK N   1      30.970  17.148   4.213  0.00  0.00     0.049 A 
HETATM   35  C   UNK N   1      32.257  17.367   4.709  0.00  0.00     0.020 A 
HETATM   36  C   UNK N   1      32.769  16.545   5.724  0.00  0.00     0.026 A 
HETATM   37  C   UNK N   1      31.996  15.469   6.164  0.00  0.00     0.104 A 
HETATM   38  N   UNK N   1      30.743  15.282   5.681  0.00  0.00    -0.351 N 
ATOM     39  HN  UNK N   1      30.192  14.499   6.030  1.00  0.00     0.166 HD
BRANCH  36  40
HETATM   40  C   UNK N   1      34.058  16.845   6.393  0.00  0.00     0.165 C 
HETATM   41  O   UNK N   1      35.031  16.137   6.169  0.00  0.00    -0.292 OA
BRANCH  40  42
HETATM   42  C   UNK N   1      34.191  17.975   7.381  0.00  0.00     0.061 A 
HETATM   43  C   UNK N   1      34.192  17.412   8.797  0.00  0.00     0.013 A 
HETATM   44  C   UNK N   1      32.952  18.077   8.260  0.00  0.00     0.013 A 
ENDBRANCH  40  42
ENDBRANCH  36  40
ENDBRANCH  29  33
ENDBRANCH   2  25
TORSDOF 10
ENDMDL
MODEL 3
REMARK VINA RESULT:      -8.0      6.172     12.445
REMARK  10 active torsions:
REMARK  status: ('A' for Active; 'I' for Inactive)
REMARK    1  A    between atoms: C_17  and  C_4 
REMARK    2  A    between atoms: N_34  and  C_17 
REMARK    3  A    between atoms: C_27  and  C_18 
REMARK    4  A    between atoms: C_27  and  C_19 
REMARK    5  A    between atoms: C_20  and  N_35 
REMARK    6  A    between atoms: C_29  and  C_23 
REMARK    7  A    between atoms: C_28  and  C_24 
REMARK    8  A    between atoms: N_34  and  C_25 
REMARK    9  A    between atoms: N_37  and  C_26 
REMARK   10  A    between atoms: O_39  and  C_28 
ROOT
HETATM    1  C   UNK N   1      32.764  15.425   9.084  0.00  0.00     0.147 C 
HETATM    2  N   UNK N   1      33.809  14.932   9.670  0.00  0.00    -0.366 N 
ATOM      3  HN  UNK N   1      33.804  14.863  10.688  1.00  0.00     0.162 HD
HETATM    4  O   UNK N   1      31.667  15.690   9.814  0.00  0.00    -0.346 OA
HETATM    5  H   UNK N   1      30.966  15.928  10.388  0.00  0.00     0.219 HD
ENDROOT
BRANCH   1   6
HETATM    6  C   UNK N   1      32.747  15.732   7.629  0.00  0.00     0.022 A 
HETATM    7  C   UNK N   1      32.284  14.774   6.722  0.00  0.00     0.046 A 
HETATM    8  C   UNK N   1      32.252  15.040   5.341  0.00  0.00     0.043 A 
HETATM    9  C   UNK N   1      32.656  16.313   4.866  0.00  0.00     0.041 A 
HETATM   10  C   UNK N   1      33.124  17.263   5.787  0.00  0.00     0.026 A 
HETATM   11  C   UNK N   1      33.186  16.981   7.150  0.00  0.00    -0.046 A 
HETATM   12  C   UNK N   1      33.690  18.038   8.076  0.00  0.00     0.049 C 
BRANCH   8  13
HETATM   13  N   UNK N   1      31.844  14.029   4.424  0.00  0.00    -0.385 N 
HETATM   14  H   UNK N   1      32.514  13.692   3.786  0.00  0.00     0.160 HD
BRANCH  13  15
HETATM   15  C   UNK N   1      30.515  13.464   4.367  0.00  0.00     0.077 C 
HETATM   16  C   UNK N   1      29.514  14.604   4.324  0.00  0.00     0.032 C 
BRANCH  15  17
HETATM   17  C   UNK N   1      30.359  12.599   3.115  0.00  0.00     0.020 C 
HETATM   18  C   UNK N   1      31.521  12.784   2.153  0.00  0.00     0.007 C 
ENDBRANCH  15  17
ENDBRANCH  13  15
ENDBRANCH   8  13
BRANCH   9  19
HETATM   19  C   UNK N   1      32.599  16.686   3.424  0.00  0.00     0.146 C 
HETATM   20  N   UNK N   1      31.782  17.592   3.025  0.00  0.00    -0.379 N 
HETATM   21  H   UNK N   1      31.606  17.758   2.070  0.00  0.00     0.158 HD
ATOM     22  HN  UNK N   1      31.296  18.158   3.720  1.00  0.00     0.158 HD
BRANCH  19  23
HETATM   23  O   UNK N   1      33.376  16.064   2.516  0.00  0.00    -0.346 OA
HETATM   24  H   UNK N   1      33.558  15.148   2.591  0.00  0.00     0.219 HD
ENDBRANCH  19  23
ENDBRANCH   9  19
ENDBRANCH   1   6
BRANCH   2  25
HETATM   25  C   UNK N   1      34.983  14.476   8.957  0.00  0.00     0.087 C 
HETATM   26  C   UNK N   1      36.250  14.903   9.717  0.00  0.00     0.050 C 
HETATM   27  C   UNK N   1      36.806  13.830  10.653  0.00  0.00     0.088 C 
HETATM   28  C   UNK N   1      37.651  12.834   9.842  0.00  0.00     0.027 C 
HETATM   29  N   UNK N   1      35.746  12.978  11.107  0.00  0.00    -0.358 N 
HETATM   30  C   UNK N   1      36.718  11.623   9.577  0.00  0.00     0.027 C 
HETATM   31  C   UNK N   1      35.355  12.125  10.010  0.00  0.00     0.088 C 
HETATM   32  C   UNK N   1      34.859  12.946   8.791  0.00  0.00     0.050 C 
BRANCH  29  33
HETATM   33  C   UNK N   1      35.770  12.527  12.468  0.00  0.00     0.103 A 
HETATM   34  C   UNK N   1      36.881  12.767  13.286  0.00  0.00     0.049 A 
HETATM   35  C   UNK N   1      36.768  12.599  14.668  0.00  0.00     0.020 A 
HETATM   36  C   UNK N   1      35.551  12.187  15.229  0.00  0.00     0.026 A 
HETATM   37  C   UNK N   1      34.491  11.881  14.374  0.00  0.00     0.104 A 
HETATM   38  N   UNK N   1      34.616  12.064  13.036  0.00  0.00    -0.351 N 
ATOM     39  HN  UNK N   1      33.822  11.849  12.434  1.00  0.00     0.166 HD
BRANCH  36  40
HETATM   40  C   UNK N   1      35.340  12.160  16.698  0.00  0.00     0.165 C 
HETATM   41  O   UNK N   1      35.665  11.166  17.333  0.00  0.00    -0.292 OA
BRANCH  40  42
HETATM   42  C   UNK N   1      34.692  13.309  17.424  0.00  0.00     0.061 A 
HETATM   43  C   UNK N   1      35.759  14.318  17.831  0.00  0.00     0.013 A 
HETATM   44  C   UNK N   1      35.180  13.387  18.865  0.00  0.00     0.013 A 
ENDBRANCH  40  42
ENDBRANCH  36  40
ENDBRANCH  29  33
ENDBRANCH   2  25
TORSDOF 10
ENDMDL
MODEL 4
REMARK VINA RESULT:      -7.9      7.200     12.486
REMARK  10 active torsions:
REMARK  status: ('A' for Active; 'I' for Inactive)
REMARK    1  A    between atoms: C_17  and  C_4 
REMARK    2  A    between atoms: N_34  and  C_17 
REMARK    3  A    between atoms: C_27  and  C_18 
REMARK    4  A    between atoms: C_27  and  C_19 
REMARK    5  A    between atoms: C_20  and  N_35 
REMARK    6  A    between atoms: C_29  and  C_23 
REMARK    7  A    between atoms: C_28  and  C_24 
REMARK    8  A    between atoms: N_34  and  C_25 
REMARK    9  A    between atoms: N_37  and  C_26 
REMARK   10  A    between atoms: O_39  and  C_28 
ROOT
HETATM    1  C   UNK N   1      32.747  15.423   9.106  0.00  0.00     0.147 C 
HETATM    2  N   UNK N   1      33.788  14.940   9.708  0.00  0.00    -0.366 N 
ATOM      3  HN  UNK N   1      33.770  14.875  10.726  1.00  0.00     0.162 HD
HETATM    4  O   UNK N   1      31.639  15.682   9.821  0.00  0.00    -0.346 OA
HETATM    5  H   UNK N   1      30.928  15.917  10.385  0.00  0.00     0.219 HD
ENDROOT
BRANCH   1   6
HETATM    6  C   UNK N   1      32.747  15.723   7.650  0.00  0.00     0.022 A 
HETATM    7  C   UNK N   1      32.282  14.767   6.743  0.00  0.00     0.046 A 
HETATM    8  C   UNK N   1      32.266  15.027   5.360  0.00  0.00     0.043 A 
HETATM    9  C   UNK N   1      32.688  16.294   4.884  0.00  0.00     0.041 A 
HETATM   10  C   UNK N   1      33.157  17.242   5.805  0.00  0.00     0.026 A 
HETATM   11  C   UNK N   1      33.204  16.965   7.170  0.00  0.00    -0.046 A 
HETATM   12  C   UNK N   1      33.711  18.021   8.096  0.00  0.00     0.049 C 
BRANCH   8  13
HETATM   13  N   UNK N   1      31.856  14.017   4.444  0.00  0.00    -0.385 N 
HETATM   14  H   UNK N   1      31.125  14.233   3.821  0.00  0.00     0.160 HD
BRANCH  13  15
HETATM   15  C   UNK N   1      32.441  12.697   4.365  0.00  0.00     0.077 C 
HETATM   16  C   UNK N   1      31.704  11.913   3.293  0.00  0.00     0.032 C 
BRANCH  15  17
HETATM   17  C   UNK N   1      33.923  12.794   3.999  0.00  0.00     0.020 C 
HETATM   18  C   UNK N   1      34.814  12.260   5.109  0.00  0.00     0.007 C 
ENDBRANCH  15  17
ENDBRANCH  13  15
ENDBRANCH   8  13
BRANCH   9  19
HETATM   19  C   UNK N   1      32.649  16.661   3.439  0.00  0.00     0.146 C 
HETATM   20  N   UNK N   1      31.835  17.564   3.027  0.00  0.00    -0.379 N 
HETATM   21  H   UNK N   1      31.671  17.727   2.069  0.00  0.00     0.158 HD
ATOM     22  HN  UNK N   1      31.341  18.133   3.714  1.00  0.00     0.158 HD
BRANCH  19  23
HETATM   23  O   UNK N   1      33.438  16.037   2.544  0.00  0.00    -0.346 OA
HETATM   24  H   UNK N   1      33.537  16.377   1.676  0.00  0.00     0.219 HD
ENDBRANCH  19  23
ENDBRANCH   9  19
ENDBRANCH   1   6
BRANCH   2  25
HETATM   25  C   UNK N   1      34.975  14.490   9.012  0.00  0.00     0.087 C 
HETATM   26  C   UNK N   1      36.229  14.940   9.781  0.00  0.00     0.050 C 
HETATM   27  C   UNK N   1      36.787  13.884  10.735  0.00  0.00     0.088 C 
HETATM   28  C   UNK N   1      37.652  12.889   9.944  0.00  0.00     0.027 C 
HETATM   29  N   UNK N   1      35.732  13.025  11.186  0.00  0.00    -0.358 N 
HETATM   30  C   UNK N   1      36.737  11.665   9.682  0.00  0.00     0.027 C 
HETATM   31  C   UNK N   1      35.363  12.155  10.095  0.00  0.00     0.088 C 
HETATM   32  C   UNK N   1      34.871  12.957   8.862  0.00  0.00     0.050 C 
BRANCH  29  33
HETATM   33  C   UNK N   1      35.746  12.589  12.552  0.00  0.00     0.103 A 
HETATM   34  C   UNK N   1      36.862  12.814  13.368  0.00  0.00     0.049 A 
HETATM   35  C   UNK N   1      36.746  12.663  14.752  0.00  0.00     0.020 A 
HETATM   36  C   UNK N   1      35.520  12.284  15.317  0.00  0.00     0.026 A 
HETATM   37  C   UNK N   1      34.454  11.990  14.465  0.00  0.00     0.104 A 
HETATM   38  N   UNK N   1      34.583  12.156  13.126  0.00  0.00    -0.351 N 
ATOM     39  HN  UNK N   1      33.785  11.951  12.525  1.00  0.00     0.166 HD
BRANCH  36  40
HETATM   40  C   UNK N   1      35.309  12.277  16.786  0.00  0.00     0.165 C 
HETATM   41  O   UNK N   1      34.623  13.150  17.299  0.00  0.00    -0.292 OA
BRANCH  40  42
HETATM   42  C   UNK N   1      35.959  11.246  17.672  0.00  0.00     0.061 A 
HETATM   43  C   UNK N   1      34.938  10.175  18.036  0.00  0.00     0.013 A 
HETATM   44  C   UNK N   1      35.310  11.226  19.050  0.00  0.00     0.013 A 
ENDBRANCH  40  42
ENDBRANCH  36  40
ENDBRANCH  29  33
ENDBRANCH   2  25
TORSDOF 10
ENDMDL
MODEL 5
REMARK VINA RESULT:      -7.6      4.120      6.474
REMARK  10 active torsions:
REMARK  status: ('A' for Active; 'I' for Inactive)
REMARK    1  A    between atoms: C_17  and  C_4 
REMARK    2  A    between atoms: N_34  and  C_17 
REMARK    3  A    between atoms: C_27  and  C_18 
REMARK    4  A    between atoms: C_27  and  C_19 
REMARK    5  A    between atoms: C_20  and  N_35 
REMARK    6  A    between atoms: C_29  and  C_23 
REMARK    7  A    between atoms: C_28  and  C_24 
REMARK    8  A    between atoms: N_34  and  C_25 
REMARK    9  A    between atoms: N_37  and  C_26 
REMARK   10  A    between atoms: O_39  and  C_28 
ROOT
HETATM    1  C   UNK N   1      32.171  15.586   8.800  0.00  0.00     0.147 C 
HETATM    2  N   UNK N   1      31.810  15.741   7.565  0.00  0.00    -0.366 N 
ATOM      3  HN  UNK N   1      30.869  16.086   7.377  1.00  0.00     0.162 HD
HETATM    4  O   UNK N   1      31.356  16.016   9.779  0.00  0.00    -0.346 OA
HETATM    5  H   UNK N   1      30.711  16.261  10.414  0.00  0.00     0.219 HD
ENDROOT
BRANCH   1   6
HETATM    6  C   UNK N   1      33.449  14.924   9.173  0.00  0.00     0.022 A 
HETATM    7  C   UNK N   1      33.501  13.532   9.293  0.00  0.00     0.046 A 
HETATM    8  C   UNK N   1      34.698  12.879   9.640  0.00  0.00     0.043 A 
HETATM    9  C   UNK N   1      35.879  13.641   9.827  0.00  0.00     0.041 A 
HETATM   10  C   UNK N   1      35.811  15.037   9.709  0.00  0.00     0.026 A 
HETATM   11  C   UNK N   1      34.614  15.681   9.401  0.00  0.00    -0.046 A 
HETATM   12  C   UNK N   1      34.612  17.169   9.286  0.00  0.00     0.049 C 
BRANCH   8  13
HETATM   13  N   UNK N   1      34.718  11.468   9.828  0.00  0.00    -0.385 N 
HETATM   14  H   UNK N   1      35.242  10.928   9.192  0.00  0.00     0.160 HD
BRANCH  13  15
HETATM   15  C   UNK N   1      34.022  10.773  10.888  0.00  0.00     0.077 C 
HETATM   16  C   UNK N   1      33.861   9.320  10.479  0.00  0.00     0.032 C 
BRANCH  15  17
HETATM   17  C   UNK N   1      34.823  10.853  12.189  0.00  0.00     0.020 C 
HETATM   18  C   UNK N   1      33.976  10.480  13.396  0.00  0.00     0.007 C 
ENDBRANCH  15  17
ENDBRANCH  13  15
ENDBRANCH   8  13
BRANCH   9  19
HETATM   19  C   UNK N   1      37.195  13.015  10.143  0.00  0.00     0.146 C 
HETATM   20  N   UNK N   1      37.936  13.507  11.069  0.00  0.00    -0.379 N 
HETATM   21  H   UNK N   1      38.868  13.221  11.204  0.00  0.00     0.158 HD
ATOM     22  HN  UNK N   1      37.546  14.220  11.685  1.00  0.00     0.158 HD
BRANCH  19  23
HETATM   23  O   UNK N   1      37.640  11.950   9.449  0.00  0.00    -0.346 OA
HETATM   24  H   UNK N   1      37.154  11.149   9.441  0.00  0.00     0.219 HD
ENDBRANCH  19  23
ENDBRANCH   9  19
ENDBRANCH   1   6
BRANCH   2  25
HETATM   25  C   UNK N   1      32.674  15.449   6.440  0.00  0.00     0.087 C 
HETATM   26  C   UNK N   1      31.934  14.542   5.442  0.00  0.00     0.050 C 
HETATM   27  C   UNK N   1      31.253  15.298   4.301  0.00  0.00     0.088 C 
HETATM   28  C   UNK N   1      32.289  15.620   3.212  0.00  0.00     0.027 C 
HETATM   29  N   UNK N   1      30.894  16.617   4.733  0.00  0.00    -0.358 N 
HETATM   30  C   UNK N   1      32.710  17.091   3.468  0.00  0.00     0.027 C 
HETATM   31  C   UNK N   1      32.101  17.404   4.821  0.00  0.00     0.088 C 
HETATM   32  C   UNK N   1      33.111  16.798   5.830  0.00  0.00     0.050 C 
BRANCH  29  33
HETATM   33  C   UNK N   1      29.645  17.163   4.288  0.00  0.00     0.103 A 
HETATM   34  C   UNK N   1      28.683  16.351   3.673  0.00  0.00     0.049 A 
HETATM   35  C   UNK N   1      27.375  16.821   3.529  0.00  0.00     0.020 A 
HETATM   36  C   UNK N   1      27.033  18.100   3.992  0.00  0.00     0.026 A 
HETATM   37  C   UNK N   1      28.038  18.909   4.525  0.00  0.00     0.104 A 
HETATM   38  N   UNK N   1      29.298  18.429   4.670  0.00  0.00    -0.351 N 
ATOM     39  HN  UNK N   1      30.011  19.033   5.077  1.00  0.00     0.166 HD
BRANCH  36  40
HETATM   40  C   UNK N   1      25.625  18.570   4.011  0.00  0.00     0.165 C 
HETATM   41  O   UNK N   1      24.718  17.750   3.992  0.00  0.00    -0.292 OA
BRANCH  40  42
HETATM   42  C   UNK N   1      25.282  20.036   4.005  0.00  0.00     0.061 A 
HETATM   43  C   UNK N   1      24.180  20.295   2.985  0.00  0.00     0.013 A 
HETATM   44  C   UNK N   1      25.603  20.665   2.655  0.00  0.00     0.013 A 
ENDBRANCH  40  42
ENDBRANCH  36  40
ENDBRANCH  29  33
ENDBRANCH   2  25
TORSDOF 10
ENDMDL
MODEL 6
REMARK VINA RESULT:      -7.6      4.658     11.146
REMARK  10 active torsions:
REMARK  status: ('A' for Active; 'I' for Inactive)
REMARK    1  A    between atoms: C_17  and  C_4 
REMARK    2  A    between atoms: N_34  and  C_17 
REMARK    3  A    between atoms: C_27  and  C_18 
REMARK    4  A    between atoms: C_27  and  C_19 
REMARK    5  A    between atoms: C_20  and  N_35 
REMARK    6  A    between atoms: C_29  and  C_23 
REMARK    7  A    between atoms: C_28  and  C_24 
REMARK    8  A    between atoms: N_34  and  C_25 
REMARK    9  A    between atoms: N_37  and  C_26 
REMARK   10  A    between atoms: O_39  and  C_28 
ROOT
HETATM    1  C   UNK N   1      30.962  17.359   8.706  0.00  0.00     0.147 C 
HETATM    2  N   UNK N   1      32.105  16.750   8.730  0.00  0.00    -0.366 N 
ATOM      3  HN  UNK N   1      32.700  16.871   9.550  1.00  0.00     0.162 HD
HETATM    4  O   UNK N   1      30.541  18.004   9.808  0.00  0.00    -0.346 OA
HETATM    5  H   UNK N   1      30.341  18.501  10.577  0.00  0.00     0.219 HD
ENDROOT
BRANCH   1   6
HETATM    6  C   UNK N   1      30.110  17.391   7.489  0.00  0.00     0.022 A 
HETATM    7  C   UNK N   1      30.705  17.453   6.225  0.00  0.00     0.046 A 
HETATM    8  C   UNK N   1      29.922  17.480   5.056  0.00  0.00     0.043 A 
HETATM    9  C   UNK N   1      28.511  17.399   5.160  0.00  0.00     0.041 A 
HETATM   10  C   UNK N   1      27.927  17.344   6.434  0.00  0.00     0.026 A 
HETATM   11  C   UNK N   1      28.706  17.354   7.590  0.00  0.00    -0.046 A 
HETATM   12  C   UNK N   1      28.021  17.287   8.914  0.00  0.00     0.049 C 
BRANCH   8  13
HETATM   13  N   UNK N   1      30.541  17.614   3.780  0.00  0.00    -0.385 N 
HETATM   14  H   UNK N   1      30.399  18.455   3.288  0.00  0.00     0.160 HD
BRANCH  13  15
HETATM   15  C   UNK N   1      31.363  16.600   3.159  0.00  0.00     0.077 C 
HETATM   16  C   UNK N   1      32.819  16.959   3.393  0.00  0.00     0.032 C 
BRANCH  15  17
HETATM   17  C   UNK N   1      31.069  15.229   3.771  0.00  0.00     0.020 C 
HETATM   18  C   UNK N   1      32.344  14.511   4.184  0.00  0.00     0.007 C 
ENDBRANCH  15  17
ENDBRANCH  13  15
ENDBRANCH   8  13
BRANCH   9  19
HETATM   19  C   UNK N   1      27.619  17.368   3.965  0.00  0.00     0.146 C 
HETATM   20  N   UNK N   1      26.703  18.255   3.823  0.00  0.00    -0.379 N 
HETATM   21  H   UNK N   1      26.002  18.182   3.134  0.00  0.00     0.158 HD
ATOM     22  HN  UNK N   1      26.699  19.063   4.444  1.00  0.00     0.158 HD
BRANCH  19  23
HETATM   23  O   UNK N   1      27.739  16.400   3.036  0.00  0.00    -0.346 OA
HETATM   24  H   UNK N   1      27.401  15.541   3.196  0.00  0.00     0.219 HD
ENDBRANCH  19  23
ENDBRANCH   9  19
ENDBRANCH   1   6
BRANCH   2  25
HETATM   25  C   UNK N   1      32.583  15.908   7.653  0.00  0.00     0.087 C 
HETATM   26  C   UNK N   1      34.104  16.072   7.503  0.00  0.00     0.050 C 
HETATM   27  C   UNK N   1      34.921  15.018   8.249  0.00  0.00     0.088 C 
HETATM   28  C   UNK N   1      34.995  13.736   7.403  0.00  0.00     0.027 C 
HETATM   29  N   UNK N   1      34.190  14.547   9.388  0.00  0.00    -0.358 N 
HETATM   30  C   UNK N   1      33.905  12.797   7.982  0.00  0.00     0.027 C 
HETATM   31  C   UNK N   1      33.122  13.698   8.918  0.00  0.00     0.088 C 
HETATM   32  C   UNK N   1      32.155  14.459   7.974  0.00  0.00     0.050 C 
BRANCH  29  33
HETATM   33  C   UNK N   1      34.912  14.284  10.599  0.00  0.00     0.103 A 
HETATM   34  C   UNK N   1      35.683  15.282  11.209  0.00  0.00     0.049 A 
HETATM   35  C   UNK N   1      36.121  15.107  12.524  0.00  0.00     0.020 A 
HETATM   36  C   UNK N   1      35.794  13.937  13.225  0.00  0.00     0.026 A 
HETATM   37  C   UNK N   1      35.093  12.932  12.556  0.00  0.00     0.104 A 
HETATM   38  N   UNK N   1      34.665  13.126  11.284  0.00  0.00    -0.351 N 
ATOM     39  HN  UNK N   1      34.140  12.384  10.822  1.00  0.00     0.166 HD
BRANCH  36  40
HETATM   40  C   UNK N   1      36.093  13.786  14.670  0.00  0.00     0.165 C 
HETATM   41  O   UNK N   1      36.847  14.580  15.214  0.00  0.00    -0.292 OA
BRANCH  40  42
HETATM   42  C   UNK N   1      35.528  12.647  15.478  0.00  0.00     0.061 A 
HETATM   43  C   UNK N   1      34.266  13.111  16.195  0.00  0.00     0.013 A 
HETATM   44  C   UNK N   1      35.552  12.971  16.966  0.00  0.00     0.013 A 
ENDBRANCH  40  42
ENDBRANCH  36  40
ENDBRANCH  29  33
ENDBRANCH   2  25
TORSDOF 10
ENDMDL
MODEL 7
REMARK VINA RESULT:      -7.4      7.837     11.718
REMARK  10 active torsions:
REMARK  status: ('A' for Active; 'I' for Inactive)
REMARK    1  A    between atoms: C_17  and  C_4 
REMARK    2  A    between atoms: N_34  and  C_17 
REMARK    3  A    between atoms: C_27  and  C_18 
REMARK    4  A    between atoms: C_27  and  C_19 
REMARK    5  A    between atoms: C_20  and  N_35 
REMARK    6  A    between atoms: C_29  and  C_23 
REMARK    7  A    between atoms: C_28  and  C_24 
REMARK    8  A    between atoms: N_34  and  C_25 
REMARK    9  A    between atoms: N_37  and  C_26 
REMARK   10  A    between atoms: O_39  and  C_28 
ROOT
HETATM    1  C   UNK N   1      33.792  10.544  11.323  0.00  0.00     0.147 C 
HETATM    2  N   UNK N   1      34.284  11.525  10.635  0.00  0.00    -0.366 N 
ATOM      3  HN  UNK N   1      33.831  11.773   9.755  1.00  0.00     0.162 HD
HETATM    4  O   UNK N   1      32.632   9.987  10.932  0.00  0.00    -0.346 OA
HETATM    5  H   UNK N   1      31.867   9.591  10.565  0.00  0.00     0.219 HD
ENDROOT
BRANCH   1   6
HETATM    6  C   UNK N   1      34.483   9.993  12.518  0.00  0.00     0.022 A 
HETATM    7  C   UNK N   1      34.201  10.514  13.785  0.00  0.00     0.046 A 
HETATM    8  C   UNK N   1      34.837  10.009  14.934  0.00  0.00     0.043 A 
HETATM    9  C   UNK N   1      35.745   8.927  14.809  0.00  0.00     0.041 A 
HETATM   10  C   UNK N   1      36.023   8.418  13.532  0.00  0.00     0.026 A 
HETATM   11  C   UNK N   1      35.417   8.947  12.394  0.00  0.00    -0.046 A 
HETATM   12  C   UNK N   1      35.753   8.356  11.066  0.00  0.00     0.049 C 
BRANCH   8  13
HETATM   13  N   UNK N   1      34.592  10.596  16.208  0.00  0.00    -0.385 N 
HETATM   14  H   UNK N   1      33.876  10.209  16.761  0.00  0.00     0.160 HD
BRANCH  13  15
HETATM   15  C   UNK N   1      35.324  11.722  16.744  0.00  0.00     0.077 C 
HETATM   16  C   UNK N   1      34.628  12.997  16.302  0.00  0.00     0.032 C 
BRANCH  15  17
HETATM   17  C   UNK N   1      35.352  11.658  18.272  0.00  0.00     0.020 C 
HETATM   18  C   UNK N   1      34.951  10.285  18.786  0.00  0.00     0.007 C 
ENDBRANCH  15  17
ENDBRANCH  13  15
ENDBRANCH   8  13
BRANCH   9  19
HETATM   19  C   UNK N   1      36.416   8.304  15.987  0.00  0.00     0.146 C 
HETATM   20  N   UNK N   1      36.011   7.170  16.432  0.00  0.00    -0.379 N 
HETATM   21  H   UNK N   1      36.323   6.801  17.290  0.00  0.00     0.158 HD
ATOM     22  HN  UNK N   1      35.344   6.634  15.879  1.00  0.00     0.158 HD
BRANCH  19  23
HETATM   23  O   UNK N   1      37.430   8.928  16.617  0.00  0.00    -0.346 OA
HETATM   24  H   UNK N   1      38.217   8.466  16.828  0.00  0.00     0.219 HD
ENDBRANCH  19  23
ENDBRANCH   9  19
ENDBRANCH   1   6
BRANCH   2  25
HETATM   25  C   UNK N   1      35.444  12.287  11.049  0.00  0.00     0.087 C 
HETATM   26  C   UNK N   1      36.157  12.858   9.812  0.00  0.00     0.050 C 
HETATM   27  C   UNK N   1      35.750  14.290   9.464  0.00  0.00     0.088 C 
HETATM   28  C   UNK N   1      36.535  15.272  10.348  0.00  0.00     0.027 C 
HETATM   29  N   UNK N   1      34.410  14.540   9.908  0.00  0.00    -0.358 N 
HETATM   30  C   UNK N   1      35.570  15.650  11.502  0.00  0.00     0.027 C 
HETATM   31  C   UNK N   1      34.428  14.665  11.346  0.00  0.00     0.088 C 
HETATM   32  C   UNK N   1      34.956  13.376  12.028  0.00  0.00     0.050 C 
BRANCH  29  33
HETATM   33  C   UNK N   1      33.553  15.330   9.074  0.00  0.00     0.103 A 
HETATM   34  C   UNK N   1      32.644  14.725   8.196  0.00  0.00     0.049 A 
HETATM   35  C   UNK N   1      31.621  15.488   7.628  0.00  0.00     0.020 A 
HETATM   36  C   UNK N   1      31.510  16.852   7.932  0.00  0.00     0.026 A 
HETATM   37  C   UNK N   1      32.482  17.436   8.746  0.00  0.00     0.104 A 
HETATM   38  N   UNK N   1      33.459  16.676   9.300  0.00  0.00    -0.351 N 
ATOM     39  HN  UNK N   1      34.147  17.123   9.904  1.00  0.00     0.166 HD
BRANCH  36  40
HETATM   40  C   UNK N   1      30.345  17.656   7.487  0.00  0.00     0.165 C 
HETATM   41  O   UNK N   1      29.952  17.556   6.333  0.00  0.00    -0.292 OA
BRANCH  40  42
HETATM   42  C   UNK N   1      29.661  18.632   8.408  0.00  0.00     0.061 A 
HETATM   43  C   UNK N   1      28.755  17.872   9.369  0.00  0.00     0.013 A 
HETATM   44  C   UNK N   1      28.152  18.609   8.201  0.00  0.00     0.013 A 
ENDBRANCH  40  42
ENDBRANCH  36  40
ENDBRANCH  29  33
ENDBRANCH   2  25
TORSDOF 10
ENDMDL
MODEL 8
REMARK VINA RESULT:      -7.4      2.852     10.487
REMARK  10 active torsions:
REMARK  status: ('A' for Active; 'I' for Inactive)
REMARK    1  A    between atoms: C_17  and  C_4 
REMARK    2  A    between atoms: N_34  and  C_17 
REMARK    3  A    between atoms: C_27  and  C_18 
REMARK    4  A    between atoms: C_27  and  C_19 
REMARK    5  A    between atoms: C_20  and  N_35 
REMARK    6  A    between atoms: C_29  and  C_23 
REMARK    7  A    between atoms: C_28  and  C_24 
REMARK    8  A    between atoms: N_34  and  C_25 
REMARK    9  A    between atoms: N_37  and  C_26 
REMARK   10  A    between atoms: O_39  and  C_28 
ROOT
HETATM    1  C   UNK N   1      23.866  15.653   5.456  0.00  0.00     0.147 C 
HETATM    2  N   UNK N   1      25.002  15.160   5.075  0.00  0.00    -0.366 N 
ATOM      3  HN  UNK N   1      25.694  14.934   5.790  1.00  0.00     0.162 HD
HETATM    4  O   UNK N   1      23.584  15.712   6.769  0.00  0.00    -0.346 OA
HETATM    5  H   UNK N   1      23.482  15.800   7.696  0.00  0.00     0.219 HD
ENDROOT
BRANCH   1   6
HETATM    6  C   UNK N   1      22.870  16.180   4.486  0.00  0.00     0.022 A 
HETATM    7  C   UNK N   1      21.997  15.300   3.838  0.00  0.00     0.046 A 
HETATM    8  C   UNK N   1      21.042  15.772   2.920  0.00  0.00     0.043 A 
HETATM    9  C   UNK N   1      20.934  17.165   2.680  0.00  0.00     0.041 A 
HETATM   10  C   UNK N   1      21.819  18.036   3.333  0.00  0.00     0.026 A 
HETATM   11  C   UNK N   1      22.787  17.559   4.214  0.00  0.00    -0.046 A 
HETATM   12  C   UNK N   1      23.695  18.540   4.878  0.00  0.00     0.049 C 
BRANCH   8  13
HETATM   13  N   UNK N   1      20.208  14.857   2.216  0.00  0.00    -0.385 N 
HETATM   14  H   UNK N   1      19.386  14.549   2.661  0.00  0.00     0.160 HD
BRANCH  13  15
HETATM   15  C   UNK N   1      20.486  14.350   0.890  0.00  0.00     0.077 C 
HETATM   16  C   UNK N   1      21.880  13.747   0.894  0.00  0.00     0.032 C 
BRANCH  15  17
HETATM   17  C   UNK N   1      19.466  13.276   0.508  0.00  0.00     0.020 C 
HETATM   18  C   UNK N   1      18.099  13.874   0.221  0.00  0.00     0.007 C 
ENDBRANCH  15  17
ENDBRANCH  13  15
ENDBRANCH   8  13
BRANCH   9  19
HETATM   19  C   UNK N   1      19.911  17.744   1.762  0.00  0.00     0.146 C 
HETATM   20  N   UNK N   1      18.893  18.362   2.241  0.00  0.00    -0.379 N 
HETATM   21  H   UNK N   1      18.125  18.622   1.682  0.00  0.00     0.158 HD
ATOM     22  HN  UNK N   1      18.878  18.589   3.235  1.00  0.00     0.158 HD
BRANCH  19  23
HETATM   23  O   UNK N   1      20.020  17.604   0.427  0.00  0.00    -0.346 OA
HETATM   24  H   UNK N   1      20.199  18.346  -0.117  0.00  0.00     0.219 HD
ENDBRANCH  19  23
ENDBRANCH   9  19
ENDBRANCH   1   6
BRANCH   2  25
HETATM   25  C   UNK N   1      25.342  14.917   3.689  0.00  0.00     0.087 C 
HETATM   26  C   UNK N   1      26.044  16.153   3.103  0.00  0.00     0.050 C 
HETATM   27  C   UNK N   1      27.571  16.081   3.147  0.00  0.00     0.088 C 
HETATM   28  C   UNK N   1      28.077  15.251   1.956  0.00  0.00     0.027 C 
HETATM   29  N   UNK N   1      27.991  15.261   4.245  0.00  0.00    -0.358 N 
HETATM   30  C   UNK N   1      28.342  13.833   2.525  0.00  0.00     0.027 C 
HETATM   31  C   UNK N   1      27.721  13.884   3.907  0.00  0.00     0.088 C 
HETATM   32  C   UNK N   1      26.212  13.642   3.642  0.00  0.00     0.050 C 
BRANCH  29  33
HETATM   33  C   UNK N   1      29.149  15.661   4.990  0.00  0.00     0.103 A 
HETATM   34  C   UNK N   1      29.254  16.955   5.517  0.00  0.00     0.049 A 
HETATM   35  C   UNK N   1      30.225  17.230   6.482  0.00  0.00     0.020 A 
HETATM   36  C   UNK N   1      31.092  16.216   6.916  0.00  0.00     0.026 A 
HETATM   37  C   UNK N   1      31.009  14.961   6.309  0.00  0.00     0.104 A 
HETATM   38  N   UNK N   1      30.050  14.711   5.384  0.00  0.00    -0.351 N 
ATOM     39  HN  UNK N   1      29.998  13.782   4.967  1.00  0.00     0.166 HD
BRANCH  36  40
HETATM   40  C   UNK N   1      32.021  16.420   8.054  0.00  0.00     0.165 C 
HETATM   41  O   UNK N   1      32.200  15.513   8.855  0.00  0.00    -0.292 OA
BRANCH  40  42
HETATM   42  C   UNK N   1      32.716  17.738   8.279  0.00  0.00     0.061 A 
HETATM   43  C   UNK N   1      33.872  17.875   7.296  0.00  0.00     0.013 A 
HETATM   44  C   UNK N   1      34.154  17.524   8.734  0.00  0.00     0.013 A 
ENDBRANCH  40  42
ENDBRANCH  36  40
ENDBRANCH  29  33
ENDBRANCH   2  25
TORSDOF 10
ENDMDL
MODEL 9
REMARK VINA RESULT:      -7.4      7.914     11.988
REMARK  10 active torsions:
REMARK  status: ('A' for Active; 'I' for Inactive)
REMARK    1  A    between atoms: C_17  and  C_4 
REMARK    2  A    between atoms: N_34  and  C_17 
REMARK    3  A    between atoms: C_27  and  C_18 
REMARK    4  A    between atoms: C_27  and  C_19 
REMARK    5  A    between atoms: C_20  and  N_35 
REMARK    6  A    between atoms: C_29  and  C_23 
REMARK    7  A    between atoms: C_28  and  C_24 
REMARK    8  A    between atoms: N_34  and  C_25 
REMARK    9  A    between atoms: N_37  and  C_26 
REMARK   10  A    between atoms: O_39  and  C_28 
ROOT
HETATM    1  C   UNK N   1      33.809  10.602  11.449  0.00  0.00     0.147 C 
HETATM    2  N   UNK N   1      34.328  11.614  10.829  0.00  0.00    -0.366 N 
ATOM      3  HN  UNK N   1      33.912  11.903   9.943  1.00  0.00     0.162 HD
HETATM    4  O   UNK N   1      32.668  10.063  10.984  0.00  0.00    -0.346 OA
HETATM    5  H   UNK N   1      31.921   9.683  10.566  0.00  0.00     0.219 HD
ENDROOT
BRANCH   1   6
HETATM    6  C   UNK N   1      34.450   9.997  12.646  0.00  0.00     0.022 A 
HETATM    7  C   UNK N   1      34.166  10.505  13.918  0.00  0.00     0.046 A 
HETATM    8  C   UNK N   1      34.755   9.949  15.068  0.00  0.00     0.043 A 
HETATM    9  C   UNK N   1      35.615   8.830  14.939  0.00  0.00     0.041 A 
HETATM   10  C   UNK N   1      35.897   8.334  13.658  0.00  0.00     0.026 A 
HETATM   11  C   UNK N   1      35.338   8.912  12.519  0.00  0.00    -0.046 A 
HETATM   12  C   UNK N   1      35.676   8.333  11.185  0.00  0.00     0.049 C 
BRANCH   8  13
HETATM   13  N   UNK N   1      34.510  10.522  16.349  0.00  0.00    -0.385 N 
HETATM   14  H   UNK N   1      33.695  10.245  16.827  0.00  0.00     0.160 HD
BRANCH  13  15
HETATM   15  C   UNK N   1      35.378  11.480  16.996  0.00  0.00     0.077 C 
HETATM   16  C   UNK N   1      34.877  12.875  16.666  0.00  0.00     0.032 C 
BRANCH  15  17
HETATM   17  C   UNK N   1      35.359  11.275  18.512  0.00  0.00     0.020 C 
HETATM   18  C   UNK N   1      35.337  12.599  19.259  0.00  0.00     0.007 C 
ENDBRANCH  15  17
ENDBRANCH  13  15
ENDBRANCH   8  13
BRANCH   9  19
HETATM   19  C   UNK N   1      36.233   8.154  16.117  0.00  0.00     0.146 C 
HETATM   20  N   UNK N   1      37.500   7.953  16.151  0.00  0.00    -0.379 N 
HETATM   21  H   UNK N   1      37.924   7.381  16.832  0.00  0.00     0.158 HD
ATOM     22  HN  UNK N   1      38.089   8.400  15.449  1.00  0.00     0.158 HD
BRANCH  19  23
HETATM   23  O   UNK N   1      35.476   7.720  17.143  0.00  0.00    -0.346 OA
HETATM   24  H   UNK N   1      35.263   8.291  17.854  0.00  0.00     0.219 HD
ENDBRANCH  19  23
ENDBRANCH   9  19
ENDBRANCH   1   6
BRANCH   2  25
HETATM   25  C   UNK N   1      35.467  12.357  11.327  0.00  0.00     0.087 C 
HETATM   26  C   UNK N   1      36.361  12.784  10.151  0.00  0.00     0.050 C 
HETATM   27  C   UNK N   1      36.082  14.196   9.637  0.00  0.00     0.088 C 
HETATM   28  C   UNK N   1      36.804  15.217  10.532  0.00  0.00     0.027 C 
HETATM   29  N   UNK N   1      34.713  14.544   9.880  0.00  0.00    -0.358 N 
HETATM   30  C   UNK N   1      35.723  15.737  11.516  0.00  0.00     0.027 C 
HETATM   31  C   UNK N   1      34.557  14.795  11.293  0.00  0.00     0.088 C 
HETATM   32  C   UNK N   1      34.921  13.549  12.142  0.00  0.00     0.050 C 
BRANCH  29  33
HETATM   33  C   UNK N   1      34.013  15.295   8.879  0.00  0.00     0.103 A 
HETATM   34  C   UNK N   1      34.692  15.838   7.780  0.00  0.00     0.049 A 
HETATM   35  C   UNK N   1      33.965  16.293   6.678  0.00  0.00     0.020 A 
HETATM   36  C   UNK N   1      32.565  16.211   6.675  0.00  0.00     0.026 A 
HETATM   37  C   UNK N   1      31.922  15.740   7.821  0.00  0.00     0.104 A 
HETATM   38  N   UNK N   1      32.645  15.290   8.876  0.00  0.00    -0.351 N 
ATOM     39  HN  UNK N   1      32.153  14.934   9.695  1.00  0.00     0.166 HD
BRANCH  36  40
HETATM   40  C   UNK N   1      31.769  16.525   5.463  0.00  0.00     0.165 C 
HETATM   41  O   UNK N   1      30.800  17.265   5.556  0.00  0.00    -0.292 OA
BRANCH  40  42
HETATM   42  C   UNK N   1      32.096  15.917   4.125  0.00  0.00     0.061 A 
HETATM   43  C   UNK N   1      32.788  16.956   3.251  0.00  0.00     0.013 A 
HETATM   44  C   UNK N   1      31.339  16.621   3.007  0.00  0.00     0.013 A 
ENDBRANCH  40  42
ENDBRANCH  36  40
ENDBRANCH  29  33
ENDBRANCH   2  25
TORSDOF 10
ENDMDL
