MODEL 1
REMARK VINA RESULT:      -8.9      0.000      0.000
REMARK  8 active torsions:
REMARK  status: ('A' for Active; 'I' for Inactive)
REMARK    1  A    between atoms: C_2  and  C_5 
REMARK    2  A    between atoms: C_7  and  N_11 
REMARK       I    between atoms: N_11  and  C_12 
REMARK       I    between atoms: C_12  and  N_14 
REMARK    3  A    between atoms: N_14  and  C_15 
REMARK    4  A    between atoms: C_18  and  C_21 
REMARK    5  A    between atoms: C_27  and  O_30 
REMARK    6  A    between atoms: O_30  and  C_31 
REMARK    7  A    between atoms: C_31  and  C_32 
REMARK    8  A    between atoms: C_32  and  N_33 
ROOT
HETATM    1  C   UNK N   1      35.406  14.959   9.191  0.00  0.00     0.036 A 
HETATM    2  C   UNK N   1      34.298  14.339   8.608  0.00  0.00     0.030 A 
HETATM    3  C   UNK N   1      33.131  15.084   8.387  0.00  0.00     0.012 A 
HETATM    4  C   UNK N   1      33.057  16.420   8.818  0.00  0.00    -0.030 A 
HETATM    5  C   UNK N   1      34.177  17.013   9.400  0.00  0.00     0.012 A 
HETATM    6  C   UNK N   1      35.325  16.302   9.570  0.00  0.00     0.030 A 
ENDROOT
BRANCH   4   7
HETATM    7  C   UNK N   1      32.114  17.346   8.209  0.00  0.00     0.156 A 
HETATM    8  C   UNK N   1      31.594  16.997   6.950  0.00  0.00     0.102 A 
HETATM    9  N   UNK N   1      30.281  17.120   7.065  0.00  0.00    -0.303 N 
HETATM   10  C   UNK N   1      29.183  16.731   6.371  0.00  0.00     0.058 A 
HETATM   11  C   UNK N   1      30.027  17.609   8.267  0.00  0.00     0.152 A 
HETATM   12  C   UNK N   1      28.002  16.888   7.108  0.00  0.00     0.038 A 
HETATM   13  C   UNK N   1      29.175  16.128   5.117  0.00  0.00     0.034 A 
HETATM   14  C   UNK N   1      26.788  16.448   6.638  0.00  0.00     0.058 A 
HETATM   15  S   UNK N   1      28.411  17.574   8.580  0.00  0.00    -0.052 SA
HETATM   16  C   UNK N   1      26.745  15.895   5.352  0.00  0.00     0.070 A 
HETATM   17  C   UNK N   1      27.933  15.739   4.589  0.00  0.00     0.039 A 
HETATM   18  N   UNK N   1      31.111  17.790   9.016  0.00  0.00    -0.357 N 
ATOM     19  HN  UNK N   1      31.176  18.168   9.962  1.00  0.00     0.162 HD
BRANCH  16  20
HETATM   20  O   UNK N   1      25.539  15.633   4.819  0.00  0.00    -0.349 OA
BRANCH  20  21
HETATM   21  C   UNK N   1      24.952  16.503   3.923  0.00  0.00     0.206 C 
BRANCH  21  22
HETATM   22  C   UNK N   1      24.029  17.512   4.642  0.00  0.00     0.299 C 
BRANCH  22  23
HETATM   23  N   UNK N   1      24.302  18.884   4.219  0.00  0.00     0.094 N 
HETATM   24  C   UNK N   1      25.528  18.905   3.420  0.00  0.00     0.298 C 
HETATM   25  C   UNK N   1      25.780  20.346   2.966  0.00  0.00     0.198 C 
HETATM   26  O   UNK N   1      24.723  20.758   2.134  0.00  0.00    -0.388 OA
HETATM   27  C   UNK N   1      23.557  20.800   2.926  0.00  0.00     0.198 C 
HETATM   28  C   UNK N   1      23.199  19.386   3.404  0.00  0.00     0.298 C 
ENDBRANCH  22  23
ENDBRANCH  21  22
ENDBRANCH  20  21
ENDBRANCH  16  20
ENDBRANCH   4   7
BRANCH   1  29
HETATM   29  N   UNK N   1      36.588  14.227   9.474  0.00  0.00    -0.309 N 
HETATM   30  C   UNK N   1      36.842  13.813  10.741  0.00  0.00     0.326 C 
HETATM   31  N   UNK N   1      35.881  13.969  11.695  0.00  0.00    -0.293 N 
HETATM   32  O   UNK N   1      37.921  13.309  11.010  0.00  0.00    -0.247 OA
HETATM   33  H   UNK N   1      35.033  14.376  11.403  0.00  0.00     0.172 HD
HETATM   34  H   UNK N   1      37.223  14.020   8.751  0.00  0.00     0.170 HD
BRANCH  31  35
HETATM   35  C   UNK N   1      35.973  13.610  13.042  0.00  0.00     0.132 A 
HETATM   36  C   UNK N   1      35.329  12.566  13.635  0.00  0.00     0.086 A 
HETATM   37  C   UNK N   1      35.851  12.567  14.906  0.00  0.00     0.087 A 
HETATM   38  O   UNK N   1      36.724  13.545  15.018  0.00  0.00    -0.240 OA
HETATM   39  N   UNK N   1      36.816  14.203  13.904  0.00  0.00    -0.245 N 
ATOM     40  HN  UNK N   1      37.411  15.011  13.719  1.00  0.00     0.196 HD
BRANCH  37  41
HETATM   41  C   UNK N   1      35.546  11.563  15.962  0.00  0.00     0.000 C 
HETATM   42  C   UNK N   1      36.722  10.625  16.133  0.00  0.00     0.021 C 
HETATM   43  C   UNK N   1      34.322  10.781  15.533  0.00  0.00     0.021 C 
HETATM   44  C   UNK N   1      35.253  12.235  17.296  0.00  0.00     0.021 C 
ENDBRANCH  37  41
ENDBRANCH  31  35
ENDBRANCH   1  29
TORSDOF 8
ENDMDL
MODEL 2
REMARK VINA RESULT:      -8.8      2.643      4.109
REMARK  8 active torsions:
REMARK  status: ('A' for Active; 'I' for Inactive)
REMARK    1  A    between atoms: C_2  and  C_5 
REMARK    2  A    between atoms: C_7  and  N_11 
REMARK       I    between atoms: N_11  and  C_12 
REMARK       I    between atoms: C_12  and  N_14 
REMARK    3  A    between atoms: N_14  and  C_15 
REMARK    4  A    between atoms: C_18  and  C_21 
REMARK    5  A    between atoms: C_27  and  O_30 
REMARK    6  A    between atoms: O_30  and  C_31 
REMARK    7  A    between atoms: C_31  and  C_32 
REMARK    8  A    between atoms: C_32  and  N_33 
ROOT
HETATM    1  C   UNK N   1      33.199  17.761   7.729  0.00  0.00     0.036 A 
HETATM    2  C   UNK N   1      31.888  17.710   8.210  0.00  0.00     0.030 A 
HETATM    3  C   UNK N   1      30.841  17.426   7.323  0.00  0.00     0.012 A 
HETATM    4  C   UNK N   1      31.104  17.268   5.951  0.00  0.00    -0.030 A 
HETATM    5  C   UNK N   1      32.421  17.328   5.497  0.00  0.00     0.012 A 
HETATM    6  C   UNK N   1      33.442  17.556   6.368  0.00  0.00     0.030 A 
ENDROOT
BRANCH   4   7
HETATM    7  C   UNK N   1      30.190  16.521   5.099  0.00  0.00     0.156 A 
HETATM    8  C   UNK N   1      29.251  15.692   5.739  0.00  0.00     0.102 A 
HETATM    9  N   UNK N   1      28.082  16.012   5.207  0.00  0.00    -0.303 N 
HETATM   10  C   UNK N   1      26.772  15.813   5.498  0.00  0.00     0.058 A 
HETATM   11  C   UNK N   1      28.304  16.890   4.244  0.00  0.00     0.152 A 
HETATM   12  C   UNK N   1      25.926  16.630   4.736  0.00  0.00     0.038 A 
HETATM   13  C   UNK N   1      26.269  14.995   6.505  0.00  0.00     0.034 A 
HETATM   14  C   UNK N   1      24.569  16.673   4.952  0.00  0.00     0.058 A 
HETATM   15  S   UNK N   1      26.886  17.516   3.688  0.00  0.00    -0.052 SA
HETATM   16  C   UNK N   1      24.033  15.812   5.919  0.00  0.00     0.070 A 
HETATM   17  C   UNK N   1      24.877  14.971   6.690  0.00  0.00     0.039 A 
HETATM   18  N   UNK N   1      29.582  17.233   4.111  0.00  0.00    -0.357 N 
ATOM     19  HN  UNK N   1      30.003  17.872   3.436  1.00  0.00     0.162 HD
BRANCH  16  20
HETATM   20  O   UNK N   1      22.694  15.719   6.004  0.00  0.00    -0.349 OA
BRANCH  20  21
HETATM   21  C   UNK N   1      21.935  16.777   6.461  0.00  0.00     0.206 C 
BRANCH  21  22
HETATM   22  C   UNK N   1      20.658  16.961   5.611  0.00  0.00     0.299 C 
BRANCH  22  23
HETATM   23  N   UNK N   1      20.963  17.541   4.304  0.00  0.00     0.094 N 
HETATM   24  C   UNK N   1      19.791  17.410   3.437  0.00  0.00     0.298 C 
HETATM   25  C   UNK N   1      20.123  18.046   2.083  0.00  0.00     0.198 C 
HETATM   26  O   UNK N   1      20.365  19.420   2.267  0.00  0.00    -0.388 OA
HETATM   27  C   UNK N   1      21.533  19.540   3.049  0.00  0.00     0.198 C 
HETATM   28  C   UNK N   1      21.289  18.957   4.448  0.00  0.00     0.298 C 
ENDBRANCH  22  23
ENDBRANCH  21  22
ENDBRANCH  20  21
ENDBRANCH  16  20
ENDBRANCH   4   7
BRANCH   1  29
HETATM   29  N   UNK N   1      34.280  18.092   8.586  0.00  0.00    -0.309 N 
HETATM   30  C   UNK N   1      34.783  17.159   9.434  0.00  0.00     0.326 C 
HETATM   31  N   UNK N   1      34.349  15.871   9.336  0.00  0.00    -0.293 N 
HETATM   32  O   UNK N   1      35.615  17.482  10.267  0.00  0.00    -0.247 OA
HETATM   33  H   UNK N   1      33.683  15.683   8.636  0.00  0.00     0.172 HD
HETATM   34  H   UNK N   1      34.664  18.999   8.566  0.00  0.00     0.170 HD
BRANCH  31  35
HETATM   35  C   UNK N   1      34.749  14.791  10.126  0.00  0.00     0.132 A 
HETATM   36  C   UNK N   1      35.814  13.977   9.883  0.00  0.00     0.086 A 
HETATM   37  C   UNK N   1      35.851  13.179  11.001  0.00  0.00     0.087 A 
HETATM   38  O   UNK N   1      34.873  13.520  11.813  0.00  0.00    -0.240 OA
HETATM   39  N   UNK N   1      34.180  14.493  11.306  0.00  0.00    -0.245 N 
ATOM     40  HN  UNK N   1      33.364  14.943  11.722  1.00  0.00     0.196 HD
BRANCH  37  41
HETATM   41  C   UNK N   1      36.889  12.152  11.292  0.00  0.00     0.000 C 
HETATM   42  C   UNK N   1      36.502  10.836  10.652  0.00  0.00     0.021 C 
HETATM   43  C   UNK N   1      36.983  11.985  12.794  0.00  0.00     0.021 C 
HETATM   44  C   UNK N   1      38.252  12.577  10.762  0.00  0.00     0.021 C 
ENDBRANCH  37  41
ENDBRANCH  31  35
ENDBRANCH   1  29
TORSDOF 8
ENDMDL
MODEL 3
REMARK VINA RESULT:      -8.6      3.977     11.767
REMARK  8 active torsions:
REMARK  status: ('A' for Active; 'I' for Inactive)
REMARK    1  A    between atoms: C_2  and  C_5 
REMARK    2  A    between atoms: C_7  and  N_11 
REMARK       I    between atoms: N_11  and  C_12 
REMARK       I    between atoms: C_12  and  N_14 
REMARK    3  A    between atoms: N_14  and  C_15 
REMARK    4  A    between atoms: C_18  and  C_21 
REMARK    5  A    between atoms: C_27  and  O_30 
REMARK    6  A    between atoms: O_30  and  C_31 
REMARK    7  A    between atoms: C_31  and  C_32 
REMARK    8  A    between atoms: C_32  and  N_33 
ROOT
HETATM    1  C   UNK N   1      21.779  17.070   4.891  0.00  0.00     0.036 A 
HETATM    2  C   UNK N   1      22.725  16.219   4.314  0.00  0.00     0.030 A 
HETATM    3  C   UNK N   1      23.926  16.755   3.828  0.00  0.00     0.012 A 
HETATM    4  C   UNK N   1      24.137  18.145   3.855  0.00  0.00    -0.030 A 
HETATM    5  C   UNK N   1      23.175  18.972   4.433  0.00  0.00     0.012 A 
HETATM    6  C   UNK N   1      22.030  18.444   4.948  0.00  0.00     0.030 A 
ENDROOT
BRANCH   4   7
HETATM    7  C   UNK N   1      25.486  18.692   3.829  0.00  0.00     0.156 A 
HETATM    8  C   UNK N   1      26.008  19.169   5.045  0.00  0.00     0.102 A 
HETATM    9  N   UNK N   1      27.194  18.594   5.166  0.00  0.00    -0.303 N 
HETATM   10  C   UNK N   1      28.107  18.399   6.151  0.00  0.00     0.058 A 
HETATM   11  C   UNK N   1      27.424  17.906   4.061  0.00  0.00     0.152 A 
HETATM   12  C   UNK N   1      29.083  17.459   5.796  0.00  0.00     0.038 A 
HETATM   13  C   UNK N   1      28.067  18.949   7.429  0.00  0.00     0.034 A 
HETATM   14  C   UNK N   1      30.035  17.027   6.689  0.00  0.00     0.058 A 
HETATM   15  S   UNK N   1      28.771  16.972   4.224  0.00  0.00    -0.052 SA
HETATM   16  C   UNK N   1      30.052  17.613   7.961  0.00  0.00     0.070 A 
HETATM   17  C   UNK N   1      29.076  18.576   8.331  0.00  0.00     0.039 A 
HETATM   18  N   UNK N   1      26.421  17.938   3.188  0.00  0.00    -0.357 N 
ATOM     19  HN  UNK N   1      26.366  17.506   2.265  1.00  0.00     0.162 HD
BRANCH  16  20
HETATM   20  O   UNK N   1      31.087  17.329   8.770  0.00  0.00    -0.349 OA
BRANCH  20  21
HETATM   21  C   UNK N   1      32.291  16.888   8.258  0.00  0.00     0.206 C 
BRANCH  21  22
HETATM   22  C   UNK N   1      32.625  15.463   8.756  0.00  0.00     0.299 C 
BRANCH  22  23
HETATM   23  N   UNK N   1      33.710  15.477   9.734  0.00  0.00     0.094 N 
HETATM   24  C   UNK N   1      34.635  14.382   9.439  0.00  0.00     0.298 C 
HETATM   25  C   UNK N   1      35.777  14.430  10.459  0.00  0.00     0.198 C 
HETATM   26  O   UNK N   1      36.484  15.637  10.303  0.00  0.00    -0.388 OA
HETATM   27  C   UNK N   1      35.606  16.685  10.652  0.00  0.00     0.198 C 
HETATM   28  C   UNK N   1      34.437  16.742   9.659  0.00  0.00     0.298 C 
ENDBRANCH  22  23
ENDBRANCH  21  22
ENDBRANCH  20  21
ENDBRANCH  16  20
ENDBRANCH   4   7
BRANCH   1  29
HETATM   29  N   UNK N   1      20.532  16.572   5.351  0.00  0.00    -0.309 N 
HETATM   30  C   UNK N   1      20.491  15.720   6.407  0.00  0.00     0.326 C 
HETATM   31  N   UNK N   1      21.632  15.481   7.110  0.00  0.00    -0.293 N 
HETATM   32  O   UNK N   1      19.437  15.183   6.712  0.00  0.00    -0.247 OA
HETATM   33  H   UNK N   1      22.442  15.955   6.811  0.00  0.00     0.172 HD
HETATM   34  H   UNK N   1      19.698  16.845   4.903  0.00  0.00     0.170 HD
BRANCH  31  35
HETATM   35  C   UNK N   1      21.775  14.633   8.212  0.00  0.00     0.132 A 
HETATM   36  C   UNK N   1      22.737  13.681   8.366  0.00  0.00     0.086 A 
HETATM   37  C   UNK N   1      22.521  13.234   9.647  0.00  0.00     0.087 A 
HETATM   38  O   UNK N   1      21.506  13.886  10.173  0.00  0.00    -0.240 OA
HETATM   39  N   UNK N   1      21.025  14.740   9.323  0.00  0.00    -0.245 N 
ATOM     40  HN  UNK N   1      20.235  15.368   9.468  1.00  0.00     0.196 HD
BRANCH  37  41
HETATM   41  C   UNK N   1      23.360  12.232  10.362  0.00  0.00     0.000 C 
HETATM   42  C   UNK N   1      24.800  12.697  10.392  0.00  0.00     0.021 C 
HETATM   43  C   UNK N   1      23.261  10.916   9.621  0.00  0.00     0.021 C 
HETATM   44  C   UNK N   1      22.879  12.026  11.791  0.00  0.00     0.021 C 
ENDBRANCH  37  41
ENDBRANCH  31  35
ENDBRANCH   1  29
TORSDOF 8
ENDMDL
MODEL 4
REMARK VINA RESULT:      -8.6      3.515      5.477
REMARK  8 active torsions:
REMARK  status: ('A' for Active; 'I' for Inactive)
REMARK    1  A    between atoms: C_2  and  C_5 
REMARK    2  A    between atoms: C_7  and  N_11 
REMARK       I    between atoms: N_11  and  C_12 
REMARK       I    between atoms: C_12  and  N_14 
REMARK    3  A    between atoms: N_14  and  C_15 
REMARK    4  A    between atoms: C_18  and  C_21 
REMARK    5  A    between atoms: C_27  and  O_30 
REMARK    6  A    between atoms: O_30  and  C_31 
REMARK    7  A    between atoms: C_31  and  C_32 
REMARK    8  A    between atoms: C_32  and  N_33 
ROOT
HETATM    1  C   UNK N   1      33.399  17.775   7.273  0.00  0.00     0.036 A 
HETATM    2  C   UNK N   1      33.784  17.458   5.968  0.00  0.00     0.030 A 
HETATM    3  C   UNK N   1      32.815  17.028   5.050  0.00  0.00     0.012 A 
HETATM    4  C   UNK N   1      31.484  16.850   5.465  0.00  0.00    -0.030 A 
HETATM    5  C   UNK N   1      31.127  17.171   6.774  0.00  0.00     0.012 A 
HETATM    6  C   UNK N   1      32.061  17.633   7.651  0.00  0.00     0.030 A 
ENDROOT
BRANCH   4   7
HETATM    7  C   UNK N   1      30.394  16.886   4.501  0.00  0.00     0.156 A 
HETATM    8  C   UNK N   1      29.553  15.761   4.442  0.00  0.00     0.102 A 
HETATM    9  N   UNK N   1      28.321  16.239   4.523  0.00  0.00    -0.303 N 
HETATM   10  C   UNK N   1      27.080  15.748   4.768  0.00  0.00     0.058 A 
HETATM   11  C   UNK N   1      28.400  17.558   4.523  0.00  0.00     0.152 A 
HETATM   12  C   UNK N   1      26.146  16.762   5.021  0.00  0.00     0.038 A 
HETATM   13  C   UNK N   1      26.736  14.405   4.885  0.00  0.00     0.034 A 
HETATM   14  C   UNK N   1      24.857  16.482   5.406  0.00  0.00     0.058 A 
HETATM   15  S   UNK N   1      26.934  18.230   4.856  0.00  0.00    -0.052 SA
HETATM   16  C   UNK N   1      24.470  15.137   5.470  0.00  0.00     0.070 A 
HETATM   17  C   UNK N   1      25.404  14.099   5.206  0.00  0.00     0.039 A 
HETATM   18  N   UNK N   1      29.646  18.024   4.493  0.00  0.00    -0.357 N 
ATOM     19  HN  UNK N   1      29.963  18.993   4.468  1.00  0.00     0.162 HD
BRANCH  16  20
HETATM   20  O   UNK N   1      23.168  14.865   5.667  0.00  0.00    -0.349 OA
BRANCH  20  21
HETATM   21  C   UNK N   1      22.652  14.737   6.941  0.00  0.00     0.206 C 
BRANCH  21  22
HETATM   22  C   UNK N   1      22.699  13.269   7.420  0.00  0.00     0.299 C 
BRANCH  22  23
HETATM   23  N   UNK N   1      23.024  13.178   8.842  0.00  0.00     0.094 N 
HETATM   24  C   UNK N   1      21.935  12.496   9.541  0.00  0.00     0.298 C 
HETATM   25  C   UNK N   1      22.307  12.389  11.023  0.00  0.00     0.198 C 
HETATM   26  O   UNK N   1      23.459  11.592  11.152  0.00  0.00    -0.388 OA
HETATM   27  C   UNK N   1      24.521  12.286  10.533  0.00  0.00     0.198 C 
HETATM   28  C   UNK N   1      24.255  12.415   9.027  0.00  0.00     0.298 C 
ENDBRANCH  22  23
ENDBRANCH  21  22
ENDBRANCH  20  21
ENDBRANCH  16  20
ENDBRANCH   4   7
BRANCH   1  29
HETATM   29  N   UNK N   1      34.357  18.168   8.243  0.00  0.00    -0.309 N 
HETATM   30  C   UNK N   1      34.722  17.303   9.224  0.00  0.00     0.326 C 
HETATM   31  N   UNK N   1      34.281  16.015   9.170  0.00  0.00    -0.293 N 
HETATM   32  O   UNK N   1      35.436  17.687  10.136  0.00  0.00    -0.247 OA
HETATM   33  H   UNK N   1      33.715  15.775   8.401  0.00  0.00     0.172 HD
HETATM   34  H   UNK N   1      34.757  19.067   8.205  0.00  0.00     0.170 HD
BRANCH  31  35
HETATM   35  C   UNK N   1      34.549  14.999  10.091  0.00  0.00     0.132 A 
HETATM   36  C   UNK N   1      35.494  14.027   9.953  0.00  0.00     0.086 A 
HETATM   37  C   UNK N   1      35.445  13.379  11.164  0.00  0.00     0.087 A 
HETATM   38  O   UNK N   1      34.534  13.946  11.926  0.00  0.00    -0.240 OA
HETATM   39  N   UNK N   1      33.966  14.930  11.299  0.00  0.00    -0.245 N 
ATOM     40  HN  UNK N   1      33.224  15.533  11.655  1.00  0.00     0.196 HD
BRANCH  37  41
HETATM   41  C   UNK N   1      36.343  12.268  11.583  0.00  0.00     0.000 C 
HETATM   42  C   UNK N   1      37.784  12.641  11.306  0.00  0.00     0.021 C 
HETATM   43  C   UNK N   1      35.971  11.033  10.790  0.00  0.00     0.021 C 
HETATM   44  C   UNK N   1      36.189  11.961  13.066  0.00  0.00     0.021 C 
ENDBRANCH  37  41
ENDBRANCH  31  35
ENDBRANCH   1  29
TORSDOF 8
ENDMDL
MODEL 5
REMARK VINA RESULT:      -8.5      2.261      3.627
REMARK  8 active torsions:
REMARK  status: ('A' for Active; 'I' for Inactive)
REMARK    1  A    between atoms: C_2  and  C_5 
REMARK    2  A    between atoms: C_7  and  N_11 
REMARK       I    between atoms: N_11  and  C_12 
REMARK       I    between atoms: C_12  and  N_14 
REMARK    3  A    between atoms: N_14  and  C_15 
REMARK    4  A    between atoms: C_18  and  C_21 
REMARK    5  A    between atoms: C_27  and  O_30 
REMARK    6  A    between atoms: O_30  and  C_31 
REMARK    7  A    between atoms: C_31  and  C_32 
REMARK    8  A    between atoms: C_32  and  N_33 
ROOT
HETATM    1  C   UNK N   1      35.450  14.955   9.092  0.00  0.00     0.036 A 
HETATM    2  C   UNK N   1      34.421  14.332   8.380  0.00  0.00     0.030 A 
HETATM    3  C   UNK N   1      33.233  15.035   8.133  0.00  0.00     0.012 A 
HETATM    4  C   UNK N   1      33.057  16.326   8.662  0.00  0.00    -0.030 A 
HETATM    5  C   UNK N   1      34.098  16.922   9.371  0.00  0.00     0.012 A 
HETATM    6  C   UNK N   1      35.269  16.255   9.570  0.00  0.00     0.030 A 
ENDROOT
BRANCH   4   7
HETATM    7  C   UNK N   1      32.110  17.253   8.059  0.00  0.00     0.156 A 
HETATM    8  C   UNK N   1      31.529  16.872   6.836  0.00  0.00     0.102 A 
HETATM    9  N   UNK N   1      30.226  17.031   7.002  0.00  0.00    -0.303 N 
HETATM   10  C   UNK N   1      29.090  16.644   6.369  0.00  0.00     0.058 A 
HETATM   11  C   UNK N   1      30.034  17.568   8.194  0.00  0.00     0.152 A 
HETATM   12  C   UNK N   1      27.945  16.856   7.148  0.00  0.00     0.038 A 
HETATM   13  C   UNK N   1      29.015  15.998   5.138  0.00  0.00     0.034 A 
HETATM   14  C   UNK N   1      26.703  16.429   6.745  0.00  0.00     0.058 A 
HETATM   15  S   UNK N   1      28.432  17.584   8.576  0.00  0.00    -0.052 SA
HETATM   16  C   UNK N   1      26.593  15.832   5.482  0.00  0.00     0.070 A 
HETATM   17  C   UNK N   1      27.744  15.621   4.677  0.00  0.00     0.039 A 
HETATM   18  N   UNK N   1      31.153  17.749   8.891  0.00  0.00    -0.357 N 
ATOM     19  HN  UNK N   1      31.266  18.158   9.819  1.00  0.00     0.162 HD
BRANCH  16  20
HETATM   20  O   UNK N   1      25.360  15.581   5.011  0.00  0.00    -0.349 OA
BRANCH  20  21
HETATM   21  C   UNK N   1      24.261  15.594   5.846  0.00  0.00     0.206 C 
BRANCH  21  22
HETATM   22  C   UNK N   1      23.887  14.166   6.303  0.00  0.00     0.299 C 
BRANCH  22  23
HETATM   23  N   UNK N   1      23.832  14.066   7.760  0.00  0.00     0.094 N 
HETATM   24  C   UNK N   1      22.515  13.566   8.157  0.00  0.00     0.298 C 
HETATM   25  C   UNK N   1      22.487  13.445   9.684  0.00  0.00     0.198 C 
HETATM   26  O   UNK N   1      23.442  12.495  10.088  0.00  0.00    -0.388 OA
HETATM   27  C   UNK N   1      24.714  13.012   9.762  0.00  0.00     0.198 C 
HETATM   28  C   UNK N   1      24.853  13.138   8.239  0.00  0.00     0.298 C 
ENDBRANCH  22  23
ENDBRANCH  21  22
ENDBRANCH  20  21
ENDBRANCH  16  20
ENDBRANCH   4   7
BRANCH   1  29
HETATM   29  N   UNK N   1      36.647  14.260   9.403  0.00  0.00    -0.309 N 
HETATM   30  C   UNK N   1      36.886  13.859  10.678  0.00  0.00     0.326 C 
HETATM   31  N   UNK N   1      35.901  13.989  11.610  0.00  0.00    -0.293 N 
HETATM   32  O   UNK N   1      37.974  13.389  10.972  0.00  0.00    -0.247 OA
HETATM   33  H   UNK N   1      35.047  14.369  11.299  0.00  0.00     0.172 HD
HETATM   34  H   UNK N   1      37.303  14.069   8.695  0.00  0.00     0.170 HD
BRANCH  31  35
HETATM   35  C   UNK N   1      35.974  13.639  12.961  0.00  0.00     0.132 A 
HETATM   36  C   UNK N   1      35.323  12.598  13.551  0.00  0.00     0.086 A 
HETATM   37  C   UNK N   1      35.828  12.607  14.829  0.00  0.00     0.087 A 
HETATM   38  O   UNK N   1      36.698  13.587  14.948  0.00  0.00    -0.240 OA
HETATM   39  N   UNK N   1      36.805  14.238  13.831  0.00  0.00    -0.245 N 
ATOM     40  HN  UNK N   1      37.401  15.045  13.649  1.00  0.00     0.196 HD
BRANCH  37  41
HETATM   41  C   UNK N   1      35.509  11.610  15.887  0.00  0.00     0.000 C 
HETATM   42  C   UNK N   1      36.697  10.698  16.107  0.00  0.00     0.021 C 
HETATM   43  C   UNK N   1      34.315  10.798  15.429  0.00  0.00     0.021 C 
HETATM   44  C   UNK N   1      35.160  12.291  17.203  0.00  0.00     0.021 C 
ENDBRANCH  37  41
ENDBRANCH  31  35
ENDBRANCH   1  29
TORSDOF 8
ENDMDL
MODEL 6
REMARK VINA RESULT:      -8.4      3.305      4.843
REMARK  8 active torsions:
REMARK  status: ('A' for Active; 'I' for Inactive)
REMARK    1  A    between atoms: C_2  and  C_5 
REMARK    2  A    between atoms: C_7  and  N_11 
REMARK       I    between atoms: N_11  and  C_12 
REMARK       I    between atoms: C_12  and  N_14 
REMARK    3  A    between atoms: N_14  and  C_15 
REMARK    4  A    between atoms: C_18  and  C_21 
REMARK    5  A    between atoms: C_27  and  O_30 
REMARK    6  A    between atoms: O_30  and  C_31 
REMARK    7  A    between atoms: C_31  and  C_32 
REMARK    8  A    between atoms: C_32  and  N_33 
ROOT
HETATM    1  C   UNK N   1      33.489  17.678   7.885  0.00  0.00     0.036 A 
HETATM    2  C   UNK N   1      32.157  17.681   8.305  0.00  0.00     0.030 A 
HETATM    3  C   UNK N   1      31.139  17.452   7.369  0.00  0.00     0.012 A 
HETATM    4  C   UNK N   1      31.458  17.296   6.008  0.00  0.00    -0.030 A 
HETATM    5  C   UNK N   1      32.796  17.300   5.615  0.00  0.00     0.012 A 
HETATM    6  C   UNK N   1      33.785  17.475   6.534  0.00  0.00     0.030 A 
ENDROOT
BRANCH   4   7
HETATM    7  C   UNK N   1      30.552  16.598   5.108  0.00  0.00     0.156 A 
HETATM    8  C   UNK N   1      29.567  15.784   5.695  0.00  0.00     0.102 A 
HETATM    9  N   UNK N   1      28.427  16.152   5.132  0.00  0.00    -0.303 N 
HETATM   10  C   UNK N   1      27.102  15.987   5.374  0.00  0.00     0.058 A 
HETATM   11  C   UNK N   1      28.708  17.046   4.200  0.00  0.00     0.152 A 
HETATM   12  C   UNK N   1      26.308  16.848   4.605  0.00  0.00     0.038 A 
HETATM   13  C   UNK N   1      26.540  15.161   6.343  0.00  0.00     0.034 A 
HETATM   14  C   UNK N   1      24.946  16.928   4.776  0.00  0.00     0.058 A 
HETATM   15  S   UNK N   1      27.329  17.729   3.612  0.00  0.00    -0.052 SA
HETATM   16  C   UNK N   1      24.351  16.061   5.702  0.00  0.00     0.070 A 
HETATM   17  C   UNK N   1      25.143  15.175   6.480  0.00  0.00     0.039 A 
HETATM   18  N   UNK N   1      30.000  17.352   4.118  0.00  0.00    -0.357 N 
ATOM     19  HN  UNK N   1      30.463  17.994   3.474  1.00  0.00     0.162 HD
BRANCH  16  20
HETATM   20  O   UNK N   1      23.008  16.008   5.740  0.00  0.00    -0.349 OA
BRANCH  20  21
HETATM   21  C   UNK N   1      22.261  17.122   6.062  0.00  0.00     0.206 C 
BRANCH  21  22
HETATM   22  C   UNK N   1      20.778  16.754   6.298  0.00  0.00     0.299 C 
BRANCH  22  23
HETATM   23  N   UNK N   1      20.538  16.356   7.683  0.00  0.00     0.094 N 
HETATM   24  C   UNK N   1      19.116  16.519   7.989  0.00  0.00     0.298 C 
HETATM   25  C   UNK N   1      18.882  16.073   9.436  0.00  0.00     0.198 C 
HETATM   26  O   UNK N   1      19.188  14.704   9.551  0.00  0.00    -0.388 OA
HETATM   27  C   UNK N   1      20.572  14.563   9.320  0.00  0.00     0.198 C 
HETATM   28  C   UNK N   1      20.905  14.956   7.874  0.00  0.00     0.298 C 
ENDBRANCH  22  23
ENDBRANCH  21  22
ENDBRANCH  20  21
ENDBRANCH  16  20
ENDBRANCH   4   7
BRANCH   1  29
HETATM   29  N   UNK N   1      34.543  17.952   8.794  0.00  0.00    -0.309 N 
HETATM   30  C   UNK N   1      34.927  17.009   9.692  0.00  0.00     0.326 C 
HETATM   31  N   UNK N   1      34.402  15.755   9.601  0.00  0.00    -0.293 N 
HETATM   32  O   UNK N   1      35.734  17.294  10.563  0.00  0.00    -0.247 OA
HETATM   33  H   UNK N   1      33.763  15.597   8.869  0.00  0.00     0.172 HD
HETATM   34  H   UNK N   1      34.996  18.827   8.773  0.00  0.00     0.170 HD
BRANCH  31  35
HETATM   35  C   UNK N   1      34.675  14.671  10.439  0.00  0.00     0.132 A 
HETATM   36  C   UNK N   1      35.538  13.652  10.169  0.00  0.00     0.086 A 
HETATM   37  C   UNK N   1      35.544  12.937  11.342  0.00  0.00     0.087 A 
HETATM   38  O   UNK N   1      34.738  13.513  12.208  0.00  0.00    -0.240 OA
HETATM   39  N   UNK N   1      34.188  14.566  11.687  0.00  0.00    -0.245 N 
ATOM     40  HN  UNK N   1      33.520  15.192  12.137  1.00  0.00     0.196 HD
BRANCH  37  41
HETATM   41  C   UNK N   1      36.397  11.749  11.622  0.00  0.00     0.000 C 
HETATM   42  C   UNK N   1      37.590  11.743  10.690  0.00  0.00     0.021 C 
HETATM   43  C   UNK N   1      35.564  10.504  11.398  0.00  0.00     0.021 C 
HETATM   44  C   UNK N   1      36.895  11.752  13.060  0.00  0.00     0.021 C 
ENDBRANCH  37  41
ENDBRANCH  31  35
ENDBRANCH   1  29
TORSDOF 8
ENDMDL
MODEL 7
REMARK VINA RESULT:      -8.3      2.596     13.114
REMARK  8 active torsions:
REMARK  status: ('A' for Active; 'I' for Inactive)
REMARK    1  A    between atoms: C_2  and  C_5 
REMARK    2  A    between atoms: C_7  and  N_11 
REMARK       I    between atoms: N_11  and  C_12 
REMARK       I    between atoms: C_12  and  N_14 
REMARK    3  A    between atoms: N_14  and  C_15 
REMARK    4  A    between atoms: C_18  and  C_21 
REMARK    5  A    between atoms: C_27  and  O_30 
REMARK    6  A    between atoms: O_30  and  C_31 
REMARK    7  A    between atoms: C_31  and  C_32 
REMARK    8  A    between atoms: C_32  and  N_33 
ROOT
HETATM    1  C   UNK N   1      26.448  20.118   4.392  0.00  0.00     0.036 A 
HETATM    2  C   UNK N   1      27.286  19.101   3.929  0.00  0.00     0.030 A 
HETATM    3  C   UNK N   1      28.169  18.478   4.822  0.00  0.00     0.012 A 
HETATM    4  C   UNK N   1      28.257  18.927   6.152  0.00  0.00    -0.030 A 
HETATM    5  C   UNK N   1      27.411  19.946   6.586  0.00  0.00     0.012 A 
HETATM    6  C   UNK N   1      26.521  20.518   5.729  0.00  0.00     0.030 A 
ENDROOT
BRANCH   4   7
HETATM    7  C   UNK N   1      28.758  18.051   7.200  0.00  0.00     0.156 A 
HETATM    8  C   UNK N   1      29.195  16.771   6.813  0.00  0.00     0.102 A 
HETATM    9  N   UNK N   1      30.398  16.634   7.346  0.00  0.00    -0.303 N 
HETATM   10  C   UNK N   1      31.463  15.808   7.194  0.00  0.00     0.058 A 
HETATM   11  C   UNK N   1      30.633  17.702   8.089  0.00  0.00     0.152 A 
HETATM   12  C   UNK N   1      32.614  16.297   7.827  0.00  0.00     0.038 A 
HETATM   13  C   UNK N   1      31.504  14.655   6.415  0.00  0.00     0.034 A 
HETATM   14  C   UNK N   1      33.833  15.675   7.701  0.00  0.00     0.058 A 
HETATM   15  S   UNK N   1      32.199  17.723   8.600  0.00  0.00    -0.052 SA
HETATM   16  C   UNK N   1      33.885  14.479   6.973  0.00  0.00     0.070 A 
HETATM   17  C   UNK N   1      32.724  13.965   6.336  0.00  0.00     0.039 A 
HETATM   18  N   UNK N   1      29.657  18.605   8.060  0.00  0.00    -0.357 N 
ATOM     19  HN  UNK N   1      29.597  19.494   8.557  1.00  0.00     0.162 HD
BRANCH  16  20
HETATM   20  O   UNK N   1      35.030  13.776   7.001  0.00  0.00    -0.349 OA
BRANCH  20  21
HETATM   21  C   UNK N   1      35.340  12.961   8.071  0.00  0.00     0.206 C 
BRANCH  21  22
HETATM   22  C   UNK N   1      36.647  13.413   8.761  0.00  0.00     0.299 C 
BRANCH  22  23
HETATM   23  N   UNK N   1      36.474  13.542  10.206  0.00  0.00     0.094 N 
HETATM   24  C   UNK N   1      35.936  14.869  10.509  0.00  0.00     0.298 C 
HETATM   25  C   UNK N   1      35.739  14.973  12.024  0.00  0.00     0.198 C 
HETATM   26  O   UNK N   1      34.783  14.025  12.431  0.00  0.00    -0.388 OA
HETATM   27  C   UNK N   1      35.334  12.747  12.198  0.00  0.00     0.198 C 
HETATM   28  C   UNK N   1      35.538  12.531  10.692  0.00  0.00     0.298 C 
ENDBRANCH  22  23
ENDBRANCH  21  22
ENDBRANCH  20  21
ENDBRANCH  16  20
ENDBRANCH   4   7
BRANCH   1  29
HETATM   29  N   UNK N   1      25.575  20.805   3.508  0.00  0.00    -0.309 N 
HETATM   30  C   UNK N   1      24.342  20.302   3.246  0.00  0.00     0.326 C 
HETATM   31  N   UNK N   1      23.899  19.229   3.959  0.00  0.00    -0.293 N 
HETATM   32  O   UNK N   1      23.649  20.814   2.382  0.00  0.00    -0.247 OA
HETATM   33  H   UNK N   1      24.509  18.873   4.645  0.00  0.00     0.172 HD
HETATM   34  H   UNK N   1      25.865  21.645   3.085  0.00  0.00     0.170 HD
BRANCH  31  35
HETATM   35  C   UNK N   1      22.669  18.580   3.819  0.00  0.00     0.132 A 
HETATM   36  C   UNK N   1      22.475  17.232   3.817  0.00  0.00     0.086 A 
HETATM   37  C   UNK N   1      21.105  17.121   3.787  0.00  0.00     0.087 A 
HETATM   38  O   UNK N   1      20.570  18.323   3.768  0.00  0.00    -0.240 OA
HETATM   39  N   UNK N   1      21.495  19.233   3.780  0.00  0.00    -0.245 N 
ATOM     40  HN  UNK N   1      21.358  20.243   3.764  1.00  0.00     0.196 HD
BRANCH  37  41
HETATM   41  C   UNK N   1      20.344  15.843   3.855  0.00  0.00     0.000 C 
HETATM   42  C   UNK N   1      19.116  16.024   4.722  0.00  0.00     0.021 C 
HETATM   43  C   UNK N   1      21.246  14.786   4.456  0.00  0.00     0.021 C 
HETATM   44  C   UNK N   1      19.907  15.384   2.471  0.00  0.00     0.021 C 
ENDBRANCH  37  41
ENDBRANCH  31  35
ENDBRANCH   1  29
TORSDOF 8
ENDMDL
MODEL 8
REMARK VINA RESULT:      -8.2      2.900     12.927
REMARK  8 active torsions:
REMARK  status: ('A' for Active; 'I' for Inactive)
REMARK    1  A    between atoms: C_2  and  C_5 
REMARK    2  A    between atoms: C_7  and  N_11 
REMARK       I    between atoms: N_11  and  C_12 
REMARK       I    between atoms: C_12  and  N_14 
REMARK    3  A    between atoms: N_14  and  C_15 
REMARK    4  A    between atoms: C_18  and  C_21 
REMARK    5  A    between atoms: C_27  and  O_30 
REMARK    6  A    between atoms: O_30  and  C_31 
REMARK    7  A    between atoms: C_31  and  C_32 
REMARK    8  A    between atoms: C_32  and  N_33 
ROOT
HETATM    1  C   UNK N   1      33.554  16.468   5.685  0.00  0.00     0.036 A 
HETATM    2  C   UNK N   1      33.540  15.146   6.135  0.00  0.00     0.030 A 
HETATM    3  C   UNK N   1      33.787  14.877   7.489  0.00  0.00     0.012 A 
HETATM    4  C   UNK N   1      34.117  15.926   8.365  0.00  0.00    -0.030 A 
HETATM    5  C   UNK N   1      34.127  17.237   7.888  0.00  0.00     0.012 A 
HETATM    6  C   UNK N   1      33.841  17.499   6.584  0.00  0.00     0.030 A 
ENDROOT
BRANCH   4   7
HETATM    7  C   UNK N   1      33.905  15.792   9.799  0.00  0.00     0.156 A 
HETATM    8  C   UNK N   1      33.662  14.497  10.292  0.00  0.00     0.102 A 
HETATM    9  N   UNK N   1      34.510  14.340  11.297  0.00  0.00    -0.303 N 
HETATM   10  C   UNK N   1      34.991  13.311  12.037  0.00  0.00     0.058 A 
HETATM   11  C   UNK N   1      35.145  15.486  11.471  0.00  0.00     0.152 A 
HETATM   12  C   UNK N   1      36.106  13.678  12.802  0.00  0.00     0.038 A 
HETATM   13  C   UNK N   1      34.548  11.992  11.997  0.00  0.00     0.034 A 
HETATM   14  C   UNK N   1      36.819  12.760  13.535  0.00  0.00     0.058 A 
HETATM   15  S   UNK N   1      36.381  15.311  12.545  0.00  0.00    -0.052 SA
HETATM   16  C   UNK N   1      36.355  11.439  13.559  0.00  0.00     0.070 A 
HETATM   17  C   UNK N   1      35.219  11.054  12.798  0.00  0.00     0.039 A 
HETATM   18  N   UNK N   1      34.807  16.429  10.595  0.00  0.00    -0.357 N 
ATOM     19  HN  UNK N   1      35.141  17.391  10.534  1.00  0.00     0.162 HD
BRANCH  16  20
HETATM   20  O   UNK N   1      36.939  10.583  14.416  0.00  0.00    -0.349 OA
BRANCH  20  21
HETATM   21  C   UNK N   1      36.834  10.758  15.781  0.00  0.00     0.206 C 
BRANCH  21  22
HETATM   22  C   UNK N   1      35.394  10.486  16.272  0.00  0.00     0.299 C 
BRANCH  22  23
HETATM   23  N   UNK N   1      34.991  11.438  17.305  0.00  0.00     0.094 N 
HETATM   24  C   UNK N   1      35.719  11.143  18.539  0.00  0.00     0.298 C 
HETATM   25  C   UNK N   1      35.302  12.166  19.600  0.00  0.00     0.198 C 
HETATM   26  O   UNK N   1      35.686  13.452  19.176  0.00  0.00    -0.388 OA
HETATM   27  C   UNK N   1      34.932  13.757  18.024  0.00  0.00     0.198 C 
HETATM   28  C   UNK N   1      35.307  12.800  16.884  0.00  0.00     0.298 C 
ENDBRANCH  22  23
ENDBRANCH  21  22
ENDBRANCH  20  21
ENDBRANCH  16  20
ENDBRANCH   4   7
BRANCH   1  29
HETATM   29  N   UNK N   1      33.357  16.776   4.314  0.00  0.00    -0.309 N 
HETATM   30  C   UNK N   1      32.113  17.068   3.857  0.00  0.00     0.326 C 
HETATM   31  N   UNK N   1      31.096  17.219   4.752  0.00  0.00    -0.293 N 
HETATM   32  O   UNK N   1      31.921  17.194   2.658  0.00  0.00    -0.247 OA
HETATM   33  H   UNK N   1      31.327  17.111   5.703  0.00  0.00     0.172 HD
HETATM   34  H   UNK N   1      34.123  16.776   3.695  0.00  0.00     0.170 HD
BRANCH  31  35
HETATM   35  C   UNK N   1      29.761  17.510   4.461  0.00  0.00     0.132 A 
HETATM   36  C   UNK N   1      29.003  18.466   5.068  0.00  0.00     0.086 A 
HETATM   37  C   UNK N   1      27.838  18.439   4.341  0.00  0.00     0.087 A 
HETATM   38  O   UNK N   1      27.934  17.529   3.395  0.00  0.00    -0.240 OA
HETATM   39  N   UNK N   1      29.089  16.941   3.446  0.00  0.00    -0.245 N 
ATOM     40  HN  UNK N   1      29.422  16.195   2.835  1.00  0.00     0.196 HD
BRANCH  37  41
HETATM   41  C   UNK N   1      26.681  19.357   4.535  0.00  0.00     0.000 C 
HETATM   42  C   UNK N   1      26.789  20.042   5.880  0.00  0.00     0.021 C 
HETATM   43  C   UNK N   1      25.410  18.536   4.476  0.00  0.00     0.021 C 
HETATM   44  C   UNK N   1      26.628  20.417   3.444  0.00  0.00     0.021 C 
ENDBRANCH  37  41
ENDBRANCH  31  35
ENDBRANCH   1  29
TORSDOF 8
ENDMDL
MODEL 9
REMARK VINA RESULT:      -8.1      3.051     11.882
REMARK  8 active torsions:
REMARK  status: ('A' for Active; 'I' for Inactive)
REMARK    1  A    between atoms: C_2  and  C_5 
REMARK    2  A    between atoms: C_7  and  N_11 
REMARK       I    between atoms: N_11  and  C_12 
REMARK       I    between atoms: C_12  and  N_14 
REMARK    3  A    between atoms: N_14  and  C_15 
REMARK    4  A    between atoms: C_18  and  C_21 
REMARK    5  A    between atoms: C_27  and  O_30 
REMARK    6  A    between atoms: O_30  and  C_31 
REMARK    7  A    between atoms: C_31  and  C_32 
REMARK    8  A    between atoms: C_32  and  N_33 
ROOT
HETATM    1  C   UNK N   1      28.273  17.643   6.029  0.00  0.00     0.036 A 
HETATM    2  C   UNK N   1      28.557  17.995   7.351  0.00  0.00     0.030 A 
HETATM    3  C   UNK N   1      29.849  17.788   7.855  0.00  0.00     0.012 A 
HETATM    4  C   UNK N   1      30.823  17.164   7.057  0.00  0.00    -0.030 A 
HETATM    5  C   UNK N   1      30.512  16.820   5.742  0.00  0.00     0.012 A 
HETATM    6  C   UNK N   1      29.271  17.066   5.239  0.00  0.00     0.030 A 
ENDROOT
BRANCH   4   7
HETATM    7  C   UNK N   1      32.240  17.359   7.325  0.00  0.00     0.156 A 
HETATM    8  C   UNK N   1      32.703  17.020   8.609  0.00  0.00     0.102 A 
HETATM    9  N   UNK N   1      33.753  16.240   8.409  0.00  0.00    -0.303 N 
HETATM   10  C   UNK N   1      34.507  15.384   9.143  0.00  0.00     0.058 A 
HETATM   11  C   UNK N   1      33.978  16.194   7.108  0.00  0.00     0.152 A 
HETATM   12  C   UNK N   1      35.341  14.588   8.346  0.00  0.00     0.038 A 
HETATM   13  C   UNK N   1      34.425  15.188  10.518  0.00  0.00     0.034 A 
HETATM   14  C   UNK N   1      36.103  13.575   8.876  0.00  0.00     0.058 A 
HETATM   15  S   UNK N   1      35.120  15.061   6.754  0.00  0.00    -0.052 SA
HETATM   16  C   UNK N   1      36.083  13.400  10.266  0.00  0.00     0.070 A 
HETATM   17  C   UNK N   1      35.252  14.206  11.087  0.00  0.00     0.039 A 
HETATM   18  N   UNK N   1      33.096  16.876   6.383  0.00  0.00    -0.357 N 
ATOM     19  HN  UNK N   1      33.067  17.005   5.371  1.00  0.00     0.162 HD
BRANCH  16  20
HETATM   20  O   UNK N   1      36.961  12.535  10.803  0.00  0.00    -0.349 OA
BRANCH  20  21
HETATM   21  C   UNK N   1      37.406  12.686  12.101  0.00  0.00     0.206 C 
BRANCH  21  22
HETATM   22  C   UNK N   1      37.259  11.371  12.900  0.00  0.00     0.299 C 
BRANCH  22  23
HETATM   23  N   UNK N   1      36.373  11.538  14.050  0.00  0.00     0.094 N 
HETATM   24  C   UNK N   1      36.588  12.863  14.633  0.00  0.00     0.298 C 
HETATM   25  C   UNK N   1      35.632  13.027  15.818  0.00  0.00     0.198 C 
HETATM   26  O   UNK N   1      34.306  12.978  15.351  0.00  0.00    -0.388 OA
HETATM   27  C   UNK N   1      34.085  11.678  14.851  0.00  0.00     0.198 C 
HETATM   28  C   UNK N   1      34.979  11.428  13.629  0.00  0.00     0.298 C 
ENDBRANCH  22  23
ENDBRANCH  21  22
ENDBRANCH  20  21
ENDBRANCH  16  20
ENDBRANCH   4   7
BRANCH   1  29
HETATM   29  N   UNK N   1      26.966  17.794   5.498  0.00  0.00    -0.309 N 
HETATM   30  C   UNK N   1      26.020  16.853   5.749  0.00  0.00     0.326 C 
HETATM   31  N   UNK N   1      26.293  15.859   6.640  0.00  0.00    -0.293 N 
HETATM   32  O   UNK N   1      24.942  16.910   5.178  0.00  0.00    -0.247 OA
HETATM   33  H   UNK N   1      27.180  15.882   7.067  0.00  0.00     0.172 HD
HETATM   34  H   UNK N   1      26.746  18.580   4.947  0.00  0.00     0.170 HD
BRANCH  31  35
HETATM   35  C   UNK N   1      25.447  14.811   7.011  0.00  0.00     0.132 A 
HETATM   36  C   UNK N   1      25.352  14.265   8.255  0.00  0.00     0.086 A 
HETATM   37  C   UNK N   1      24.306  13.385   8.124  0.00  0.00     0.087 A 
HETATM   38  O   UNK N   1      23.848  13.431   6.891  0.00  0.00    -0.240 OA
HETATM   39  N   UNK N   1      24.525  14.284   6.186  0.00  0.00    -0.245 N 
ATOM     40  HN  UNK N   1      24.386  14.511   5.202  1.00  0.00     0.196 HD
BRANCH  37  41
HETATM   41  C   UNK N   1      23.722  12.572   9.226  0.00  0.00     0.000 C 
HETATM   42  C   UNK N   1      22.466  13.239   9.745  0.00  0.00     0.021 C 
HETATM   43  C   UNK N   1      24.747  12.472  10.336  0.00  0.00     0.021 C 
HETATM   44  C   UNK N   1      23.375  11.167   8.754  0.00  0.00     0.021 C 
ENDBRANCH  37  41
ENDBRANCH  31  35
ENDBRANCH   1  29
TORSDOF 8
ENDMDL
