REMARK  2 active torsions:
REMARK  status: ('A' for Active; 'I' for Inactive)
REMARK    1  A    between atoms: C_13  and  O_20 
REMARK    2  A    between atoms: C_14  and  O_19 
ROOT
HETATM    1  C   UNK N   1       6.077  -0.220   0.285  0.00  0.00     0.001 A 
HETATM    2  C   UNK N   1       4.999  -1.012  -0.114  0.00  0.00     0.001 A 
HETATM    3  C   UNK N   1       3.761  -0.423  -0.373  0.00  0.00     0.008 A 
HETATM    4  C   UNK N   1       3.575   0.959  -0.220  0.00  0.00    -0.040 A 
HETATM    5  C   UNK N   1       4.678   1.757   0.161  0.00  0.00    -0.034 A 
HETATM    6  C   UNK N   1       5.918   1.161   0.416  0.00  0.00     0.009 A 
HETATM    7  C   UNK N   1       4.549   3.252   0.288  0.00  0.00     0.153 C 
HETATM    8  N   UNK N   1       3.377   3.775  -0.418  0.00  0.00    -0.412 N 
HETATM    9  C   UNK N   1       2.192   3.052   0.024  0.00  0.00     0.090 C 
HETATM   10  C   UNK N   1       2.235   1.618  -0.519  0.00  0.00     0.075 C 
HETATM   11  C   UNK N   1       0.949   0.857  -0.217  0.00  0.00    -0.038 A 
HETATM   12  C   UNK N   1       0.919  -0.545  -0.248  0.00  0.00     0.047 A 
HETATM   13  C   UNK N   1      -0.262  -1.246  -0.017  0.00  0.00     0.099 A 
HETATM   14  C   UNK N   1      -1.447  -0.550   0.237  0.00  0.00     0.099 A 
HETATM   15  C   UNK N   1      -1.440   0.848   0.263  0.00  0.00     0.047 A 
HETATM   16  C   UNK N   1      -0.257   1.559   0.032  0.00  0.00    -0.048 A 
HETATM   17  C   UNK N   1      -0.316   3.064   0.053  0.00  0.00     0.041 C 
HETATM   18  C   UNK N   1       0.942   3.747  -0.482  0.00  0.00     0.030 C 
HETATM   19  H   UNK N   1       3.389   4.526  -1.108  0.00  0.00     0.153 HD
ENDROOT
BRANCH  13  20
HETATM   20  O   UNK N   1      -0.254  -2.590  -0.044  0.00  0.00    -0.358 OA
HETATM   21  H   UNK N   1      -1.063  -3.063  -0.063  0.00  0.00     0.217 HD
ENDBRANCH  13  20
BRANCH  14  22
HETATM   22  O   UNK N   1      -2.594  -1.216   0.452  0.00  0.00    -0.358 OA
HETATM   23  H   UNK N   1      -3.396  -0.756   0.601  0.00  0.00     0.217 HD
ENDBRANCH  14  22
TORSDOF 2
