REMARK  1 active torsions:
REMARK  status: ('A' for Active; 'I' for Inactive)
REMARK    1  A    between atoms: C_3  and  N_11 
ROOT
HETATM    1  C   UNK N   1      -1.729   0.849   0.014  0.00  0.00     0.005 A 
HETATM    2  C   UNK N   1      -1.759  -0.546   0.008  0.00  0.00     0.032 A 
HETATM    3  C   UNK N   1      -0.570  -1.300  -0.002  0.00  0.00     0.067 A 
HETATM    4  C   UNK N   1       0.672  -0.599  -0.000  0.00  0.00     0.128 A 
HETATM    5  C   UNK N   1       0.686   0.802   0.005  0.00  0.00     0.104 A 
HETATM    6  C   UNK N   1      -0.508   1.520   0.011  0.00  0.00     0.040 A 
HETATM    7  O   UNK N   1       1.860   1.467   0.006  0.00  0.00    -0.346 OA
HETATM    8  C   UNK N   1       3.105   0.864  -0.000  0.00  0.00     0.202 A 
HETATM    9  C   UNK N   1       3.098  -0.675   0.006  0.00  0.00     0.202 A 
HETATM   10  O   UNK N   1       1.846  -1.264  -0.001  0.00  0.00    -0.344 OA
ENDROOT
BRANCH   3  11
HETATM   11  N   UNK N   1      -0.644  -2.741  -0.009  0.00  0.00    -0.376 N 
HETATM   12  C   UNK N   1       0.566  -3.539  -0.162  0.00  0.00     0.142 C 
HETATM   13  C   UNK N   1       0.386  -4.975   0.300  0.00  0.00     0.133 C 
HETATM   14  N   UNK N   1      -0.789  -5.535  -0.342  0.00  0.00    -0.418 N 
HETATM   15  C   UNK N   1      -1.933  -4.871   0.263  0.00  0.00     0.133 C 
HETATM   16  H   UNK N   1      -0.808  -6.249  -1.070  0.00  0.00     0.153 HD
HETATM   17  C   UNK N   1      -1.956  -3.382  -0.098  0.00  0.00     0.142 C 
ENDBRANCH   3  11
TORSDOF 1
