MODEL 1
REMARK VINA RESULT:      -4.4      0.000      0.000
REMARK  3 active torsions:
REMARK  status: ('A' for Active; 'I' for Inactive)
REMARK    1  A    between atoms: O_1  and  C_2 
REMARK    2  A    between atoms: C_5  and  O_9 
REMARK    3  A    between atoms: C_7  and  O_8 
ROOT
HETATM    1  C   UNK N   1      21.634  12.207  11.221  0.00  0.00     0.070 A 
HETATM    2  C   UNK N   1      21.512  12.941  10.037  0.00  0.00     0.073 A 
HETATM    3  C   UNK N   1      22.899  11.871  11.709  0.00  0.00     0.073 A 
HETATM    4  C   UNK N   1      24.045  12.267  11.015  0.00  0.00     0.070 A 
HETATM    5  C   UNK N   1      23.925  13.002   9.829  0.00  0.00     0.073 A 
HETATM    6  C   UNK N   1      22.656  13.339   9.340  0.00  0.00     0.070 A 
ENDROOT
BRANCH   1   7
HETATM    7  O   UNK N   1      20.534  11.826  11.889  0.00  0.00    -0.361 OA
HETATM    8  H   UNK N   1      19.686  11.994  11.529  0.00  0.00     0.217 HD
ENDBRANCH   1   7
BRANCH   6   9
HETATM    9  O   UNK N   1      22.535  14.044   8.204  0.00  0.00    -0.361 OA
HETATM   10  H   UNK N   1      22.669  14.971   8.211  0.00  0.00     0.217 HD
ENDBRANCH   6   9
BRANCH   4  11
HETATM   11  O   UNK N   1      25.258  11.941  11.488  0.00  0.00    -0.361 OA
HETATM   12  H   UNK N   1      26.006  12.456  11.256  0.00  0.00     0.217 HD
ENDBRANCH   4  11
TORSDOF 3
ENDMDL
MODEL 2
REMARK VINA RESULT:      -4.4      0.019      2.764
REMARK  3 active torsions:
REMARK  status: ('A' for Active; 'I' for Inactive)
REMARK    1  A    between atoms: O_1  and  C_2 
REMARK    2  A    between atoms: C_5  and  O_9 
REMARK    3  A    between atoms: C_7  and  O_8 
ROOT
HETATM    1  C   UNK N   1      21.650  12.207  11.215  0.00  0.00     0.070 A 
HETATM    2  C   UNK N   1      22.915  11.868  11.704  0.00  0.00     0.073 A 
HETATM    3  C   UNK N   1      21.530  12.940  10.031  0.00  0.00     0.073 A 
HETATM    4  C   UNK N   1      22.675  13.335   9.333  0.00  0.00     0.070 A 
HETATM    5  C   UNK N   1      23.943  12.995   9.822  0.00  0.00     0.073 A 
HETATM    6  C   UNK N   1      24.062  12.261  11.009  0.00  0.00     0.070 A 
ENDROOT
BRANCH   1   7
HETATM    7  O   UNK N   1      20.549  11.829  11.883  0.00  0.00    -0.361 OA
HETATM    8  H   UNK N   1      20.190  12.385  12.546  0.00  0.00     0.217 HD
ENDBRANCH   1   7
BRANCH   6   9
HETATM    9  O   UNK N   1      25.275  11.933  11.482  0.00  0.00    -0.361 OA
HETATM   10  H   UNK N   1      26.046  12.238  11.046  0.00  0.00     0.217 HD
ENDBRANCH   6   9
BRANCH   4  11
HETATM   11  O   UNK N   1      22.555  14.038   8.197  0.00  0.00    -0.361 OA
HETATM   12  H   UNK N   1      22.669  13.614   7.369  0.00  0.00     0.217 HD
ENDBRANCH   4  11
TORSDOF 3
ENDMDL
MODEL 3
REMARK VINA RESULT:      -4.4      0.039      3.375
REMARK  3 active torsions:
REMARK  status: ('A' for Active; 'I' for Inactive)
REMARK    1  A    between atoms: O_1  and  C_2 
REMARK    2  A    between atoms: C_5  and  O_9 
REMARK    3  A    between atoms: C_7  and  O_8 
ROOT
HETATM    1  C   UNK N   1      22.685  13.326   9.336  0.00  0.00     0.070 A 
HETATM    2  C   UNK N   1      23.955  12.993   9.816  0.00  0.00     0.073 A 
HETATM    3  C   UNK N   1      21.544  12.930  10.038  0.00  0.00     0.073 A 
HETATM    4  C   UNK N   1      21.670  12.198  11.222  0.00  0.00     0.070 A 
HETATM    5  C   UNK N   1      22.941  11.863  11.705  0.00  0.00     0.073 A 
HETATM    6  C   UNK N   1      24.084  12.261  11.000  0.00  0.00     0.070 A 
ENDROOT
BRANCH   1   7
HETATM    7  O   UNK N   1      22.562  14.029   8.199  0.00  0.00    -0.361 OA
HETATM    8  H   UNK N   1      21.738  14.411   7.972  0.00  0.00     0.217 HD
ENDBRANCH   1   7
BRANCH   6   9
HETATM    9  O   UNK N   1      25.306  11.942  11.458  0.00  0.00    -0.361 OA
HETATM   10  H   UNK N   1      25.849  11.354  10.973  0.00  0.00     0.217 HD
ENDBRANCH   6   9
BRANCH   4  11
HETATM   11  O   UNK N   1      20.570  11.820  11.892  0.00  0.00    -0.361 OA
HETATM   12  H   UNK N   1      20.510  10.952  12.241  0.00  0.00     0.217 HD
ENDBRANCH   4  11
TORSDOF 3
ENDMDL
MODEL 4
REMARK VINA RESULT:      -4.4      0.038      2.758
REMARK  3 active torsions:
REMARK  status: ('A' for Active; 'I' for Inactive)
REMARK    1  A    between atoms: O_1  and  C_2 
REMARK    2  A    between atoms: C_5  and  O_9 
REMARK    3  A    between atoms: C_7  and  O_8 
ROOT
HETATM    1  C   UNK N   1      24.028  12.284  10.991  0.00  0.00     0.070 A 
HETATM    2  C   UNK N   1      23.916  13.014   9.804  0.00  0.00     0.073 A 
HETATM    3  C   UNK N   1      22.879  11.896  11.686  0.00  0.00     0.073 A 
HETATM    4  C   UNK N   1      21.616  12.235  11.194  0.00  0.00     0.070 A 
HETATM    5  C   UNK N   1      21.502  12.966  10.005  0.00  0.00     0.073 A 
HETATM    6  C   UNK N   1      22.654  13.355   9.310  0.00  0.00     0.070 A 
ENDROOT
BRANCH   1   7
HETATM    7  O   UNK N   1      25.240  11.957  11.465  0.00  0.00    -0.361 OA
HETATM    8  H   UNK N   1      25.996  12.052  10.921  0.00  0.00     0.217 HD
ENDBRANCH   1   7
BRANCH   6   9
HETATM    9  O   UNK N   1      22.551  14.056   8.169  0.00  0.00    -0.361 OA
HETATM   10  H   UNK N   1      23.032  14.852   8.063  0.00  0.00     0.217 HD
ENDBRANCH   6   9
BRANCH   4  11
HETATM   11  O   UNK N   1      20.516  11.859  11.865  0.00  0.00    -0.361 OA
HETATM   12  H   UNK N   1      20.089  12.463  12.441  0.00  0.00     0.217 HD
ENDBRANCH   4  11
TORSDOF 3
ENDMDL
MODEL 5
REMARK VINA RESULT:      -4.4      0.041      3.371
REMARK  3 active torsions:
REMARK  status: ('A' for Active; 'I' for Inactive)
REMARK    1  A    between atoms: O_1  and  C_2 
REMARK    2  A    between atoms: C_5  and  O_9 
REMARK    3  A    between atoms: C_7  and  O_8 
ROOT
HETATM    1  C   UNK N   1      24.055  12.276  10.999  0.00  0.00     0.070 A 
HETATM    2  C   UNK N   1      22.903  11.891  11.692  0.00  0.00     0.073 A 
HETATM    3  C   UNK N   1      23.948  12.998   9.808  0.00  0.00     0.073 A 
HETATM    4  C   UNK N   1      22.688  13.337   9.306  0.00  0.00     0.070 A 
HETATM    5  C   UNK N   1      21.534  12.953   9.998  0.00  0.00     0.073 A 
HETATM    6  C   UNK N   1      21.642  12.229  11.193  0.00  0.00     0.070 A 
ENDROOT
BRANCH   1   7
HETATM    7  O   UNK N   1      25.265  11.951  11.479  0.00  0.00    -0.361 OA
HETATM    8  H   UNK N   1      25.952  12.588  11.488  0.00  0.00     0.217 HD
ENDBRANCH   1   7
BRANCH   6   9
HETATM    9  O   UNK N   1      20.538  11.857  11.861  0.00  0.00    -0.361 OA
HETATM   10  H   UNK N   1      19.761  11.628  11.390  0.00  0.00     0.217 HD
ENDBRANCH   6   9
BRANCH   4  11
HETATM   11  O   UNK N   1      22.591  14.031   8.161  0.00  0.00    -0.361 OA
HETATM   12  H   UNK N   1      21.867  13.884   7.585  0.00  0.00     0.217 HD
ENDBRANCH   4  11
TORSDOF 3
ENDMDL
MODEL 6
REMARK VINA RESULT:      -4.2      8.780     10.698
REMARK  3 active torsions:
REMARK  status: ('A' for Active; 'I' for Inactive)
REMARK    1  A    between atoms: O_1  and  C_2 
REMARK    2  A    between atoms: C_5  and  O_9 
REMARK    3  A    between atoms: C_7  and  O_8 
ROOT
HETATM    1  C   UNK N   1      21.473  20.370   2.910  0.00  0.00     0.070 A 
HETATM    2  C   UNK N   1      22.270  19.342   3.422  0.00  0.00     0.073 A 
HETATM    3  C   UNK N   1      20.146  20.118   2.557  0.00  0.00     0.073 A 
HETATM    4  C   UNK N   1      19.611  18.836   2.713  0.00  0.00     0.070 A 
HETATM    5  C   UNK N   1      20.408  17.804   3.225  0.00  0.00     0.073 A 
HETATM    6  C   UNK N   1      21.739  18.059   3.580  0.00  0.00     0.070 A 
ENDROOT
BRANCH   1   7
HETATM    7  O   UNK N   1      21.984  21.602   2.759  0.00  0.00    -0.361 OA
HETATM    8  H   UNK N   1      22.292  22.076   3.506  0.00  0.00     0.217 HD
ENDBRANCH   1   7
BRANCH   6   9
HETATM    9  O   UNK N   1      22.508  17.073   4.072  0.00  0.00    -0.361 OA
HETATM   10  H   UNK N   1      23.378  16.951   3.746  0.00  0.00     0.217 HD
ENDBRANCH   6   9
BRANCH   4  11
HETATM   11  O   UNK N   1      18.335  18.599   2.372  0.00  0.00    -0.361 OA
HETATM   12  H   UNK N   1      18.131  18.278   1.515  0.00  0.00     0.217 HD
ENDBRANCH   4  11
TORSDOF 3
ENDMDL
MODEL 7
REMARK VINA RESULT:      -4.2      8.765     10.414
REMARK  3 active torsions:
REMARK  status: ('A' for Active; 'I' for Inactive)
REMARK    1  A    between atoms: O_1  and  C_2 
REMARK    2  A    between atoms: C_5  and  O_9 
REMARK    3  A    between atoms: C_7  and  O_8 
ROOT
HETATM    1  C   UNK N   1      19.608  18.830   2.713  0.00  0.00     0.070 A 
HETATM    2  C   UNK N   1      20.398  17.800   3.233  0.00  0.00     0.073 A 
HETATM    3  C   UNK N   1      20.145  20.110   2.552  0.00  0.00     0.073 A 
HETATM    4  C   UNK N   1      21.472  20.363   2.909  0.00  0.00     0.070 A 
HETATM    5  C   UNK N   1      22.264  19.332   3.429  0.00  0.00     0.073 A 
HETATM    6  C   UNK N   1      21.725  18.049   3.591  0.00  0.00     0.070 A 
ENDROOT
BRANCH   1   7
HETATM    7  O   UNK N   1      18.334  18.590   2.370  0.00  0.00    -0.361 OA
HETATM    8  H   UNK N   1      18.104  17.778   1.962  0.00  0.00     0.217 HD
ENDBRANCH   1   7
BRANCH   6   9
HETATM    9  O   UNK N   1      22.481  17.057   4.089  0.00  0.00    -0.361 OA
HETATM   10  H   UNK N   1      23.224  17.257   4.623  0.00  0.00     0.217 HD
ENDBRANCH   6   9
BRANCH   4  11
HETATM   11  O   UNK N   1      21.982  21.595   2.752  0.00  0.00    -0.361 OA
HETATM   12  H   UNK N   1      21.553  22.332   3.139  0.00  0.00     0.217 HD
ENDBRANCH   4  11
TORSDOF 3
ENDMDL
MODEL 8
REMARK VINA RESULT:      -4.2      8.810     10.427
REMARK  3 active torsions:
REMARK  status: ('A' for Active; 'I' for Inactive)
REMARK    1  A    between atoms: O_1  and  C_2 
REMARK    2  A    between atoms: C_5  and  O_9 
REMARK    3  A    between atoms: C_7  and  O_8 
ROOT
HETATM    1  C   UNK N   1      21.787  18.124   3.587  0.00  0.00     0.070 A 
HETATM    2  C   UNK N   1      20.465  17.834   3.239  0.00  0.00     0.073 A 
HETATM    3  C   UNK N   1      22.291  19.415   3.411  0.00  0.00     0.073 A 
HETATM    4  C   UNK N   1      21.474  20.420   2.886  0.00  0.00     0.070 A 
HETATM    5  C   UNK N   1      20.149  20.132   2.538  0.00  0.00     0.073 A 
HETATM    6  C   UNK N   1      19.644  18.837   2.715  0.00  0.00     0.070 A 
ENDROOT
BRANCH   1   7
HETATM    7  O   UNK N   1      22.574  17.161   4.090  0.00  0.00    -0.361 OA
HETATM    8  H   UNK N   1      22.226  16.305   4.245  0.00  0.00     0.217 HD
ENDBRANCH   1   7
BRANCH   6   9
HETATM    9  O   UNK N   1      18.374  18.555   2.382  0.00  0.00    -0.361 OA
HETATM   10  H   UNK N   1      17.775  18.252   3.036  0.00  0.00     0.217 HD
ENDBRANCH   6   9
BRANCH   4  11
HETATM   11  O   UNK N   1      21.963  21.659   2.719  0.00  0.00    -0.361 OA
HETATM   12  H   UNK N   1      21.996  22.038   1.862  0.00  0.00     0.217 HD
ENDBRANCH   4  11
TORSDOF 3
ENDMDL
MODEL 9
REMARK VINA RESULT:      -4.2      1.498      2.817
REMARK  3 active torsions:
REMARK  status: ('A' for Active; 'I' for Inactive)
REMARK    1  A    between atoms: O_1  and  C_2 
REMARK    2  A    between atoms: C_5  and  O_9 
REMARK    3  A    between atoms: C_7  and  O_8 
ROOT
HETATM    1  C   UNK N   1      20.999  13.077  10.231  0.00  0.00     0.070 A 
HETATM    2  C   UNK N   1      21.114  12.324  11.403  0.00  0.00     0.073 A 
HETATM    3  C   UNK N   1      22.141  13.411   9.498  0.00  0.00     0.073 A 
HETATM    4  C   UNK N   1      23.401  12.992   9.935  0.00  0.00     0.070 A 
HETATM    5  C   UNK N   1      23.518  12.237  11.109  0.00  0.00     0.073 A 
HETATM    6  C   UNK N   1      22.372  11.903  11.843  0.00  0.00     0.070 A 
ENDROOT
BRANCH   1   7
HETATM    7  O   UNK N   1      19.791  13.480   9.810  0.00  0.00    -0.361 OA
HETATM    8  H   UNK N   1      19.440  13.147   9.008  0.00  0.00     0.217 HD
ENDBRANCH   1   7
BRANCH   6   9
HETATM    9  O   UNK N   1      22.479  11.179  12.969  0.00  0.00    -0.361 OA
HETATM   10  H   UNK N   1      22.098  11.493  13.765  0.00  0.00     0.217 HD
ENDBRANCH   6   9
BRANCH   4  11
HETATM   11  O   UNK N   1      24.494  13.315   9.227  0.00  0.00    -0.361 OA
HETATM   12  H   UNK N   1      25.275  12.803   9.311  0.00  0.00     0.217 HD
ENDBRANCH   4  11
TORSDOF 3
ENDMDL
