MODEL 1
REMARK VINA RESULT:     -10.3      0.000      0.000
REMARK  10 active torsions:
REMARK  status: ('A' for Active; 'I' for Inactive)
REMARK    1  A    between atoms: C_4  and  N_27 
REMARK    2  A    between atoms: C_6  and  C_7 
REMARK       I    between atoms: C_7  and  N_9 
REMARK    3  A    between atoms: N_9  and  C_10 
REMARK    4  A    between atoms: C_12  and  C_16 
REMARK       I    between atoms: C_16  and  N_18 
REMARK    5  A    between atoms: N_18  and  C_19 
REMARK    6  A    between atoms: C_19  and  C_20 
REMARK    7  A    between atoms: C_20  and  N_21 
REMARK       I    between atoms: N_27  and  C_28 
REMARK    8  A    between atoms: C_28  and  C_30 
REMARK    9  A    between atoms: C_33  and  C_36 
REMARK   10  A    between atoms: C_37  and  C_38 
ROOT
HETATM    1  C   UNK N   1      32.848  16.906   5.270  0.00  0.00     0.156 C 
HETATM    2  N   UNK N   1      32.172  17.116   6.547  0.00  0.00    -0.354 N 
HETATM    3  C   UNK N   1      30.858  17.349   6.655  0.00  0.00     0.120 A 
HETATM    4  C   UNK N   1      30.585  17.648   7.974  0.00  0.00     0.053 A 
HETATM    5  C   UNK N   1      31.779  17.666   8.668  0.00  0.00     0.066 A 
HETATM    6  C   UNK N   1      32.738  17.330   7.746  0.00  0.00     0.105 A 
ENDROOT
BRANCH   4   7
HETATM    7  N   UNK N   1      29.527  18.501   8.364  0.00  0.00    -0.322 N 
HETATM    8  C   UNK N   1      28.300  18.228   7.844  0.00  0.00     0.256 C 
HETATM    9  O   UNK N   1      27.856  17.095   7.972  0.00  0.00    -0.267 OA
HETATM   10  H   UNK N   1      29.671  19.255   8.981  0.00  0.00     0.169 HD
BRANCH   8  11
HETATM   11  C   UNK N   1      28.000  18.913   6.584  0.00  0.00     0.032 A 
HETATM   12  C   UNK N   1      28.090  18.245   5.365  0.00  0.00     0.018 A 
HETATM   13  C   UNK N   1      27.561  18.834   4.212  0.00  0.00     0.012 A 
HETATM   14  C   UNK N   1      26.904  20.072   4.279  0.00  0.00    -0.036 A 
HETATM   15  C   UNK N   1      26.803  20.725   5.505  0.00  0.00     0.012 A 
HETATM   16  C   UNK N   1      27.359  20.159   6.647  0.00  0.00     0.018 A 
BRANCH  14  17
HETATM   17  C   UNK N   1      26.191  20.669   3.134  0.00  0.00     0.012 C 
HETATM   18  C   UNK N   1      24.894  20.642   2.778  0.00  0.00     0.013 C 
BRANCH  18  19
HETATM   19  C   UNK N   1      23.760  19.851   3.297  0.00  0.00    -0.020 A 
HETATM   20  C   UNK N   1      23.912  18.727   4.113  0.00  0.00     0.026 A 
HETATM   21  C   UNK N   1      22.798  17.980   4.488  0.00  0.00    -0.009 A 
HETATM   22  C   UNK N   1      22.934  16.857   5.307  0.00  0.00     0.014 A 
HETATM   23  C   UNK N   1      21.524  18.363   4.020  0.00  0.00     0.042 A 
HETATM   24  C   UNK N   1      21.806  16.109   5.655  0.00  0.00     0.001 A 
HETATM   25  C   UNK N   1      20.542  16.482   5.182  0.00  0.00     0.002 A 
HETATM   26  C   UNK N   1      20.400  17.609   4.367  0.00  0.00     0.030 A 
HETATM   27  N   UNK N   1      21.395  19.457   3.226  0.00  0.00    -0.364 N 
HETATM   28  C   UNK N   1      22.477  20.198   2.861  0.00  0.00     0.099 A 
ATOM     29  HN  UNK N   1      20.469  19.732   2.898  1.00  0.00     0.165 HD
ENDBRANCH  18  19
ENDBRANCH  14  17
ENDBRANCH   8  11
ENDBRANCH   4   7
BRANCH   6  30
HETATM   30  C   UNK N   1      34.177  17.445   7.984  0.00  0.00     0.273 C 
HETATM   31  O   UNK N   1      34.708  18.530   8.125  0.00  0.00    -0.266 OA
HETATM   32  N   UNK N   1      34.928  16.319   7.928  0.00  0.00    -0.320 N 
HETATM   33  H   UNK N   1      35.517  16.144   7.159  0.00  0.00     0.169 HD
BRANCH  32  34
HETATM   34  C   UNK N   1      34.847  15.410   8.994  0.00  0.00     0.053 A 
HETATM   35  C   UNK N   1      35.820  15.397   9.933  0.00  0.00     0.066 A 
HETATM   36  C   UNK N   1      35.800  14.161  10.491  0.00  0.00     0.104 A 
HETATM   37  N   UNK N   1      34.795  13.419   9.955  0.00  0.00    -0.354 N 
HETATM   38  C   UNK N   1      34.228  14.173   8.986  0.00  0.00     0.120 A 
HETATM   39  C   UNK N   1      34.538  12.000  10.112  0.00  0.00     0.156 C 
BRANCH  36  40
HETATM   40  C   UNK N   1      36.979  13.759  11.285  0.00  0.00     0.268 C 
HETATM   41  O   UNK N   1      38.007  13.556  10.654  0.00  0.00    -0.266 OA
HETATM   42  N   UNK N   1      37.035  13.601  12.617  0.00  0.00    -0.354 N 
HETATM   43  H   UNK N   1      37.924  13.407  12.995  0.00  0.00     0.162 HD
BRANCH  42  44
HETATM   44  C   UNK N   1      35.961  13.681  13.550  0.00  0.00     0.153 C 
BRANCH  44  45
HETATM   45  C   UNK N   1      35.445  12.259  13.725  0.00  0.00     0.292 C 
BRANCH  45  46
HETATM   46  N   UNK N   1      34.287  12.221  14.629  0.00  0.00     0.094 N 
HETATM   47  C   UNK N   1      33.780  10.848  14.833  0.00  0.00     0.298 C 
HETATM   48  C   UNK N   1      34.731  10.025  15.705  0.00  0.00     0.198 C 
HETATM   49  O   UNK N   1      34.863  10.655  16.953  0.00  0.00    -0.388 OA
HETATM   50  C   UNK N   1      35.562  11.850  16.716  0.00  0.00     0.198 C 
HETATM   51  C   UNK N   1      34.674  12.814  15.912  0.00  0.00     0.298 C 
ENDBRANCH  45  46
ENDBRANCH  44  45
ENDBRANCH  42  44
ENDBRANCH  36  40
ENDBRANCH  32  34
ENDBRANCH   6  30
TORSDOF 10
ENDMDL
MODEL 2
REMARK VINA RESULT:      -9.6      5.186     13.240
REMARK  10 active torsions:
REMARK  status: ('A' for Active; 'I' for Inactive)
REMARK    1  A    between atoms: C_4  and  N_27 
REMARK    2  A    between atoms: C_6  and  C_7 
REMARK       I    between atoms: C_7  and  N_9 
REMARK    3  A    between atoms: N_9  and  C_10 
REMARK    4  A    between atoms: C_12  and  C_16 
REMARK       I    between atoms: C_16  and  N_18 
REMARK    5  A    between atoms: N_18  and  C_19 
REMARK    6  A    between atoms: C_19  and  C_20 
REMARK    7  A    between atoms: C_20  and  N_21 
REMARK       I    between atoms: N_27  and  C_28 
REMARK    8  A    between atoms: C_28  and  C_30 
REMARK    9  A    between atoms: C_33  and  C_36 
REMARK   10  A    between atoms: C_37  and  C_38 
ROOT
HETATM    1  C   UNK N   1      24.996  12.791   3.427  0.00  0.00     0.156 C 
HETATM    2  N   UNK N   1      24.599  14.148   3.792  0.00  0.00    -0.354 N 
HETATM    3  C   UNK N   1      24.923  15.229   3.071  0.00  0.00     0.120 A 
HETATM    4  C   UNK N   1      24.523  16.347   3.775  0.00  0.00     0.053 A 
HETATM    5  C   UNK N   1      24.007  15.931   4.987  0.00  0.00     0.066 A 
HETATM    6  C   UNK N   1      24.073  14.560   4.957  0.00  0.00     0.105 A 
ENDROOT
BRANCH   4   7
HETATM    7  N   UNK N   1      25.185  17.592   3.677  0.00  0.00    -0.322 N 
HETATM    8  C   UNK N   1      26.536  17.578   3.827  0.00  0.00     0.256 C 
HETATM    9  O   UNK N   1      27.190  16.816   3.125  0.00  0.00    -0.267 OA
HETATM   10  H   UNK N   1      24.692  18.427   3.507  0.00  0.00     0.169 HD
BRANCH   8  11
HETATM   11  C   UNK N   1      27.004  17.767   5.202  0.00  0.00     0.032 A 
HETATM   12  C   UNK N   1      27.371  16.681   5.992  0.00  0.00     0.018 A 
HETATM   13  C   UNK N   1      28.046  16.896   7.197  0.00  0.00     0.012 A 
HETATM   14  C   UNK N   1      28.395  18.195   7.598  0.00  0.00    -0.036 A 
HETATM   15  C   UNK N   1      28.040  19.276   6.793  0.00  0.00     0.012 A 
HETATM   16  C   UNK N   1      27.338  19.066   5.612  0.00  0.00     0.018 A 
BRANCH  14  17
HETATM   17  C   UNK N   1      29.241  18.477   8.773  0.00  0.00     0.012 C 
HETATM   18  C   UNK N   1      30.565  18.337   8.975  0.00  0.00     0.013 C 
BRANCH  18  19
HETATM   19  C   UNK N   1      31.607  17.678   8.162  0.00  0.00    -0.020 A 
HETATM   20  C   UNK N   1      31.512  17.502   6.779  0.00  0.00     0.026 A 
HETATM   21  C   UNK N   1      32.495  16.791   6.096  0.00  0.00    -0.009 A 
HETATM   22  C   UNK N   1      32.416  16.611   4.713  0.00  0.00     0.014 A 
HETATM   23  C   UNK N   1      33.571  16.237   6.819  0.00  0.00     0.042 A 
HETATM   24  C   UNK N   1      33.402  15.875   4.050  0.00  0.00     0.001 A 
HETATM   25  C   UNK N   1      34.466  15.316   4.769  0.00  0.00     0.002 A 
HETATM   26  C   UNK N   1      34.552  15.499   6.153  0.00  0.00     0.030 A 
HETATM   27  N   UNK N   1      33.647  16.416   8.164  0.00  0.00    -0.364 N 
HETATM   28  C   UNK N   1      32.695  17.117   8.839  0.00  0.00     0.099 A 
ATOM     29  HN  UNK N   1      34.433  16.019   8.679  1.00  0.00     0.165 HD
ENDBRANCH  18  19
ENDBRANCH  14  17
ENDBRANCH   8  11
ENDBRANCH   4   7
BRANCH   6  30
HETATM   30  C   UNK N   1      23.843  13.704   6.121  0.00  0.00     0.273 C 
HETATM   31  O   UNK N   1      24.744  13.433   6.892  0.00  0.00    -0.266 OA
HETATM   32  N   UNK N   1      22.627  13.125   6.261  0.00  0.00    -0.320 N 
HETATM   33  H   UNK N   1      22.504  12.164   6.084  0.00  0.00     0.169 HD
BRANCH  32  34
HETATM   34  C   UNK N   1      21.549  13.926   6.664  0.00  0.00     0.053 A 
HETATM   35  C   UNK N   1      20.487  14.077   5.839  0.00  0.00     0.066 A 
HETATM   36  C   UNK N   1      19.889  15.243   6.190  0.00  0.00     0.104 A 
HETATM   37  N   UNK N   1      20.527  15.797   7.255  0.00  0.00    -0.354 N 
HETATM   38  C   UNK N   1      21.592  15.008   7.525  0.00  0.00     0.120 A 
HETATM   39  C   UNK N   1      20.352  17.119   7.825  0.00  0.00     0.156 C 
BRANCH  36  40
HETATM   40  C   UNK N   1      18.929  15.825   5.230  0.00  0.00     0.268 C 
HETATM   41  O   UNK N   1      17.763  15.862   5.593  0.00  0.00    -0.266 OA
HETATM   42  N   UNK N   1      19.210  16.317   4.012  0.00  0.00    -0.354 N 
HETATM   43  H   UNK N   1      18.462  16.742   3.532  0.00  0.00     0.162 HD
BRANCH  42  44
HETATM   44  C   UNK N   1      20.461  16.297   3.331  0.00  0.00     0.153 C 
BRANCH  44  45
HETATM   45  C   UNK N   1      20.570  17.630   2.604  0.00  0.00     0.292 C 
BRANCH  45  46
HETATM   46  N   UNK N   1      20.411  18.757   3.534  0.00  0.00     0.094 N 
HETATM   47  C   UNK N   1      21.685  19.129   4.185  0.00  0.00     0.298 C 
HETATM   48  C   UNK N   1      22.633  19.823   3.204  0.00  0.00     0.198 C 
HETATM   49  O   UNK N   1      22.011  20.983   2.716  0.00  0.00    -0.388 OA
HETATM   50  C   UNK N   1      20.944  20.547   1.912  0.00  0.00     0.198 C 
HETATM   51  C   UNK N   1      19.867  19.901   2.796  0.00  0.00     0.298 C 
ENDBRANCH  45  46
ENDBRANCH  44  45
ENDBRANCH  42  44
ENDBRANCH  36  40
ENDBRANCH  32  34
ENDBRANCH   6  30
TORSDOF 10
ENDMDL
MODEL 3
REMARK VINA RESULT:      -9.6      3.222     13.786
REMARK  10 active torsions:
REMARK  status: ('A' for Active; 'I' for Inactive)
REMARK    1  A    between atoms: C_4  and  N_27 
REMARK    2  A    between atoms: C_6  and  C_7 
REMARK       I    between atoms: C_7  and  N_9 
REMARK    3  A    between atoms: N_9  and  C_10 
REMARK    4  A    between atoms: C_12  and  C_16 
REMARK       I    between atoms: C_16  and  N_18 
REMARK    5  A    between atoms: N_18  and  C_19 
REMARK    6  A    between atoms: C_19  and  C_20 
REMARK    7  A    between atoms: C_20  and  N_21 
REMARK       I    between atoms: N_27  and  C_28 
REMARK    8  A    between atoms: C_28  and  C_30 
REMARK    9  A    between atoms: C_33  and  C_36 
REMARK   10  A    between atoms: C_37  and  C_38 
ROOT
HETATM    1  C   UNK N   1      28.250  16.743   3.549  0.00  0.00     0.156 C 
HETATM    2  N   UNK N   1      28.379  17.419   4.836  0.00  0.00    -0.354 N 
HETATM    3  C   UNK N   1      29.256  17.050   5.777  0.00  0.00     0.120 A 
HETATM    4  C   UNK N   1      29.007  17.797   6.911  0.00  0.00     0.053 A 
HETATM    5  C   UNK N   1      27.901  18.590   6.669  0.00  0.00     0.066 A 
HETATM    6  C   UNK N   1      27.543  18.324   5.371  0.00  0.00     0.105 A 
ENDROOT
BRANCH   4   7
HETATM    7  N   UNK N   1      29.264  17.319   8.216  0.00  0.00    -0.322 N 
HETATM    8  C   UNK N   1      30.301  17.894   8.883  0.00  0.00     0.256 C 
HETATM    9  O   UNK N   1      30.321  19.114   8.982  0.00  0.00    -0.267 OA
HETATM   10  H   UNK N   1      28.718  16.607   8.623  0.00  0.00     0.169 HD
BRANCH   8  11
HETATM   11  C   UNK N   1      31.593  17.228   8.700  0.00  0.00     0.032 A 
HETATM   12  C   UNK N   1      31.714  15.847   8.826  0.00  0.00     0.018 A 
HETATM   13  C   UNK N   1      32.886  15.212   8.403  0.00  0.00     0.012 A 
HETATM   14  C   UNK N   1      33.925  15.949   7.815  0.00  0.00    -0.036 A 
HETATM   15  C   UNK N   1      33.789  17.329   7.676  0.00  0.00     0.012 A 
HETATM   16  C   UNK N   1      32.639  17.966   8.128  0.00  0.00     0.018 A 
BRANCH  14  17
HETATM   17  C   UNK N   1      35.115  15.323   7.208  0.00  0.00     0.012 C 
HETATM   18  C   UNK N   1      35.970  14.394   7.674  0.00  0.00     0.013 C 
BRANCH  18  19
HETATM   19  C   UNK N   1      36.135  13.814   9.022  0.00  0.00    -0.020 A 
HETATM   20  C   UNK N   1      35.975  14.545  10.202  0.00  0.00     0.026 A 
HETATM   21  C   UNK N   1      36.236  13.949  11.433  0.00  0.00    -0.009 A 
HETATM   22  C   UNK N   1      36.076  14.666  12.622  0.00  0.00     0.014 A 
HETATM   23  C   UNK N   1      36.679  12.611  11.470  0.00  0.00     0.042 A 
HETATM   24  C   UNK N   1      36.363  14.055  13.846  0.00  0.00     0.001 A 
HETATM   25  C   UNK N   1      36.813  12.730  13.883  0.00  0.00     0.002 A 
HETATM   26  C   UNK N   1      36.968  12.007  12.696  0.00  0.00     0.030 A 
HETATM   27  N   UNK N   1      36.830  11.916  10.313  0.00  0.00    -0.364 N 
HETATM   28  C   UNK N   1      36.570  12.487   9.105  0.00  0.00     0.099 A 
ATOM     29  HN  UNK N   1      37.143  10.946  10.348  1.00  0.00     0.165 HD
ENDBRANCH  18  19
ENDBRANCH  14  17
ENDBRANCH   8  11
ENDBRANCH   4   7
BRANCH   6  30
HETATM   30  C   UNK N   1      26.290  18.771   4.761  0.00  0.00     0.273 C 
HETATM   31  O   UNK N   1      26.278  19.636   3.906  0.00  0.00    -0.266 OA
HETATM   32  N   UNK N   1      25.128  18.280   5.251  0.00  0.00    -0.320 N 
HETATM   33  H   UNK N   1      24.540  18.839   5.810  0.00  0.00     0.169 HD
BRANCH  32  34
HETATM   34  C   UNK N   1      24.780  16.956   4.944  0.00  0.00     0.053 A 
HETATM   35  C   UNK N   1      24.479  16.626   3.667  0.00  0.00     0.066 A 
HETATM   36  C   UNK N   1      23.701  15.516   3.729  0.00  0.00     0.104 A 
HETATM   37  N   UNK N   1      23.555  15.116   5.019  0.00  0.00    -0.354 N 
HETATM   38  C   UNK N   1      24.183  16.035   5.786  0.00  0.00     0.120 A 
HETATM   39  C   UNK N   1      22.657  14.110   5.556  0.00  0.00     0.156 C 
BRANCH  36  40
HETATM   40  C   UNK N   1      22.943  15.156   2.514  0.00  0.00     0.268 C 
HETATM   41  O   UNK N   1      23.562  14.542   1.657  0.00  0.00    -0.266 OA
HETATM   42  N   UNK N   1      21.652  15.429   2.262  0.00  0.00    -0.354 N 
HETATM   43  H   UNK N   1      21.280  15.045   1.434  0.00  0.00     0.162 HD
BRANCH  42  44
HETATM   44  C   UNK N   1      20.757  16.209   3.049  0.00  0.00     0.153 C 
BRANCH  44  45
HETATM   45  C   UNK N   1      20.713  17.586   2.403  0.00  0.00     0.292 C 
BRANCH  45  46
HETATM   46  N   UNK N   1      20.467  18.635   3.402  0.00  0.00     0.094 N 
HETATM   47  C   UNK N   1      21.705  19.050   4.095  0.00  0.00     0.298 C 
HETATM   48  C   UNK N   1      22.611  19.873   3.175  0.00  0.00     0.198 C 
HETATM   49  O   UNK N   1      21.915  21.016   2.755  0.00  0.00    -0.388 OA
HETATM   50  C   UNK N   1      20.889  20.562   1.910  0.00  0.00     0.198 C 
HETATM   51  C   UNK N   1      19.851  19.785   2.734  0.00  0.00     0.298 C 
ENDBRANCH  45  46
ENDBRANCH  44  45
ENDBRANCH  42  44
ENDBRANCH  36  40
ENDBRANCH  32  34
ENDBRANCH   6  30
TORSDOF 10
ENDMDL
MODEL 4
REMARK VINA RESULT:      -9.6      4.500      7.699
REMARK  10 active torsions:
REMARK  status: ('A' for Active; 'I' for Inactive)
REMARK    1  A    between atoms: C_4  and  N_27 
REMARK    2  A    between atoms: C_6  and  C_7 
REMARK       I    between atoms: C_7  and  N_9 
REMARK    3  A    between atoms: N_9  and  C_10 
REMARK    4  A    between atoms: C_12  and  C_16 
REMARK       I    between atoms: C_16  and  N_18 
REMARK    5  A    between atoms: N_18  and  C_19 
REMARK    6  A    between atoms: C_19  and  C_20 
REMARK    7  A    between atoms: C_20  and  N_21 
REMARK       I    between atoms: N_27  and  C_28 
REMARK    8  A    between atoms: C_28  and  C_30 
REMARK    9  A    between atoms: C_33  and  C_36 
REMARK   10  A    between atoms: C_37  and  C_38 
ROOT
HETATM    1  C   UNK N   1      32.427  14.863   7.373  0.00  0.00     0.156 C 
HETATM    2  N   UNK N   1      32.025  16.195   7.815  0.00  0.00    -0.354 N 
HETATM    3  C   UNK N   1      30.963  16.421   8.598  0.00  0.00     0.120 A 
HETATM    4  C   UNK N   1      30.786  17.787   8.694  0.00  0.00     0.053 A 
HETATM    5  C   UNK N   1      31.725  18.400   7.887  0.00  0.00     0.066 A 
HETATM    6  C   UNK N   1      32.473  17.377   7.360  0.00  0.00     0.105 A 
ENDROOT
BRANCH   4   7
HETATM    7  N   UNK N   1      29.520  18.384   8.886  0.00  0.00    -0.322 N 
HETATM    8  C   UNK N   1      28.496  17.901   8.132  0.00  0.00     0.256 C 
HETATM    9  O   UNK N   1      28.284  16.696   8.147  0.00  0.00    -0.267 OA
HETATM   10  H   UNK N   1      29.385  19.113   9.535  0.00  0.00     0.169 HD
BRANCH   8  11
HETATM   11  C   UNK N   1      28.300  18.586   6.852  0.00  0.00     0.032 A 
HETATM   12  C   UNK N   1      28.254  17.874   5.655  0.00  0.00     0.018 A 
HETATM   13  C   UNK N   1      27.818  18.508   4.488  0.00  0.00     0.012 A 
HETATM   14  C   UNK N   1      27.388  19.843   4.518  0.00  0.00    -0.036 A 
HETATM   15  C   UNK N   1      27.421  20.544   5.722  0.00  0.00     0.012 A 
HETATM   16  C   UNK N   1      27.887  19.926   6.877  0.00  0.00     0.018 A 
BRANCH  14  17
HETATM   17  C   UNK N   1      26.772  20.519   3.360  0.00  0.00     0.012 C 
HETATM   18  C   UNK N   1      25.492  20.603   2.953  0.00  0.00     0.013 C 
BRANCH  18  19
HETATM   19  C   UNK N   1      24.278  19.897   3.410  0.00  0.00    -0.020 A 
HETATM   20  C   UNK N   1      24.302  18.805   4.282  0.00  0.00     0.026 A 
HETATM   21  C   UNK N   1      23.122  18.136   4.596  0.00  0.00    -0.009 A 
HETATM   22  C   UNK N   1      23.130  17.046   5.470  0.00  0.00     0.014 A 
HETATM   23  C   UNK N   1      21.913  18.561   4.009  0.00  0.00     0.042 A 
HETATM   24  C   UNK N   1      21.938  16.374   5.756  0.00  0.00     0.001 A 
HETATM   25  C   UNK N   1      20.738  16.789   5.165  0.00  0.00     0.002 A 
HETATM   26  C   UNK N   1      20.725  17.884   4.293  0.00  0.00     0.030 A 
HETATM   27  N   UNK N   1      21.908  19.622   3.161  0.00  0.00    -0.364 N 
HETATM   28  C   UNK N   1      23.055  20.288   2.855  0.00  0.00     0.099 A 
ATOM     29  HN  UNK N   1      21.028  19.928   2.746  1.00  0.00     0.165 HD
ENDBRANCH  18  19
ENDBRANCH  14  17
ENDBRANCH   8  11
ENDBRANCH   4   7
BRANCH   6  30
HETATM   30  C   UNK N   1      33.438  17.545   6.273  0.00  0.00     0.273 C 
HETATM   31  O   UNK N   1      34.636  17.502   6.482  0.00  0.00    -0.266 OA
HETATM   32  N   UNK N   1      32.970  17.864   5.044  0.00  0.00    -0.320 N 
HETATM   33  H   UNK N   1      33.076  18.775   4.685  0.00  0.00     0.169 HD
BRANCH  32  34
HETATM   34  C   UNK N   1      32.331  16.866   4.293  0.00  0.00     0.053 A 
HETATM   35  C   UNK N   1      31.025  16.595   4.520  0.00  0.00     0.066 A 
HETATM   36  C   UNK N   1      30.817  15.323   4.098  0.00  0.00     0.104 A 
HETATM   37  N   UNK N   1      31.956  14.812   3.561  0.00  0.00    -0.354 N 
HETATM   38  C   UNK N   1      32.917  15.749   3.724  0.00  0.00     0.120 A 
HETATM   39  C   UNK N   1      32.237  13.442   3.174  0.00  0.00     0.156 C 
BRANCH  36  40
HETATM   40  C   UNK N   1      29.580  14.655   4.552  0.00  0.00     0.268 C 
HETATM   41  O   UNK N   1      29.652  14.058   5.617  0.00  0.00    -0.266 OA
HETATM   42  N   UNK N   1      28.395  14.644   3.921  0.00  0.00    -0.354 N 
HETATM   43  H   UNK N   1      27.649  14.217   4.404  0.00  0.00     0.162 HD
BRANCH  42  44
HETATM   44  C   UNK N   1      28.087  15.176   2.636  0.00  0.00     0.153 C 
BRANCH  44  45
HETATM   45  C   UNK N   1      26.579  15.379   2.611  0.00  0.00     0.292 C 
BRANCH  45  46
HETATM   46  N   UNK N   1      25.892  14.200   2.067  0.00  0.00     0.094 N 
HETATM   47  C   UNK N   1      25.553  13.215   3.116  0.00  0.00     0.298 C 
HETATM   48  C   UNK N   1      24.406  13.713   3.999  0.00  0.00     0.198 C 
HETATM   49  O   UNK N   1      23.277  13.935   3.196  0.00  0.00    -0.388 OA
HETATM   50  C   UNK N   1      23.586  15.037   2.381  0.00  0.00     0.198 C 
HETATM   51  C   UNK N   1      24.677  14.641   1.375  0.00  0.00     0.298 C 
ENDBRANCH  45  46
ENDBRANCH  44  45
ENDBRANCH  42  44
ENDBRANCH  36  40
ENDBRANCH  32  34
ENDBRANCH   6  30
TORSDOF 10
ENDMDL
MODEL 5
REMARK VINA RESULT:      -9.4      6.901     11.443
REMARK  10 active torsions:
REMARK  status: ('A' for Active; 'I' for Inactive)
REMARK    1  A    between atoms: C_4  and  N_27 
REMARK    2  A    between atoms: C_6  and  C_7 
REMARK       I    between atoms: C_7  and  N_9 
REMARK    3  A    between atoms: N_9  and  C_10 
REMARK    4  A    between atoms: C_12  and  C_16 
REMARK       I    between atoms: C_16  and  N_18 
REMARK    5  A    between atoms: N_18  and  C_19 
REMARK    6  A    between atoms: C_19  and  C_20 
REMARK    7  A    between atoms: C_20  and  N_21 
REMARK       I    between atoms: N_27  and  C_28 
REMARK    8  A    between atoms: C_28  and  C_30 
REMARK    9  A    between atoms: C_33  and  C_36 
REMARK   10  A    between atoms: C_37  and  C_38 
ROOT
HETATM    1  C   UNK N   1      22.630  13.760   0.681  0.00  0.00     0.156 C 
HETATM    2  N   UNK N   1      21.588  14.512   1.374  0.00  0.00    -0.354 N 
HETATM    3  C   UNK N   1      21.830  15.618   2.088  0.00  0.00     0.120 A 
HETATM    4  C   UNK N   1      20.660  15.980   2.724  0.00  0.00     0.053 A 
HETATM    5  C   UNK N   1      19.703  15.025   2.442  0.00  0.00     0.066 A 
HETATM    6  C   UNK N   1      20.320  14.132   1.602  0.00  0.00     0.105 A 
ENDROOT
BRANCH   4   7
HETATM    7  N   UNK N   1      20.640  16.658   3.965  0.00  0.00    -0.322 N 
HETATM    8  C   UNK N   1      20.512  18.011   3.918  0.00  0.00     0.256 C 
HETATM    9  O   UNK N   1      19.578  18.484   3.284  0.00  0.00    -0.267 OA
HETATM   10  H   UNK N   1      20.713  16.175   4.819  0.00  0.00     0.169 HD
BRANCH   8  11
HETATM   11  C   UNK N   1      21.778  18.747   3.869  0.00  0.00     0.032 A 
HETATM   12  C   UNK N   1      22.962  18.170   4.321  0.00  0.00     0.018 A 
HETATM   13  C   UNK N   1      24.185  18.783   4.035  0.00  0.00     0.012 A 
HETATM   14  C   UNK N   1      24.235  19.952   3.260  0.00  0.00    -0.036 A 
HETATM   15  C   UNK N   1      23.047  20.513   2.796  0.00  0.00     0.012 A 
HETATM   16  C   UNK N   1      21.827  19.925   3.109  0.00  0.00     0.018 A 
BRANCH  14  17
HETATM   17  C   UNK N   1      25.496  20.557   2.792  0.00  0.00     0.012 C 
HETATM   18  C   UNK N   1      26.740  20.538   3.306  0.00  0.00     0.013 C 
BRANCH  18  19
HETATM   19  C   UNK N   1      27.245  20.067   4.612  0.00  0.00    -0.020 A 
HETATM   20  C   UNK N   1      28.121  18.989   4.758  0.00  0.00     0.026 A 
HETATM   21  C   UNK N   1      28.482  18.548   6.029  0.00  0.00    -0.009 A 
HETATM   22  C   UNK N   1      29.360  17.474   6.190  0.00  0.00     0.014 A 
HETATM   23  C   UNK N   1      27.936  19.190   7.160  0.00  0.00     0.042 A 
HETATM   24  C   UNK N   1      29.692  17.034   7.475  0.00  0.00     0.001 A 
HETATM   25  C   UNK N   1      29.143  17.665   8.598  0.00  0.00     0.002 A 
HETATM   26  C   UNK N   1      28.268  18.744   8.441  0.00  0.00     0.030 A 
HETATM   27  N   UNK N   1      27.084  20.236   6.999  0.00  0.00    -0.364 N 
HETATM   28  C   UNK N   1      26.732  20.679   5.761  0.00  0.00     0.099 A 
ATOM     29  HN  UNK N   1      26.700  20.700   7.822  1.00  0.00     0.165 HD
ENDBRANCH  18  19
ENDBRANCH  14  17
ENDBRANCH   8  11
ENDBRANCH   4   7
BRANCH   6  30
HETATM   30  C   UNK N   1      19.755  12.836   1.227  0.00  0.00     0.273 C 
HETATM   31  O   UNK N   1      19.399  12.609   0.087  0.00  0.00    -0.266 OA
HETATM   32  N   UNK N   1      19.528  11.928   2.207  0.00  0.00    -0.320 N 
HETATM   33  H   UNK N   1      18.612  11.740   2.518  0.00  0.00     0.169 HD
BRANCH  32  34
HETATM   34  C   UNK N   1      20.628  11.262   2.767  0.00  0.00     0.053 A 
HETATM   35  C   UNK N   1      21.251  11.794   3.843  0.00  0.00     0.066 A 
HETATM   36  C   UNK N   1      22.513  11.295   3.843  0.00  0.00     0.104 A 
HETATM   37  N   UNK N   1      22.672  10.419   2.817  0.00  0.00    -0.354 N 
HETATM   38  C   UNK N   1      21.518  10.430   2.112  0.00  0.00     0.120 A 
HETATM   39  C   UNK N   1      23.897   9.813   2.329  0.00  0.00     0.156 C 
BRANCH  36  40
HETATM   40  C   UNK N   1      23.509  11.980   4.692  0.00  0.00     0.268 C 
HETATM   41  O   UNK N   1      23.976  13.017   4.243  0.00  0.00    -0.266 OA
HETATM   42  N   UNK N   1      23.944  11.583   5.899  0.00  0.00    -0.354 N 
HETATM   43  H   UNK N   1      24.553  12.200   6.366  0.00  0.00     0.162 HD
BRANCH  42  44
HETATM   44  C   UNK N   1      23.630  10.374   6.584  0.00  0.00     0.153 C 
BRANCH  44  45
HETATM   45  C   UNK N   1      23.654  10.709   8.069  0.00  0.00     0.292 C 
BRANCH  45  46
HETATM   46  N   UNK N   1      23.406  12.139   8.295  0.00  0.00     0.094 N 
HETATM   47  C   UNK N   1      22.088  12.388   8.917  0.00  0.00     0.298 C 
HETATM   48  C   UNK N   1      22.073  11.958  10.386  0.00  0.00     0.198 C 
HETATM   49  O   UNK N   1      23.053  12.683  11.081  0.00  0.00    -0.388 OA
HETATM   50  C   UNK N   1      24.292  12.226  10.602  0.00  0.00     0.198 C 
HETATM   51  C   UNK N   1      24.475  12.673   9.144  0.00  0.00     0.298 C 
ENDBRANCH  45  46
ENDBRANCH  44  45
ENDBRANCH  42  44
ENDBRANCH  36  40
ENDBRANCH  32  34
ENDBRANCH   6  30
TORSDOF 10
ENDMDL
MODEL 6
REMARK VINA RESULT:      -9.3      6.578     12.752
REMARK  10 active torsions:
REMARK  status: ('A' for Active; 'I' for Inactive)
REMARK    1  A    between atoms: C_4  and  N_27 
REMARK    2  A    between atoms: C_6  and  C_7 
REMARK       I    between atoms: C_7  and  N_9 
REMARK    3  A    between atoms: N_9  and  C_10 
REMARK    4  A    between atoms: C_12  and  C_16 
REMARK       I    between atoms: C_16  and  N_18 
REMARK    5  A    between atoms: N_18  and  C_19 
REMARK    6  A    between atoms: C_19  and  C_20 
REMARK    7  A    between atoms: C_20  and  N_21 
REMARK       I    between atoms: N_27  and  C_28 
REMARK    8  A    between atoms: C_28  and  C_30 
REMARK    9  A    between atoms: C_33  and  C_36 
REMARK   10  A    between atoms: C_37  and  C_38 
ROOT
HETATM    1  C   UNK N   1      22.764  11.645   4.463  0.00  0.00     0.156 C 
HETATM    2  N   UNK N   1      23.286  12.964   4.117  0.00  0.00    -0.354 N 
HETATM    3  C   UNK N   1      23.641  13.312   2.874  0.00  0.00     0.120 A 
HETATM    4  C   UNK N   1      24.227  14.561   2.932  0.00  0.00     0.053 A 
HETATM    5  C   UNK N   1      24.290  14.946   4.257  0.00  0.00     0.066 A 
HETATM    6  C   UNK N   1      23.695  13.927   4.958  0.00  0.00     0.105 A 
ENDROOT
BRANCH   4   7
HETATM    7  N   UNK N   1      25.224  14.982   2.023  0.00  0.00    -0.322 N 
HETATM    8  C   UNK N   1      26.257  14.124   1.810  0.00  0.00     0.256 C 
HETATM    9  O   UNK N   1      25.997  12.973   1.482  0.00  0.00    -0.267 OA
HETATM   10  H   UNK N   1      25.174  15.853   1.567  0.00  0.00     0.169 HD
BRANCH   8  11
HETATM   11  C   UNK N   1      27.404  14.308   2.702  0.00  0.00     0.032 A 
HETATM   12  C   UNK N   1      28.273  15.385   2.543  0.00  0.00     0.018 A 
HETATM   13  C   UNK N   1      29.200  15.681   3.547  0.00  0.00     0.012 A 
HETATM   14  C   UNK N   1      29.237  14.929   4.731  0.00  0.00    -0.036 A 
HETATM   15  C   UNK N   1      28.353  13.864   4.890  0.00  0.00     0.012 A 
HETATM   16  C   UNK N   1      27.453  13.546   3.879  0.00  0.00     0.018 A 
BRANCH  14  17
HETATM   17  C   UNK N   1      30.080  15.286   5.888  0.00  0.00     0.012 C 
HETATM   18  C   UNK N   1      29.958  16.252   6.817  0.00  0.00     0.013 C 
BRANCH  18  19
HETATM   19  C   UNK N   1      29.047  17.412   6.900  0.00  0.00    -0.020 A 
HETATM   20  C   UNK N   1      28.734  18.227   5.809  0.00  0.00     0.026 A 
HETATM   21  C   UNK N   1      27.937  19.355   5.987  0.00  0.00    -0.009 A 
HETATM   22  C   UNK N   1      27.612  20.177   4.905  0.00  0.00     0.014 A 
HETATM   23  C   UNK N   1      27.471  19.672   7.279  0.00  0.00     0.042 A 
HETATM   24  C   UNK N   1      26.829  21.317   5.108  0.00  0.00     0.001 A 
HETATM   25  C   UNK N   1      26.374  21.637   6.393  0.00  0.00     0.002 A 
HETATM   26  C   UNK N   1      26.692  20.814   7.478  0.00  0.00     0.030 A 
HETATM   27  N   UNK N   1      27.786  18.868   8.328  0.00  0.00    -0.364 N 
HETATM   28  C   UNK N   1      28.557  17.759   8.163  0.00  0.00     0.099 A 
ATOM     29  HN  UNK N   1      27.438  19.100   9.259  1.00  0.00     0.165 HD
ENDBRANCH  18  19
ENDBRANCH  14  17
ENDBRANCH   8  11
ENDBRANCH   4   7
BRANCH   6  30
HETATM   30  C   UNK N   1      23.740  13.803   6.416  0.00  0.00     0.273 C 
HETATM   31  O   UNK N   1      24.788  13.900   7.025  0.00  0.00    -0.266 OA
HETATM   32  N   UNK N   1      22.602  13.462   7.065  0.00  0.00    -0.320 N 
HETATM   33  H   UNK N   1      22.483  12.557   7.434  0.00  0.00     0.169 HD
BRANCH  32  34
HETATM   34  C   UNK N   1      21.595  14.430   7.200  0.00  0.00     0.053 A 
HETATM   35  C   UNK N   1      20.504  14.372   6.403  0.00  0.00     0.066 A 
HETATM   36  C   UNK N   1      19.997  15.629   6.351  0.00  0.00     0.104 A 
HETATM   37  N   UNK N   1      20.721  16.461   7.145  0.00  0.00    -0.354 N 
HETATM   38  C   UNK N   1      21.748  15.733   7.638  0.00  0.00     0.120 A 
HETATM   39  C   UNK N   1      20.656  17.908   7.233  0.00  0.00     0.156 C 
BRANCH  36  40
HETATM   40  C   UNK N   1      19.026  15.921   5.277  0.00  0.00     0.268 C 
HETATM   41  O   UNK N   1      17.845  15.831   5.581  0.00  0.00    -0.266 OA
HETATM   42  N   UNK N   1      19.309  16.277   4.013  0.00  0.00    -0.354 N 
HETATM   43  H   UNK N   1      18.540  16.514   3.445  0.00  0.00     0.162 HD
BRANCH  42  44
HETATM   44  C   UNK N   1      20.591  16.353   3.396  0.00  0.00     0.153 C 
BRANCH  44  45
HETATM   45  C   UNK N   1      20.670  17.730   2.751  0.00  0.00     0.292 C 
BRANCH  45  46
HETATM   46  N   UNK N   1      20.733  18.790   3.766  0.00  0.00     0.094 N 
HETATM   47  C   UNK N   1      22.117  19.064   4.206  0.00  0.00     0.298 C 
HETATM   48  C   UNK N   1      22.914  19.792   3.121  0.00  0.00     0.198 C 
HETATM   49  O   UNK N   1      22.277  21.008   2.828  0.00  0.00    -0.388 OA
HETATM   50  C   UNK N   1      21.066  20.673   2.198  0.00  0.00     0.198 C 
HETATM   51  C   UNK N   1      20.127  20.005   3.214  0.00  0.00     0.298 C 
ENDBRANCH  45  46
ENDBRANCH  44  45
ENDBRANCH  42  44
ENDBRANCH  36  40
ENDBRANCH  32  34
ENDBRANCH   6  30
TORSDOF 10
ENDMDL
MODEL 7
REMARK VINA RESULT:      -9.3      6.686     10.582
REMARK  10 active torsions:
REMARK  status: ('A' for Active; 'I' for Inactive)
REMARK    1  A    between atoms: C_4  and  N_27 
REMARK    2  A    between atoms: C_6  and  C_7 
REMARK       I    between atoms: C_7  and  N_9 
REMARK    3  A    between atoms: N_9  and  C_10 
REMARK    4  A    between atoms: C_12  and  C_16 
REMARK       I    between atoms: C_16  and  N_18 
REMARK    5  A    between atoms: N_18  and  C_19 
REMARK    6  A    between atoms: C_19  and  C_20 
REMARK    7  A    between atoms: C_20  and  N_21 
REMARK       I    between atoms: N_27  and  C_28 
REMARK    8  A    between atoms: C_28  and  C_30 
REMARK    9  A    between atoms: C_33  and  C_36 
REMARK   10  A    between atoms: C_37  and  C_38 
ROOT
HETATM    1  C   UNK N   1      19.807  12.631   2.272  0.00  0.00     0.156 C 
HETATM    2  N   UNK N   1      20.619  13.490   3.128  0.00  0.00    -0.354 N 
HETATM    3  C   UNK N   1      20.210  13.940   4.320  0.00  0.00     0.120 A 
HETATM    4  C   UNK N   1      21.150  14.838   4.784  0.00  0.00     0.053 A 
HETATM    5  C   UNK N   1      22.119  14.988   3.810  0.00  0.00     0.066 A 
HETATM    6  C   UNK N   1      21.752  14.135   2.800  0.00  0.00     0.105 A 
ENDROOT
BRANCH   4   7
HETATM    7  N   UNK N   1      20.823  15.922   5.630  0.00  0.00    -0.322 N 
HETATM    8  C   UNK N   1      20.453  17.081   5.022  0.00  0.00     0.256 C 
HETATM    9  O   UNK N   1      19.549  17.039   4.197  0.00  0.00    -0.267 OA
HETATM   10  H   UNK N   1      20.860  15.842   6.611  0.00  0.00     0.169 HD
BRANCH   8  11
HETATM   11  C   UNK N   1      21.552  18.008   4.745  0.00  0.00     0.032 A 
HETATM   12  C   UNK N   1      22.827  17.786   5.261  0.00  0.00     0.018 A 
HETATM   13  C   UNK N   1      23.908  18.533   4.783  0.00  0.00     0.012 A 
HETATM   14  C   UNK N   1      23.728  19.476   3.760  0.00  0.00    -0.036 A 
HETATM   15  C   UNK N   1      22.453  19.680   3.237  0.00  0.00     0.012 A 
HETATM   16  C   UNK N   1      21.371  18.964   3.734  0.00  0.00     0.018 A 
BRANCH  14  17
HETATM   17  C   UNK N   1      24.848  20.181   3.107  0.00  0.00     0.012 C 
HETATM   18  C   UNK N   1      26.148  20.289   3.436  0.00  0.00     0.013 C 
BRANCH  18  19
HETATM   19  C   UNK N   1      26.875  19.903   4.662  0.00  0.00    -0.020 A 
HETATM   20  C   UNK N   1      27.804  18.861   4.712  0.00  0.00     0.026 A 
HETATM   21  C   UNK N   1      28.383  18.499   5.926  0.00  0.00    -0.009 A 
HETATM   22  C   UNK N   1      29.316  17.462   5.991  0.00  0.00     0.014 A 
HETATM   23  C   UNK N   1      28.004  19.183   7.100  0.00  0.00     0.042 A 
HETATM   24  C   UNK N   1      29.869  17.100   7.224  0.00  0.00     0.001 A 
HETATM   25  C   UNK N   1      29.486  17.772   8.390  0.00  0.00     0.002 A 
HETATM   26  C   UNK N   1      28.556  18.814   8.329  0.00  0.00     0.030 A 
HETATM   27  N   UNK N   1      27.098  20.192   7.032  0.00  0.00    -0.364 N 
HETATM   28  C   UNK N   1      26.533  20.559   5.849  0.00  0.00     0.099 A 
ATOM     29  HN  UNK N   1      26.835  20.687   7.885  1.00  0.00     0.165 HD
ENDBRANCH  18  19
ENDBRANCH  14  17
ENDBRANCH   8  11
ENDBRANCH   4   7
BRANCH   6  30
HETATM   30  C   UNK N   1      22.364  14.129   1.471  0.00  0.00     0.273 C 
HETATM   31  O   UNK N   1      21.963  14.863   0.589  0.00  0.00    -0.266 OA
HETATM   32  N   UNK N   1      23.317  13.203   1.209  0.00  0.00    -0.320 N 
HETATM   33  H   UNK N   1      23.121  12.425   0.636  0.00  0.00     0.169 HD
BRANCH  32  34
HETATM   34  C   UNK N   1      24.590  13.378   1.771  0.00  0.00     0.053 A 
HETATM   35  C   UNK N   1      24.940  12.660   2.863  0.00  0.00     0.066 A 
HETATM   36  C   UNK N   1      25.919  13.361   3.488  0.00  0.00     0.104 A 
HETATM   37  N   UNK N   1      26.225  14.478   2.776  0.00  0.00    -0.354 N 
HETATM   38  C   UNK N   1      25.367  14.522   1.732  0.00  0.00     0.120 A 
HETATM   39  C   UNK N   1      27.058  15.599   3.169  0.00  0.00     0.156 C 
BRANCH  36  40
HETATM   40  C   UNK N   1      26.229  12.990   4.883  0.00  0.00     0.268 C 
HETATM   41  O   UNK N   1      26.944  12.009   5.032  0.00  0.00    -0.266 OA
HETATM   42  N   UNK N   1      25.812  13.620   5.994  0.00  0.00    -0.354 N 
HETATM   43  H   UNK N   1      26.178  13.288   6.846  0.00  0.00     0.162 HD
BRANCH  42  44
HETATM   44  C   UNK N   1      24.902  14.713   6.086  0.00  0.00     0.153 C 
BRANCH  44  45
HETATM   45  C   UNK N   1      23.970  14.392   7.245  0.00  0.00     0.292 C 
BRANCH  45  46
HETATM   46  N   UNK N   1      23.997  12.959   7.569  0.00  0.00     0.094 N 
HETATM   47  C   UNK N   1      24.205  12.714   9.011  0.00  0.00     0.298 C 
HETATM   48  C   UNK N   1      22.958  13.069   9.825  0.00  0.00     0.198 C 
HETATM   49  O   UNK N   1      21.885  12.284   9.376  0.00  0.00    -0.388 OA
HETATM   50  C   UNK N   1      21.587  12.731   8.078  0.00  0.00     0.198 C 
HETATM   51  C   UNK N   1      22.736  12.355   7.130  0.00  0.00     0.298 C 
ENDBRANCH  45  46
ENDBRANCH  44  45
ENDBRANCH  42  44
ENDBRANCH  36  40
ENDBRANCH  32  34
ENDBRANCH   6  30
TORSDOF 10
ENDMDL
MODEL 8
REMARK VINA RESULT:      -9.3      6.804     11.799
REMARK  10 active torsions:
REMARK  status: ('A' for Active; 'I' for Inactive)
REMARK    1  A    between atoms: C_4  and  N_27 
REMARK    2  A    between atoms: C_6  and  C_7 
REMARK       I    between atoms: C_7  and  N_9 
REMARK    3  A    between atoms: N_9  and  C_10 
REMARK    4  A    between atoms: C_12  and  C_16 
REMARK       I    between atoms: C_16  and  N_18 
REMARK    5  A    between atoms: N_18  and  C_19 
REMARK    6  A    between atoms: C_19  and  C_20 
REMARK    7  A    between atoms: C_20  and  N_21 
REMARK       I    between atoms: N_27  and  C_28 
REMARK    8  A    between atoms: C_28  and  C_30 
REMARK    9  A    between atoms: C_33  and  C_36 
REMARK   10  A    between atoms: C_37  and  C_38 
ROOT
HETATM    1  C   UNK N   1      22.736  13.802   0.704  0.00  0.00     0.156 C 
HETATM    2  N   UNK N   1      21.668  14.468   1.443  0.00  0.00    -0.354 N 
HETATM    3  C   UNK N   1      21.849  15.593   2.145  0.00  0.00     0.120 A 
HETATM    4  C   UNK N   1      20.682  15.860   2.833  0.00  0.00     0.053 A 
HETATM    5  C   UNK N   1      19.797  14.827   2.595  0.00  0.00     0.066 A 
HETATM    6  C   UNK N   1      20.447  13.984   1.729  0.00  0.00     0.105 A 
ENDROOT
BRANCH   4   7
HETATM    7  N   UNK N   1      20.662  16.539   4.072  0.00  0.00    -0.322 N 
HETATM    8  C   UNK N   1      20.501  17.889   4.026  0.00  0.00     0.256 C 
HETATM    9  O   UNK N   1      19.548  18.338   3.402  0.00  0.00    -0.267 OA
HETATM   10  H   UNK N   1      20.758  16.059   4.927  0.00  0.00     0.169 HD
BRANCH   8  11
HETATM   11  C   UNK N   1      21.748  18.655   3.958  0.00  0.00     0.032 A 
HETATM   12  C   UNK N   1      22.944  18.124   4.435  0.00  0.00     0.018 A 
HETATM   13  C   UNK N   1      24.153  18.758   4.135  0.00  0.00     0.012 A 
HETATM   14  C   UNK N   1      24.177  19.902   3.322  0.00  0.00    -0.036 A 
HETATM   15  C   UNK N   1      22.978  20.417   2.835  0.00  0.00     0.012 A 
HETATM   16  C   UNK N   1      21.772  19.808   3.161  0.00  0.00     0.018 A 
BRANCH  14  17
HETATM   17  C   UNK N   1      25.425  20.524   2.841  0.00  0.00     0.012 C 
HETATM   18  C   UNK N   1      26.674  20.522   3.343  0.00  0.00     0.013 C 
BRANCH  18  19
HETATM   19  C   UNK N   1      27.198  20.060   4.644  0.00  0.00    -0.020 A 
HETATM   20  C   UNK N   1      28.106  19.006   4.780  0.00  0.00     0.026 A 
HETATM   21  C   UNK N   1      28.485  18.570   6.047  0.00  0.00    -0.009 A 
HETATM   22  C   UNK N   1      29.395  17.521   6.199  0.00  0.00     0.014 A 
HETATM   23  C   UNK N   1      27.927  19.190   7.183  0.00  0.00     0.042 A 
HETATM   24  C   UNK N   1      29.746  17.084   7.479  0.00  0.00     0.001 A 
HETATM   25  C   UNK N   1      29.185  17.693   8.608  0.00  0.00     0.002 A 
HETATM   26  C   UNK N   1      28.277  18.747   8.461  0.00  0.00     0.030 A 
HETATM   27  N   UNK N   1      27.044  20.212   7.032  0.00  0.00    -0.364 N 
HETATM   28  C   UNK N   1      26.674  20.651   5.798  0.00  0.00     0.099 A 
ATOM     29  HN  UNK N   1      26.651  20.661   7.860  1.00  0.00     0.165 HD
ENDBRANCH  18  19
ENDBRANCH  14  17
ENDBRANCH   8  11
ENDBRANCH   4   7
BRANCH   6  30
HETATM   30  C   UNK N   1      19.975  12.644   1.382  0.00  0.00     0.273 C 
HETATM   31  O   UNK N   1      19.637  12.369   0.246  0.00  0.00    -0.266 OA
HETATM   32  N   UNK N   1      19.812  11.743   2.379  0.00  0.00    -0.320 N 
HETATM   33  H   UNK N   1      18.912  11.497   2.695  0.00  0.00     0.169 HD
BRANCH  32  34
HETATM   34  C   UNK N   1      20.957  11.168   2.952  0.00  0.00     0.053 A 
HETATM   35  C   UNK N   1      21.308  11.501   4.215  0.00  0.00     0.066 A 
HETATM   36  C   UNK N   1      22.640  11.263   4.319  0.00  0.00     0.104 A 
HETATM   37  N   UNK N   1      23.116  10.736   3.161  0.00  0.00    -0.354 N 
HETATM   38  C   UNK N   1      22.084  10.719   2.287  0.00  0.00     0.120 A 
HETATM   39  C   UNK N   1      24.496  10.519   2.767  0.00  0.00     0.156 C 
BRANCH  36  40
HETATM   40  C   UNK N   1      23.346  11.871   5.466  0.00  0.00     0.268 C 
HETATM   41  O   UNK N   1      23.384  11.203   6.489  0.00  0.00    -0.266 OA
HETATM   42  N   UNK N   1      23.948  13.071   5.494  0.00  0.00    -0.354 N 
HETATM   43  H   UNK N   1      24.443  13.290   6.317  0.00  0.00     0.162 HD
BRANCH  42  44
HETATM   44  C   UNK N   1      23.956  14.066   4.474  0.00  0.00     0.153 C 
BRANCH  44  45
HETATM   45  C   UNK N   1      25.415  14.452   4.269  0.00  0.00     0.292 C 
BRANCH  45  46
HETATM   46  N   UNK N   1      25.635  15.004   2.926  0.00  0.00     0.094 N 
HETATM   47  C   UNK N   1      26.584  16.138   2.934  0.00  0.00     0.298 C 
HETATM   48  C   UNK N   1      28.018  15.664   3.183  0.00  0.00     0.198 C 
HETATM   49  O   UNK N   1      28.383  14.768   2.167  0.00  0.00    -0.388 OA
HETATM   50  C   UNK N   1      27.602  13.616   2.361  0.00  0.00     0.198 C 
HETATM   51  C   UNK N   1      26.131  13.935   2.054  0.00  0.00     0.298 C 
ENDBRANCH  45  46
ENDBRANCH  44  45
ENDBRANCH  42  44
ENDBRANCH  36  40
ENDBRANCH  32  34
ENDBRANCH   6  30
TORSDOF 10
ENDMDL
MODEL 9
REMARK VINA RESULT:      -9.1      3.363      5.967
REMARK  10 active torsions:
REMARK  status: ('A' for Active; 'I' for Inactive)
REMARK    1  A    between atoms: C_4  and  N_27 
REMARK    2  A    between atoms: C_6  and  C_7 
REMARK       I    between atoms: C_7  and  N_9 
REMARK    3  A    between atoms: N_9  and  C_10 
REMARK    4  A    between atoms: C_12  and  C_16 
REMARK       I    between atoms: C_16  and  N_18 
REMARK    5  A    between atoms: N_18  and  C_19 
REMARK    6  A    between atoms: C_19  and  C_20 
REMARK    7  A    between atoms: C_20  and  N_21 
REMARK       I    between atoms: N_27  and  C_28 
REMARK    8  A    between atoms: C_28  and  C_30 
REMARK    9  A    between atoms: C_33  and  C_36 
REMARK   10  A    between atoms: C_37  and  C_38 
ROOT
HETATM    1  C   UNK N   1      29.587  13.278   4.459  0.00  0.00     0.156 C 
HETATM    2  N   UNK N   1      29.110  14.645   4.271  0.00  0.00    -0.354 N 
HETATM    3  C   UNK N   1      27.826  14.954   4.051  0.00  0.00     0.120 A 
HETATM    4  C   UNK N   1      27.753  16.303   3.770  0.00  0.00     0.053 A 
HETATM    5  C   UNK N   1      29.039  16.809   3.750  0.00  0.00     0.066 A 
HETATM    6  C   UNK N   1      29.850  15.748   4.065  0.00  0.00     0.105 A 
ENDROOT
BRANCH   4   7
HETATM    7  N   UNK N   1      26.760  16.859   2.931  0.00  0.00    -0.322 N 
HETATM    8  C   UNK N   1      25.907  17.750   3.504  0.00  0.00     0.256 C 
HETATM    9  O   UNK N   1      26.382  18.703   4.106  0.00  0.00    -0.267 OA
HETATM   10  H   UNK N   1      26.691  16.614   1.980  0.00  0.00     0.169 HD
BRANCH   8  11
HETATM   11  C   UNK N   1      24.689  17.160   4.065  0.00  0.00     0.032 A 
HETATM   12  C   UNK N   1      23.809  17.921   4.830  0.00  0.00     0.018 A 
HETATM   13  C   UNK N   1      22.543  17.415   5.140  0.00  0.00     0.012 A 
HETATM   14  C   UNK N   1      22.135  16.164   4.651  0.00  0.00    -0.036 A 
HETATM   15  C   UNK N   1      23.014  15.416   3.872  0.00  0.00     0.012 A 
HETATM   16  C   UNK N   1      24.286  15.902   3.592  0.00  0.00     0.018 A 
BRANCH  14  17
HETATM   17  C   UNK N   1      20.762  15.645   4.809  0.00  0.00     0.012 C 
HETATM   18  C   UNK N   1      20.241  14.749   5.666  0.00  0.00     0.013 C 
BRANCH  18  19
HETATM   19  C   UNK N   1      20.888  13.829   6.624  0.00  0.00    -0.020 A 
HETATM   20  C   UNK N   1      20.830  13.992   8.010  0.00  0.00     0.026 A 
HETATM   21  C   UNK N   1      21.541  13.133   8.845  0.00  0.00    -0.009 A 
HETATM   22  C   UNK N   1      21.489  13.281  10.233  0.00  0.00     0.014 A 
HETATM   23  C   UNK N   1      22.331  12.115   8.272  0.00  0.00     0.042 A 
HETATM   24  C   UNK N   1      22.228  12.421  11.052  0.00  0.00     0.001 A 
HETATM   25  C   UNK N   1      23.020  11.417  10.483  0.00  0.00     0.002 A 
HETATM   26  C   UNK N   1      23.070  11.262   9.094  0.00  0.00     0.030 A 
HETATM   27  N   UNK N   1      22.377  11.973   6.922  0.00  0.00    -0.364 N 
HETATM   28  C   UNK N   1      21.679  12.802   6.099  0.00  0.00     0.099 A 
ATOM     29  HN  UNK N   1      22.945  11.229   6.516  1.00  0.00     0.165 HD
ENDBRANCH  18  19
ENDBRANCH  14  17
ENDBRANCH   8  11
ENDBRANCH   4   7
BRANCH   6  30
HETATM   30  C   UNK N   1      31.307  15.767   3.940  0.00  0.00     0.273 C 
HETATM   31  O   UNK N   1      31.846  15.785   2.850  0.00  0.00    -0.266 OA
HETATM   32  N   UNK N   1      32.049  15.647   5.066  0.00  0.00    -0.320 N 
HETATM   33  H   UNK N   1      32.521  14.808   5.273  0.00  0.00     0.169 HD
BRANCH  32  34
HETATM   34  C   UNK N   1      32.131  16.749   5.931  0.00  0.00     0.053 A 
HETATM   35  C   UNK N   1      33.340  17.145   6.392  0.00  0.00     0.066 A 
HETATM   36  C   UNK N   1      33.110  17.816   7.549  0.00  0.00     0.104 A 
HETATM   37  N   UNK N   1      31.775  17.893   7.791  0.00  0.00    -0.354 N 
HETATM   38  C   UNK N   1      31.161  17.188   6.814  0.00  0.00     0.120 A 
HETATM   39  C   UNK N   1      31.100  18.339   8.995  0.00  0.00     0.156 C 
BRANCH  36  40
HETATM   40  C   UNK N   1      34.267  18.044   8.437  0.00  0.00     0.268 C 
HETATM   41  O   UNK N   1      34.911  19.062   8.231  0.00  0.00    -0.266 OA
HETATM   42  N   UNK N   1      34.676  17.253   9.443  0.00  0.00    -0.354 N 
HETATM   43  H   UNK N   1      35.422  17.594   9.989  0.00  0.00     0.162 HD
BRANCH  42  44
HETATM   44  C   UNK N   1      34.160  15.978   9.814  0.00  0.00     0.153 C 
BRANCH  44  45
HETATM   45  C   UNK N   1      35.127  15.412  10.844  0.00  0.00     0.292 C 
BRANCH  45  46
HETATM   46  N   UNK N   1      35.011  13.950  10.935  0.00  0.00     0.094 N 
HETATM   47  C   UNK N   1      36.063  13.255  10.164  0.00  0.00     0.298 C 
HETATM   48  C   UNK N   1      37.429  13.381  10.844  0.00  0.00     0.198 C 
HETATM   49  O   UNK N   1      37.352  12.816  12.126  0.00  0.00    -0.388 OA
HETATM   50  C   UNK N   1      36.516  13.660  12.876  0.00  0.00     0.198 C 
HETATM   51  C   UNK N   1      35.077  13.560  12.347  0.00  0.00     0.298 C 
ENDBRANCH  45  46
ENDBRANCH  44  45
ENDBRANCH  42  44
ENDBRANCH  36  40
ENDBRANCH  32  34
ENDBRANCH   6  30
TORSDOF 10
ENDMDL
