REMARK  12 active torsions:
REMARK  status: ('A' for Active; 'I' for Inactive)
REMARK    1  A    between atoms: C_9  and  C_6 
REMARK    2  A    between atoms: C_17  and  C_6 
REMARK    3  A    between atoms: C_23  and  C_9 
REMARK    4  A    between atoms: C_22  and  C_13 
REMARK    5  A    between atoms: N_41  and  C_13 
REMARK    6  A    between atoms: N_41  and  C_16 
REMARK    7  A    between atoms: C_30  and  C_18 
REMARK    8  A    between atoms: C_19  and  N_41 
REMARK    9  A    between atoms: C_25  and  O_43 
REMARK   10  A    between atoms: C_26  and  O_44 
REMARK   11  A    between atoms: N_31  and  C_27 
REMARK   12  A    between atoms: C_29  and  N_42 
ROOT
HETATM    1  C   UNK N   1      -1.002  -1.447  -0.790  0.00  0.00     0.307 C 
ENDROOT
BRANCH   1   2
HETATM    2  C   UNK N   1       0.514  -1.355  -0.998  0.00  0.00     0.183 C 
HETATM    3  C   UNK N   1       1.389  -1.981   0.119  0.00  0.00     0.182 C 
HETATM    4  C   UNK N   1       2.482  -0.926   0.215  0.00  0.00     0.198 C 
HETATM    5  C   UNK N   1       1.590   0.294   0.051  0.00  0.00     0.262 C 
HETATM    6  O   UNK N   1       0.845   0.008  -1.099  0.00  0.00    -0.354 OA
BRANCH   3   7
HETATM    7  O   UNK N   1       0.684  -2.038   1.330  0.00  0.00    -0.390 OA
HETATM    8  H   UNK N   1       0.406  -1.635   2.167  0.00  0.00     0.210 HD
ENDBRANCH   3   7
BRANCH   4   9
HETATM    9  O   UNK N   1       3.161  -0.964   1.436  0.00  0.00    -0.388 OA
HETATM   10  H   UNK N   1       3.374  -1.385   2.283  0.00  0.00     0.210 HD
ENDBRANCH   4   9
BRANCH   5  11
HETATM   11  N   UNK N   1       2.181   1.616  -0.104  0.00  0.00    -0.297 N 
HETATM   12  C   UNK N   1       1.415   2.725  -0.279  0.00  0.00     0.188 A 
HETATM   13  N   UNK N   1       2.170   3.844  -0.406  0.00  0.00    -0.346 N 
HETATM   14  C   UNK N   1       3.431   3.400  -0.305  0.00  0.00     0.122 A 
ATOM     15  HN  UNK N   1       1.851   4.803  -0.546  1.00  0.00     0.167 HD
HETATM   16  C   UNK N   1       4.612   4.108  -0.366  0.00  0.00     0.131 A 
HETATM   17  C   UNK N   1       3.443   2.062  -0.122  0.00  0.00     0.142 A 
HETATM   18  N   UNK N   1       5.779   3.413  -0.236  0.00  0.00    -0.337 N 
HETATM   19  C   UNK N   1       5.773   2.049  -0.049  0.00  0.00     0.183 A 
ATOM     20  HN  UNK N   1       6.669   3.911  -0.277  1.00  0.00     0.168 HD
HETATM   21  N   UNK N   1       4.591   1.358   0.008  0.00  0.00    -0.336 N 
ATOM     22  HN  UNK N   1       4.576   0.347   0.145  1.00  0.00     0.168 HD
BRANCH  16  23
HETATM   23  N   UNK N   1       4.616   5.504  -0.560  0.00  0.00    -0.383 N 
HETATM   24  H   UNK N   1       5.462   5.990  -0.695  0.00  0.00     0.157 HD
HETATM   25  H   UNK N   1       3.765   5.999  -0.560  0.00  0.00     0.157 HD
ENDBRANCH  16  23
ENDBRANCH   5  11
ENDBRANCH   1   2
BRANCH   1  26
HETATM   26  N   UNK N   1      -1.491  -0.475   0.219  0.00  0.00     0.099 N 
BRANCH  26  27
HETATM   27  C   UNK N   1      -1.652   0.864  -0.384  0.00  0.00     0.215 C 
HETATM   28  C   UNK N   1      -1.715   1.953   0.675  0.00  0.00     0.042 C 
HETATM   29  C   UNK N   1      -2.819   0.969  -1.354  0.00  0.00     0.042 C 
ENDBRANCH  26  27
BRANCH  26  30
HETATM   30  C   UNK N   1      -2.702  -0.915   0.951  0.00  0.00     0.224 C 
HETATM   31  C   UNK N   1      -3.620  -1.810   0.136  0.00  0.00     0.040 C 
HETATM   32  C   UNK N   1      -3.178  -2.996   0.985  0.00  0.00    -0.010 C 
HETATM   33  C   UNK N   1      -2.399  -2.068   1.892  0.00  0.00     0.040 C 
BRANCH  32  34
HETATM   34  C   UNK N   1      -2.194  -3.936   0.269  0.00  0.00     0.012 C 
BRANCH  34  35
HETATM   35  C   UNK N   1      -2.700  -4.412  -1.088  0.00  0.00     0.077 C 
BRANCH  35  36
HETATM   36  C   UNK N   1      -4.000  -5.091  -0.907  0.00  0.00     0.082 A 
HETATM   37  N   UNK N   1      -4.134  -6.312  -0.333  0.00  0.00    -0.344 N 
HETATM   38  C   UNK N   1      -5.460  -6.469  -0.239  0.00  0.00     0.060 A 
ATOM     39  HN  UNK N   1      -3.400  -6.958  -0.042  1.00  0.00     0.167 HD
HETATM   40  C   UNK N   1      -6.157  -7.546   0.290  0.00  0.00     0.032 A 
HETATM   41  C   UNK N   1      -6.089  -5.369  -0.729  0.00  0.00     0.061 A 
HETATM   42  C   UNK N   1      -7.561  -7.457   0.309  0.00  0.00     0.010 A 
HETATM   43  C   UNK N   1      -8.229  -6.302  -0.188  0.00  0.00    -0.048 A 
HETATM   44  C   UNK N   1      -7.467  -5.236  -0.722  0.00  0.00     0.039 A 
HETATM   45  N   UNK N   1      -5.184  -4.484  -1.159  0.00  0.00    -0.344 N 
HETATM   46  H   UNK N   1      -5.342  -3.600  -1.562  0.00  0.00     0.167 HD
BRANCH  43  47
HETATM   47  C   UNK N   1      -9.740  -6.227  -0.134  0.00  0.00    -0.024 C 
HETATM   48  C   UNK N   1     -10.210  -6.375   1.302  0.00  0.00     0.019 C 
HETATM   49  C   UNK N   1     -10.334  -7.349  -0.964  0.00  0.00     0.019 C 
HETATM   50  C   UNK N   1     -10.285  -4.909  -0.668  0.00  0.00     0.019 C 
ENDBRANCH  43  47
ENDBRANCH  35  36
ENDBRANCH  34  35
ENDBRANCH  32  34
ENDBRANCH  26  30
ENDBRANCH   1  26
TORSDOF 12
