REMARK  17 active torsions:
REMARK  status: ('A' for Active; 'I' for Inactive)
REMARK    1  A    between atoms: C_4  and  C_1 
REMARK    2  A    between atoms: O_13  and  C_1 
REMARK    3  A    between atoms: C_5  and  C_2 
REMARK    4  A    between atoms: O_14  and  C_2 
REMARK    5  A    between atoms: C_6  and  C_3 
REMARK    6  A    between atoms: O_15  and  C_3 
REMARK    7  A    between atoms: C_7  and  C_4 
REMARK    8  A    between atoms: C_4  and  O_16 
REMARK    9  A    between atoms: C_11  and  C_5 
REMARK   10  A    between atoms: C_5  and  O_17 
REMARK   11  A    between atoms: C_11  and  C_7 
REMARK   12  A    between atoms: C_7  and  O_18 
REMARK   13  A    between atoms: C_8  and  O_19 
REMARK   14  A    between atoms: C_9  and  O_20 
REMARK   15  A    between atoms: C_10  and  O_21 
REMARK   16  A    between atoms: C_11  and  O_23 
REMARK   17  A    between atoms: C_12  and  O_23 
ROOT
HETATM    1  C   UNK N   1      -0.968   1.698   0.458  0.00  0.00     0.186 C 
ENDROOT
BRANCH   1   2
HETATM    2  C   UNK N   1       0.428   2.156   0.939  0.00  0.00     0.173 C 
BRANCH   2   3
HETATM    3  C   UNK N   1       1.170   2.959  -0.126  0.00  0.00     0.198 C 
BRANCH   3   4
HETATM    4  O   UNK N   1       2.369   3.460   0.384  0.00  0.00    -0.398 OA
HETATM    5  H   UNK N   1       3.087   2.912   0.739  0.00  0.00     0.209 HD
ENDBRANCH   3   4
ENDBRANCH   2   3
BRANCH   2   6
HETATM    6  O   UNK N   1       1.201   1.033   1.245  0.00  0.00    -0.391 OA
HETATM    7  H   UNK N   1       0.795   0.179   1.458  0.00  0.00     0.210 HD
ENDBRANCH   2   6
ENDBRANCH   1   2
BRANCH   1   8
HETATM    8  C   UNK N   1      -2.057   2.824   0.377  0.00  0.00     0.180 C 
BRANCH   8   9
HETATM    9  C   UNK N   1      -1.771   4.101  -0.440  0.00  0.00     0.173 C 
BRANCH   9  10
HETATM   10  C   UNK N   1      -0.809   5.048   0.275  0.00  0.00     0.198 C 
BRANCH  10  11
HETATM   11  O   UNK N   1      -0.710   6.259  -0.411  0.00  0.00    -0.398 OA
HETATM   12  H   UNK N   1       0.053   6.620  -0.888  0.00  0.00     0.209 HD
ENDBRANCH  10  11
ENDBRANCH   9  10
BRANCH   9  13
HETATM   13  O   UNK N   1      -1.303   3.785  -1.717  0.00  0.00    -0.391 OA
HETATM   14  H   UNK N   1      -1.330   3.393  -2.604  0.00  0.00     0.210 HD
ENDBRANCH   9  13
ENDBRANCH   8   9
BRANCH   8  15
HETATM   15  O   UNK N   1      -2.429   3.198   1.672  0.00  0.00    -0.390 OA
HETATM   16  H   UNK N   1      -2.333   3.551   2.571  0.00  0.00     0.210 HD
ENDBRANCH   8  15
ENDBRANCH   1   8
BRANCH   1  17
HETATM   17  O   UNK N   1      -0.834   0.999  -0.780  0.00  0.00    -0.348 OA
BRANCH  17  18
HETATM   18  C   UNK N   1      -1.658  -0.166  -0.893  0.00  0.00     0.292 C 
HETATM   19  C   UNK N   1      -0.974  -1.435  -0.314  0.00  0.00     0.204 C 
HETATM   20  C   UNK N   1      -1.907  -2.640  -0.534  0.00  0.00     0.183 C 
HETATM   21  C   UNK N   1      -3.293  -2.337   0.054  0.00  0.00     0.180 C 
HETATM   22  C   UNK N   1      -3.818  -1.035  -0.582  0.00  0.00     0.179 C 
HETATM   23  O   UNK N   1      -2.938   0.039  -0.306  0.00  0.00    -0.348 OA
BRANCH  19  24
HETATM   24  O   UNK N   1      -0.722  -1.288   1.053  0.00  0.00    -0.388 OA
HETATM   25  H   UNK N   1      -0.546  -1.389   2.001  0.00  0.00     0.210 HD
ENDBRANCH  19  24
BRANCH  20  26
HETATM   26  O   UNK N   1      -1.369  -3.788   0.054  0.00  0.00    -0.390 OA
HETATM   27  H   UNK N   1      -1.873  -4.510   0.462  0.00  0.00     0.210 HD
ENDBRANCH  20  26
BRANCH  21  28
HETATM   28  O   UNK N   1      -4.166  -3.395  -0.218  0.00  0.00    -0.390 OA
HETATM   29  H   UNK N   1      -5.105  -3.237  -0.406  0.00  0.00     0.210 HD
ENDBRANCH  21  28
BRANCH  22  30
HETATM   30  C   UNK N   1      -5.200  -0.672  -0.043  0.00  0.00     0.198 C 
BRANCH  30  31
HETATM   31  O   UNK N   1      -5.141  -0.374   1.321  0.00  0.00    -0.398 OA
HETATM   32  H   UNK N   1      -4.942  -0.306   2.267  0.00  0.00     0.209 HD
ENDBRANCH  30  31
ENDBRANCH  22  30
ENDBRANCH  17  18
ENDBRANCH   1  17
TORSDOF 17
