MODEL 1
REMARK VINA RESULT:      -7.0      0.000      0.000
REMARK  2 active torsions:
REMARK  status: ('A' for Active; 'I' for Inactive)
REMARK    1  A    between atoms: C_4  and  C_7 
REMARK    2  A    between atoms: C_7  and  N_8 
REMARK       I    between atoms: C_17  and  N_18 
ROOT
HETATM    1  N   UNK N   1      29.464  16.929   5.932  0.00  0.00    -0.177 N 
HETATM    2  C   UNK N   1      29.280  17.348   7.201  0.00  0.00     0.079 A 
HETATM    3  C   UNK N   1      28.094  17.544   7.907  0.00  0.00     0.032 A 
HETATM    4  C   UNK N   1      28.188  18.013   9.231  0.00  0.00     0.002 A 
HETATM    5  C   UNK N   1      29.450  18.284   9.807  0.00  0.00     0.002 A 
HETATM    6  C   UNK N   1      30.628  18.091   9.063  0.00  0.00     0.032 A 
HETATM    7  C   UNK N   1      30.494  17.619   7.761  0.00  0.00     0.076 A 
HETATM    8  N   UNK N   1      31.472  17.396   6.869  0.00  0.00    -0.189 N 
ATOM      9  HN  UNK N   1      32.477  17.514   6.998  1.00  0.00     0.184 HD
HETATM   10  C   UNK N   1      30.819  16.976   5.754  0.00  0.00     0.683 A 
HETATM   11  N   UNK N   1      31.508  16.690   4.537  0.00  0.00    -0.214 N 
HETATM   12  C   UNK N   1      32.927  16.957   4.440  0.00  0.00     0.160 C 
HETATM   13  C   UNK N   1      33.638  15.687   3.981  0.00  0.00     0.134 C 
HETATM   14  N   UNK N   1      33.042  15.212   2.730  0.00  0.00    -0.418 N 
HETATM   15  C   UNK N   1      31.640  14.860   2.972  0.00  0.00     0.134 C 
HETATM   16  C   UNK N   1      30.854  16.104   3.391  0.00  0.00     0.160 C 
HETATM   17  H   UNK N   1      33.526  15.137   1.836  0.00  0.00     0.153 HD
ENDROOT
BRANCH   1  18
HETATM   18  C   UNK N   1      28.434  16.605   4.936  0.00  0.00     0.186 C 
BRANCH  18  19
HETATM   19  C   UNK N   1      27.666  17.783   4.402  0.00  0.00    -0.039 A 
HETATM   20  C   UNK N   1      26.387  17.621   3.853  0.00  0.00     0.009 A 
HETATM   21  C   UNK N   1      25.645  18.731   3.440  0.00  0.00     0.001 A 
HETATM   22  C   UNK N   1      26.170  20.016   3.592  0.00  0.00     0.000 A 
HETATM   23  C   UNK N   1      27.439  20.188   4.154  0.00  0.00     0.001 A 
HETATM   24  C   UNK N   1      28.183  19.074   4.563  0.00  0.00     0.009 A 
ENDBRANCH  18  19
ENDBRANCH   1  18
TORSDOF 2
ENDMDL
MODEL 2
REMARK VINA RESULT:      -7.0     10.936     13.017
REMARK  2 active torsions:
REMARK  status: ('A' for Active; 'I' for Inactive)
REMARK    1  A    between atoms: C_4  and  C_7 
REMARK    2  A    between atoms: C_7  and  N_8 
REMARK       I    between atoms: C_17  and  N_18 
ROOT
HETATM    1  N   UNK N   1      35.474  12.663  14.783  0.00  0.00    -0.177 N 
HETATM    2  C   UNK N   1      35.754  13.470  15.826  0.00  0.00     0.079 A 
HETATM    3  C   UNK N   1      35.198  13.491  17.104  0.00  0.00     0.032 A 
HETATM    4  C   UNK N   1      35.665  14.464  18.008  0.00  0.00     0.002 A 
HETATM    5  C   UNK N   1      36.657  15.390  17.614  0.00  0.00     0.002 A 
HETATM    6  C   UNK N   1      37.188  15.352  16.311  0.00  0.00     0.032 A 
HETATM    7  C   UNK N   1      36.706  14.372  15.450  0.00  0.00     0.076 A 
HETATM    8  N   UNK N   1      37.045  14.175  14.166  0.00  0.00    -0.189 N 
ATOM      9  HN  UNK N   1      37.724  14.694  13.611  1.00  0.00     0.184 HD
HETATM   10  C   UNK N   1      36.276  13.124  13.775  0.00  0.00     0.683 A 
HETATM   11  N   UNK N   1      36.291  12.635  12.434  0.00  0.00    -0.214 N 
HETATM   12  C   UNK N   1      37.057  13.336  11.427  0.00  0.00     0.160 C 
HETATM   13  C   UNK N   1      37.999  12.348  10.745  0.00  0.00     0.134 C 
HETATM   14  N   UNK N   1      37.232  11.217  10.219  0.00  0.00    -0.418 N 
HETATM   15  C   UNK N   1      36.596  10.511  11.334  0.00  0.00     0.134 C 
HETATM   16  C   UNK N   1      35.598  11.433  12.036  0.00  0.00     0.160 C 
HETATM   17  H   UNK N   1      37.154  10.962   9.235  0.00  0.00     0.153 HD
ENDROOT
BRANCH   1  18
HETATM   18  C   UNK N   1      34.458  11.605  14.714  0.00  0.00     0.186 C 
BRANCH  18  19
HETATM   19  C   UNK N   1      34.822  10.320  15.405  0.00  0.00    -0.039 A 
HETATM   20  C   UNK N   1      35.540   9.319  14.735  0.00  0.00     0.009 A 
HETATM   21  C   UNK N   1      35.950   8.167  15.411  0.00  0.00     0.001 A 
HETATM   22  C   UNK N   1      35.663   8.015  16.769  0.00  0.00     0.000 A 
HETATM   23  C   UNK N   1      34.962   9.016  17.448  0.00  0.00     0.001 A 
HETATM   24  C   UNK N   1      34.547  10.168  16.769  0.00  0.00     0.009 A 
ENDBRANCH  18  19
ENDBRANCH   1  18
TORSDOF 2
ENDMDL
MODEL 3
REMARK VINA RESULT:      -6.9      2.023      4.888
REMARK  2 active torsions:
REMARK  status: ('A' for Active; 'I' for Inactive)
REMARK    1  A    between atoms: C_4  and  C_7 
REMARK    2  A    between atoms: C_7  and  N_8 
REMARK       I    between atoms: C_17  and  N_18 
ROOT
HETATM    1  N   UNK N   1      28.672  17.335   5.699  0.00  0.00    -0.177 N 
HETATM    2  C   UNK N   1      28.136  18.572   5.699  0.00  0.00     0.079 A 
HETATM    3  C   UNK N   1      28.199  19.566   6.675  0.00  0.00     0.032 A 
HETATM    4  C   UNK N   1      27.524  20.776   6.426  0.00  0.00     0.002 A 
HETATM    5  C   UNK N   1      26.799  20.957   5.226  0.00  0.00     0.002 A 
HETATM    6  C   UNK N   1      26.742  19.929   4.266  0.00  0.00     0.032 A 
HETATM    7  C   UNK N   1      27.428  18.752   4.546  0.00  0.00     0.076 A 
HETATM    8  N   UNK N   1      27.482  17.640   3.796  0.00  0.00    -0.189 N 
ATOM      9  HN  UNK N   1      27.048  17.476   2.888  1.00  0.00     0.184 HD
HETATM   10  C   UNK N   1      28.247  16.783   4.521  0.00  0.00     0.683 A 
HETATM   11  N   UNK N   1      28.497  15.445   4.093  0.00  0.00    -0.214 N 
HETATM   12  C   UNK N   1      27.834  14.938   2.911  0.00  0.00     0.160 C 
HETATM   13  C   UNK N   1      28.886  14.387   1.951  0.00  0.00     0.134 C 
HETATM   14  N   UNK N   1      29.707  13.388   2.639  0.00  0.00    -0.418 N 
HETATM   15  C   UNK N   1      30.422  14.035   3.743  0.00  0.00     0.134 C 
HETATM   16  C   UNK N   1      29.424  14.570   4.771  0.00  0.00     0.160 C 
HETATM   17  H   UNK N   1      29.770  12.402   2.389  0.00  0.00     0.153 HD
ENDROOT
BRANCH   1  18
HETATM   18  C   UNK N   1      29.441  16.690   6.772  0.00  0.00     0.186 C 
BRANCH  18  19
HETATM   19  C   UNK N   1      30.859  17.166   6.918  0.00  0.00    -0.039 A 
HETATM   20  C   UNK N   1      31.364  17.556   8.166  0.00  0.00     0.009 A 
HETATM   21  C   UNK N   1      32.707  17.913   8.310  0.00  0.00     0.001 A 
HETATM   22  C   UNK N   1      33.564  17.862   7.208  0.00  0.00     0.000 A 
HETATM   23  C   UNK N   1      33.072  17.458   5.963  0.00  0.00     0.001 A 
HETATM   24  C   UNK N   1      31.725  17.106   5.819  0.00  0.00     0.009 A 
ENDBRANCH  18  19
ENDBRANCH   1  18
TORSDOF 2
ENDMDL
MODEL 4
REMARK VINA RESULT:      -6.8      3.052      5.844
REMARK  2 active torsions:
REMARK  status: ('A' for Active; 'I' for Inactive)
REMARK    1  A    between atoms: C_4  and  C_7 
REMARK    2  A    between atoms: C_7  and  N_8 
REMARK       I    between atoms: C_17  and  N_18 
ROOT
HETATM    1  N   UNK N   1      32.828  16.365   7.001  0.00  0.00    -0.177 N 
HETATM    2  C   UNK N   1      32.873  16.427   5.654  0.00  0.00     0.079 A 
HETATM    3  C   UNK N   1      32.620  17.505   4.807  0.00  0.00     0.032 A 
HETATM    4  C   UNK N   1      32.720  17.288   3.420  0.00  0.00     0.002 A 
HETATM    5  C   UNK N   1      33.056  16.010   2.918  0.00  0.00     0.002 A 
HETATM    6  C   UNK N   1      33.291  14.938   3.799  0.00  0.00     0.032 A 
HETATM    7  C   UNK N   1      33.189  15.195   5.162  0.00  0.00     0.076 A 
HETATM    8  N   UNK N   1      33.339  14.321   6.170  0.00  0.00    -0.189 N 
ATOM      9  HN  UNK N   1      33.570  13.330   6.111  1.00  0.00     0.184 HD
HETATM   10  C   UNK N   1      33.111  15.058   7.288  0.00  0.00     0.683 A 
HETATM   11  N   UNK N   1      33.112  14.475   8.592  0.00  0.00    -0.214 N 
HETATM   12  C   UNK N   1      33.249  13.042   8.732  0.00  0.00     0.160 C 
HETATM   13  C   UNK N   1      34.406  12.746   9.682  0.00  0.00     0.134 C 
HETATM   14  N   UNK N   1      34.194  13.444  10.952  0.00  0.00    -0.418 N 
HETATM   15  C   UNK N   1      34.190  14.889  10.708  0.00  0.00     0.134 C 
HETATM   16  C   UNK N   1      33.020  15.263   9.797  0.00  0.00     0.160 C 
HETATM   17  H   UNK N   1      34.069  12.996  11.859  0.00  0.00     0.153 HD
ENDROOT
BRANCH   1  18
HETATM   18  C   UNK N   1      32.451  17.434   7.936  0.00  0.00     0.186 C 
BRANCH  18  19
HETATM   19  C   UNK N   1      30.971  17.643   8.107  0.00  0.00    -0.039 A 
HETATM   20  C   UNK N   1      30.049  16.971   7.292  0.00  0.00     0.009 A 
HETATM   21  C   UNK N   1      28.676  17.103   7.515  0.00  0.00     0.001 A 
HETATM   22  C   UNK N   1      28.214  17.894   8.569  0.00  0.00     0.000 A 
HETATM   23  C   UNK N   1      29.128  18.554   9.397  0.00  0.00     0.001 A 
HETATM   24  C   UNK N   1      30.503  18.425   9.170  0.00  0.00     0.009 A 
ENDBRANCH  18  19
ENDBRANCH   1  18
TORSDOF 2
ENDMDL
MODEL 5
REMARK VINA RESULT:      -6.7      2.598      5.653
REMARK  2 active torsions:
REMARK  status: ('A' for Active; 'I' for Inactive)
REMARK    1  A    between atoms: C_4  and  C_7 
REMARK    2  A    between atoms: C_7  and  N_8 
REMARK       I    between atoms: C_17  and  N_18 
ROOT
HETATM    1  N   UNK N   1      31.681  17.097   7.140  0.00  0.00    -0.177 N 
HETATM    2  C   UNK N   1      30.650  17.543   7.886  0.00  0.00     0.079 A 
HETATM    3  C   UNK N   1      30.660  18.374   9.005  0.00  0.00     0.032 A 
HETATM    4  C   UNK N   1      29.426  18.671   9.614  0.00  0.00     0.002 A 
HETATM    5  C   UNK N   1      28.226  18.127   9.103  0.00  0.00     0.002 A 
HETATM    6  C   UNK N   1      28.251  17.278   7.980  0.00  0.00     0.032 A 
HETATM    7  C   UNK N   1      29.489  17.015   7.403  0.00  0.00     0.076 A 
HETATM    8  N   UNK N   1      29.748  16.215   6.356  0.00  0.00    -0.189 N 
ATOM      9  HN  UNK N   1      29.083  15.682   5.796  1.00  0.00     0.184 HD
HETATM   10  C   UNK N   1      31.097  16.277   6.213  0.00  0.00     0.683 A 
HETATM   11  N   UNK N   1      31.790  15.505   5.233  0.00  0.00    -0.214 N 
HETATM   12  C   UNK N   1      31.061  14.542   4.437  0.00  0.00     0.160 C 
HETATM   13  C   UNK N   1      31.322  14.823   2.960  0.00  0.00     0.134 C 
HETATM   14  N   UNK N   1      32.764  14.825   2.704  0.00  0.00    -0.418 N 
HETATM   15  C   UNK N   1      33.383  15.912   3.469  0.00  0.00     0.134 C 
HETATM   16  C   UNK N   1      33.200  15.667   4.968  0.00  0.00     0.160 C 
HETATM   17  H   UNK N   1      33.257  14.176   2.093  0.00  0.00     0.153 HD
ENDROOT
BRANCH   1  18
HETATM   18  C   UNK N   1      33.114  17.346   7.349  0.00  0.00     0.186 C 
BRANCH  18  19
HETATM   19  C   UNK N   1      33.723  16.636   8.527  0.00  0.00    -0.039 A 
HETATM   20  C   UNK N   1      34.707  17.254   9.311  0.00  0.00     0.009 A 
HETATM   21  C   UNK N   1      35.204  16.623  10.454  0.00  0.00     0.001 A 
HETATM   22  C   UNK N   1      34.705  15.376  10.835  0.00  0.00     0.000 A 
HETATM   23  C   UNK N   1      33.712  14.759  10.067  0.00  0.00     0.001 A 
HETATM   24  C   UNK N   1      33.218  15.390   8.919  0.00  0.00     0.009 A 
ENDBRANCH  18  19
ENDBRANCH   1  18
TORSDOF 2
ENDMDL
MODEL 6
REMARK VINA RESULT:      -6.7      2.108      3.299
REMARK  2 active torsions:
REMARK  status: ('A' for Active; 'I' for Inactive)
REMARK    1  A    between atoms: C_4  and  C_7 
REMARK    2  A    between atoms: C_7  and  N_8 
REMARK       I    between atoms: C_17  and  N_18 
ROOT
HETATM    1  N   UNK N   1      30.424  16.563   6.270  0.00  0.00    -0.177 N 
HETATM    2  C   UNK N   1      31.570  17.029   6.805  0.00  0.00     0.079 A 
HETATM    3  C   UNK N   1      31.759  17.883   7.891  0.00  0.00     0.032 A 
HETATM    4  C   UNK N   1      33.079  18.232   8.231  0.00  0.00     0.002 A 
HETATM    5  C   UNK N   1      34.168  17.733   7.480  0.00  0.00     0.002 A 
HETATM    6  C   UNK N   1      33.944  16.884   6.380  0.00  0.00     0.032 A 
HETATM    7  C   UNK N   1      32.625  16.558   6.080  0.00  0.00     0.076 A 
HETATM    8  N   UNK N   1      32.183  15.799   5.065  0.00  0.00    -0.189 N 
ATOM      9  HN  UNK N   1      32.735  15.318   4.355  1.00  0.00     0.184 HD
HETATM   10  C   UNK N   1      30.831  15.817   5.198  0.00  0.00     0.683 A 
HETATM   11  N   UNK N   1      29.970  15.169   4.261  0.00  0.00    -0.214 N 
HETATM   12  C   UNK N   1      30.533  14.567   3.072  0.00  0.00     0.160 C 
HETATM   13  C   UNK N   1      30.076  13.114   2.990  0.00  0.00     0.134 C 
HETATM   14  N   UNK N   1      28.614  13.052   3.044  0.00  0.00    -0.418 N 
HETATM   15  C   UNK N   1      28.161  13.577   4.335  0.00  0.00     0.134 C 
HETATM   16  C   UNK N   1      28.546  15.052   4.464  0.00  0.00     0.160 C 
HETATM   17  H   UNK N   1      28.009  12.699   2.303  0.00  0.00     0.153 HD
ENDROOT
BRANCH   1  18
HETATM   18  C   UNK N   1      29.049  16.880   6.678  0.00  0.00     0.186 C 
BRANCH  18  19
HETATM   19  C   UNK N   1      28.565  18.251   6.296  0.00  0.00    -0.039 A 
HETATM   20  C   UNK N   1      28.494  18.641   4.952  0.00  0.00     0.009 A 
HETATM   21  C   UNK N   1      27.962  19.884   4.599  0.00  0.00     0.001 A 
HETATM   22  C   UNK N   1      27.476  20.740   5.591  0.00  0.00     0.000 A 
HETATM   23  C   UNK N   1      27.528  20.352   6.933  0.00  0.00     0.001 A 
HETATM   24  C   UNK N   1      28.066  19.108   7.285  0.00  0.00     0.009 A 
ENDBRANCH  18  19
ENDBRANCH   1  18
TORSDOF 2
ENDMDL
MODEL 7
REMARK VINA RESULT:      -6.6      9.150     12.070
REMARK  2 active torsions:
REMARK  status: ('A' for Active; 'I' for Inactive)
REMARK    1  A    between atoms: C_4  and  C_7 
REMARK    2  A    between atoms: C_7  and  N_8 
REMARK       I    between atoms: C_17  and  N_18 
ROOT
HETATM    1  N   UNK N   1      35.993  12.937  12.880  0.00  0.00    -0.177 N 
HETATM    2  C   UNK N   1      35.668  14.023  12.149  0.00  0.00     0.079 A 
HETATM    3  C   UNK N   1      36.147  15.329  12.242  0.00  0.00     0.032 A 
HETATM    4  C   UNK N   1      35.617  16.288  11.358  0.00  0.00     0.002 A 
HETATM    5  C   UNK N   1      34.623  15.925  10.421  0.00  0.00     0.002 A 
HETATM    6  C   UNK N   1      34.149  14.601  10.363  0.00  0.00     0.032 A 
HETATM    7  C   UNK N   1      34.703  13.682  11.248  0.00  0.00     0.076 A 
HETATM    8  N   UNK N   1      34.380  12.387  11.388  0.00  0.00    -0.189 N 
ATOM      9  HN  UNK N   1      33.691  11.852  10.859  1.00  0.00     0.184 HD
HETATM   10  C   UNK N   1      35.180  11.949  12.395  0.00  0.00     0.683 A 
HETATM   11  N   UNK N   1      35.100  10.617  12.900  0.00  0.00    -0.214 N 
HETATM   12  C   UNK N   1      34.066   9.729  12.412  0.00  0.00     0.160 C 
HETATM   13  C   UNK N   1      34.716   8.442  11.913  0.00  0.00     0.134 C 
HETATM   14  N   UNK N   1      35.537   7.859  12.975  0.00  0.00    -0.418 N 
HETATM   15  C   UNK N   1      36.619   8.789  13.308  0.00  0.00     0.134 C 
HETATM   16  C   UNK N   1      36.037  10.091  13.863  0.00  0.00     0.160 C 
HETATM   17  H   UNK N   1      35.382   6.951  13.413  0.00  0.00     0.153 HD
ENDROOT
BRANCH   1  18
HETATM   18  C   UNK N   1      36.925  12.863  14.013  0.00  0.00     0.186 C 
BRANCH  18  19
HETATM   19  C   UNK N   1      36.439  13.499  15.286  0.00  0.00    -0.039 A 
HETATM   20  C   UNK N   1      35.434  12.897  16.054  0.00  0.00     0.009 A 
HETATM   21  C   UNK N   1      35.050  13.448  17.280  0.00  0.00     0.001 A 
HETATM   22  C   UNK N   1      35.684  14.597  17.756  0.00  0.00     0.000 A 
HETATM   23  C   UNK N   1      36.699  15.196  17.003  0.00  0.00     0.001 A 
HETATM   24  C   UNK N   1      37.080  14.645  15.773  0.00  0.00     0.009 A 
ENDBRANCH  18  19
ENDBRANCH   1  18
TORSDOF 2
ENDMDL
MODEL 8
REMARK VINA RESULT:      -6.5     11.521     14.621
REMARK  2 active torsions:
REMARK  status: ('A' for Active; 'I' for Inactive)
REMARK    1  A    between atoms: C_4  and  C_7 
REMARK    2  A    between atoms: C_7  and  N_8 
REMARK       I    between atoms: C_17  and  N_18 
ROOT
HETATM    1  N   UNK N   1      27.776  24.145  -6.493  0.00  0.00    -0.177 N 
HETATM    2  C   UNK N   1      27.292  23.029  -7.077  0.00  0.00     0.079 A 
HETATM    3  C   UNK N   1      27.963  21.870  -7.465  0.00  0.00     0.032 A 
HETATM    4  C   UNK N   1      27.212  20.851  -8.080  0.00  0.00     0.002 A 
HETATM    5  C   UNK N   1      25.826  21.019  -8.302  0.00  0.00     0.002 A 
HETATM    6  C   UNK N   1      25.181  22.207  -7.913  0.00  0.00     0.032 A 
HETATM    7  C   UNK N   1      25.956  23.187  -7.302  0.00  0.00     0.076 A 
HETATM    8  N   UNK N   1      25.559  24.399  -6.884  0.00  0.00    -0.189 N 
ATOM      9  HN  UNK N   1      24.623  24.800  -6.925  1.00  0.00     0.184 HD
HETATM   10  C   UNK N   1      26.690  24.971  -6.393  0.00  0.00     0.683 A 
HETATM   11  N   UNK N   1      26.708  26.311  -5.901  0.00  0.00    -0.214 N 
HETATM   12  C   UNK N   1      25.523  27.132  -6.023  0.00  0.00     0.160 C 
HETATM   13  C   UNK N   1      25.160  27.684  -4.648  0.00  0.00     0.134 C 
HETATM   14  N   UNK N   1      26.310  28.392  -4.081  0.00  0.00    -0.418 N 
HETATM   15  C   UNK N   1      27.410  27.443  -3.891  0.00  0.00     0.134 C 
HETATM   16  C   UNK N   1      27.857  26.883  -5.243  0.00  0.00     0.160 C 
HETATM   17  H   UNK N   1      26.340  29.386  -3.854  0.00  0.00     0.153 HD
ENDROOT
BRANCH   1  18
HETATM   18  C   UNK N   1      29.172  24.444  -6.147  0.00  0.00     0.186 C 
BRANCH  18  19
HETATM   19  C   UNK N   1      29.687  23.760  -4.911  0.00  0.00    -0.039 A 
HETATM   20  C   UNK N   1      31.000  23.275  -4.849  0.00  0.00     0.009 A 
HETATM   21  C   UNK N   1      31.498  22.720  -3.667  0.00  0.00     0.001 A 
HETATM   22  C   UNK N   1      30.690  22.663  -2.529  0.00  0.00     0.000 A 
HETATM   23  C   UNK N   1      29.384  23.160  -2.578  0.00  0.00     0.001 A 
HETATM   24  C   UNK N   1      28.885  23.711  -3.764  0.00  0.00     0.009 A 
ENDBRANCH  18  19
ENDBRANCH   1  18
TORSDOF 2
ENDMDL
MODEL 9
REMARK VINA RESULT:      -6.4     11.514     14.226
REMARK  2 active torsions:
REMARK  status: ('A' for Active; 'I' for Inactive)
REMARK    1  A    between atoms: C_4  and  C_7 
REMARK    2  A    between atoms: C_7  and  N_8 
REMARK       I    between atoms: C_17  and  N_18 
ROOT
HETATM    1  N   UNK N   1      35.817  11.191  15.543  0.00  0.00    -0.177 N 
HETATM    2  C   UNK N   1      35.646  11.599  16.817  0.00  0.00     0.079 A 
HETATM    3  C   UNK N   1      35.653  10.852  17.995  0.00  0.00     0.032 A 
HETATM    4  C   UNK N   1      35.425  11.533  19.206  0.00  0.00     0.002 A 
HETATM    5  C   UNK N   1      35.186  12.927  19.209  0.00  0.00     0.002 A 
HETATM    6  C   UNK N   1      35.170  13.649  18.002  0.00  0.00     0.032 A 
HETATM    7  C   UNK N   1      35.407  12.942  16.828  0.00  0.00     0.076 A 
HETATM    8  N   UNK N   1      35.406  13.418  15.573  0.00  0.00    -0.189 N 
ATOM      9  HN  UNK N   1      35.252  14.379  15.268  1.00  0.00     0.184 HD
HETATM   10  C   UNK N   1      35.657  12.329  14.801  0.00  0.00     0.683 A 
HETATM   11  N   UNK N   1      35.676  12.401  13.375  0.00  0.00    -0.214 N 
HETATM   12  C   UNK N   1      35.310  13.637  12.718  0.00  0.00     0.160 C 
HETATM   13  C   UNK N   1      36.430  14.039  11.763  0.00  0.00     0.134 C 
HETATM   14  N   UNK N   1      36.708  12.940  10.836  0.00  0.00    -0.418 N 
HETATM   15  C   UNK N   1      37.182  11.781  11.597  0.00  0.00     0.134 C 
HETATM   16  C   UNK N   1      36.085  11.294  12.545  0.00  0.00     0.160 C 
HETATM   17  H   UNK N   1      36.591  12.976   9.824  0.00  0.00     0.153 HD
ENDROOT
BRANCH   1  18
HETATM   18  C   UNK N   1      36.018   9.819  15.059  0.00  0.00     0.186 C 
BRANCH  18  19
HETATM   19  C   UNK N   1      37.372   9.230  15.342  0.00  0.00    -0.039 A 
HETATM   20  C   UNK N   1      37.515   8.128  16.196  0.00  0.00     0.009 A 
HETATM   21  C   UNK N   1      38.765   7.533  16.386  0.00  0.00     0.001 A 
HETATM   22  C   UNK N   1      39.881   8.024  15.705  0.00  0.00     0.000 A 
HETATM   23  C   UNK N   1      39.744   9.113  14.838  0.00  0.00     0.001 A 
HETATM   24  C   UNK N   1      38.492   9.712  14.653  0.00  0.00     0.009 A 
ENDBRANCH  18  19
ENDBRANCH   1  18
TORSDOF 2
ENDMDL
