MODEL 1
REMARK VINA RESULT:      -6.5      0.000      0.000
REMARK WARNING: 32 MAX_TORS EXCEEDED!!!
REMARK  38 active torsions:
REMARK  status: ('A' for Active; 'I' for Inactive)
REMARK    1  A    between atoms: C_2  and  C_3 
REMARK    2  A    between atoms: C_2  and  N_18 
REMARK       I    between atoms: C_3  and  N_5 
REMARK    3  A    between atoms: C_6  and  N_5 
REMARK    4  A    between atoms: C_6  and  C_7 
REMARK    5  A    between atoms: C_6  and  C_15 
REMARK    6  A    between atoms: C_7  and  C_8 
REMARK    7  A    between atoms: C_8  and  C_9 
REMARK    8  A    between atoms: C_9  and  N_10 
REMARK       I    between atoms: N_10  and  C_11 
REMARK       I    between atoms: C_11  and  N_14 
REMARK       I    between atoms: C_15  and  N_17 
REMARK       I    between atoms: N_18  and  C_19 
REMARK    9  A    between atoms: C_19  and  C_21 
REMARK   10  A    between atoms: C_21  and  C_22 
REMARK   11  A    between atoms: C_21  and  N_30 
REMARK   12  A    between atoms: C_22  and  C_23 
REMARK   13  A    between atoms: C_23  and  C_24 
REMARK   14  A    between atoms: C_24  and  N_25 
REMARK       I    between atoms: N_25  and  C_26 
REMARK       I    between atoms: C_26  and  N_29 
REMARK       I    between atoms: N_30  and  C_31 
REMARK   15  A    between atoms: C_31  and  C_33 
REMARK   16  A    between atoms: C_33  and  C_34 
REMARK   17  A    between atoms: C_33  and  N_42 
REMARK   18  A    between atoms: C_34  and  C_35 
REMARK   19  A    between atoms: C_35  and  C_36 
REMARK   20  A    between atoms: C_36  and  N_37 
REMARK       I    between atoms: N_37  and  C_38 
REMARK       I    between atoms: C_38  and  N_41 
REMARK       I    between atoms: N_42  and  C_43 
REMARK   21  A    between atoms: C_43  and  C_45 
REMARK   22  A    between atoms: C_45  and  C_46 
REMARK   23  A    between atoms: C_45  and  N_54 
REMARK   24  A    between atoms: C_46  and  C_47 
REMARK   25  A    between atoms: C_47  and  C_48 
REMARK   26  A    between atoms: C_48  and  N_49 
REMARK       I    between atoms: N_49  and  C_50 
REMARK       I    between atoms: C_50  and  N_53 
REMARK       I    between atoms: N_54  and  C_55 
REMARK   27  A    between atoms: C_55  and  C_57 
REMARK   28  A    between atoms: C_57  and  N_59 
REMARK       I    between atoms: N_59  and  C_60 
REMARK   29  A    between atoms: C_60  and  C_62 
REMARK   30  A    between atoms: C_62  and  C_63 
REMARK   31  A    between atoms: C_62  and  N_72 
REMARK   32  A    between atoms: C_63  and  S_64 
REMARK   33  A    between atoms: S_64  and  S_65 
REMARK   34  A    between atoms: S_65  and  C_66 
REMARK   35  A    between atoms: C_66  and  C_67 
REMARK   36  A    between atoms: C_67  and  C_68 
REMARK   37  A    between atoms: C_67  and  N_71 
REMARK   38  A    between atoms: C_68  and  O_70 
REMARK       I    between atoms: N_72  and  C_73 
ROOT
HETATM    1  C   UNK N   1      24.736  17.535   4.163  0.00  0.00     0.176 C 
ENDROOT
BRANCH   1   2
HETATM    2  C   UNK N   1      25.844  16.564   3.811  0.00  0.00     0.241 C 
HETATM    3  N   UNK N   1      26.712  16.163   4.778  0.00  0.00    -0.346 N 
HETATM    4  H   UNK N   1      27.376  15.472   4.551  0.00  0.00     0.163 HD
HETATM    5  O   UNK N   1      25.940  16.104   2.691  0.00  0.00    -0.271 OA
BRANCH   3   6
HETATM    6  C   UNK N   1      26.711  16.702   6.127  0.00  0.00     0.176 C 
BRANCH   6   7
HETATM    7  C   UNK N   1      28.000  17.431   6.425  0.00  0.00     0.241 C 
HETATM    8  N   UNK N   1      28.555  17.283   7.663  0.00  0.00    -0.346 N 
HETATM    9  H   UNK N   1      28.204  16.555   8.225  0.00  0.00     0.163 HD
HETATM   10  O   UNK N   1      28.484  18.184   5.600  0.00  0.00    -0.271 OA
BRANCH   8  11
HETATM   11  C   UNK N   1      29.603  18.090   8.221  0.00  0.00     0.172 C 
HETATM   12  C   UNK N   1      29.320  18.507   9.656  0.00  0.00     0.042 C 
BRANCH  11  13
HETATM   13  C   UNK N   1      30.871  17.332   8.066  0.00  0.00     0.240 C 
HETATM   14  O   UNK N   1      30.828  16.132   7.822  0.00  0.00    -0.271 OA
HETATM   15  N   UNK N   1      32.059  17.990   8.080  0.00  0.00    -0.346 N 
HETATM   16  H   UNK N   1      32.076  18.947   8.309  0.00  0.00     0.163 HD
BRANCH  15  17
HETATM   17  C   UNK N   1      33.303  17.315   7.765  0.00  0.00     0.176 C 
BRANCH  17  18
HETATM   18  C   UNK N   1      33.661  17.622   6.298  0.00  0.00     0.036 C 
BRANCH  18  19
HETATM   19  C   UNK N   1      33.180  16.610   5.261  0.00  0.00     0.023 C 
BRANCH  19  20
HETATM   20  C   UNK N   1      31.923  17.074   4.542  0.00  0.00     0.138 C 
BRANCH  20  21
HETATM   21  N   UNK N   1      31.373  15.977   3.789  0.00  0.00    -0.227 N 
HETATM   22  C   UNK N   1      30.091  16.044   3.193  0.00  0.00     0.665 C 
HETATM   23  N   UNK N   1      29.507  17.174   3.020  0.00  0.00    -0.235 N 
HETATM   24  N   UNK N   1      29.409  14.848   2.887  0.00  0.00    -0.235 N 
HETATM   25  H   UNK N   1      28.680  17.707   3.034  0.00  0.00     0.174 HD
ATOM     26  HN  UNK N   1      30.243  17.819   2.738  1.00  0.00     0.174 HD
HETATM   27  H   UNK N   1      29.443  13.989   3.367  0.00  0.00     0.174 HD
HETATM   28  H   UNK N   1      28.824  14.876   2.096  0.00  0.00     0.174 HD
HETATM   29  H   UNK N   1      31.905  15.155   3.687  0.00  0.00     0.177 HD
ENDBRANCH  20  21
ENDBRANCH  19  20
ENDBRANCH  18  19
ENDBRANCH  17  18
BRANCH  17  30
HETATM   30  C   UNK N   1      34.351  17.683   8.800  0.00  0.00     0.238 C 
HETATM   31  O   UNK N   1      35.135  18.598   8.606  0.00  0.00    -0.271 OA
HETATM   32  N   UNK N   1      34.419  16.987   9.953  0.00  0.00    -0.368 N 
HETATM   33  H   UNK N   1      34.890  16.209  10.329  0.00  0.00     0.159 HD
HETATM   34  H   UNK N   1      33.813  17.377  10.623  0.00  0.00     0.159 HD
ENDBRANCH  17  30
ENDBRANCH  15  17
ENDBRANCH  11  13
ENDBRANCH   8  11
ENDBRANCH   6   7
BRANCH   6  35
HETATM   35  C   UNK N   1      26.599  15.541   7.111  0.00  0.00     0.036 C 
BRANCH  35  36
HETATM   36  C   UNK N   1      25.219  14.889   7.028  0.00  0.00     0.023 C 
BRANCH  36  37
HETATM   37  C   UNK N   1      25.279  13.469   7.569  0.00  0.00     0.138 C 
BRANCH  37  38
HETATM   38  N   UNK N   1      24.168  13.246   8.456  0.00  0.00    -0.227 N 
HETATM   39  C   UNK N   1      24.330  13.182   9.866  0.00  0.00     0.665 C 
HETATM   40  N   UNK N   1      25.481  13.364  10.403  0.00  0.00    -0.235 N 
HETATM   41  N   UNK N   1      23.231  12.835  10.676  0.00  0.00    -0.235 N 
HETATM   42  H   UNK N   1      25.933  13.584  11.251  0.00  0.00     0.174 HD
ATOM     43  HN  UNK N   1      26.193  13.233   9.686  1.00  0.00     0.174 HD
HETATM   44  H   UNK N   1      22.799  11.957  10.569  0.00  0.00     0.174 HD
HETATM   45  H   UNK N   1      22.895  13.469  11.348  0.00  0.00     0.174 HD
HETATM   46  H   UNK N   1      23.267  13.136   8.074  0.00  0.00     0.177 HD
ENDBRANCH  37  38
ENDBRANCH  36  37
ENDBRANCH  35  36
ENDBRANCH   6  35
ENDBRANCH   3   6
ENDBRANCH   1   2
BRANCH   1  47
HETATM   47  C   UNK N   1      24.809  18.855   3.411  0.00  0.00     0.036 C 
BRANCH  47  48
HETATM   48  C   UNK N   1      26.244  19.330   3.396  0.00  0.00     0.023 C 
BRANCH  48  49
HETATM   49  C   UNK N   1      26.353  20.617   4.182  0.00  0.00     0.138 C 
BRANCH  49  50
HETATM   50  N   UNK N   1      25.997  20.367   5.556  0.00  0.00    -0.227 N 
HETATM   51  C   UNK N   1      26.729  20.930   6.628  0.00  0.00     0.665 C 
HETATM   52  N   UNK N   1      27.718  21.717   6.404  0.00  0.00    -0.235 N 
HETATM   53  N   UNK N   1      26.363  20.629   7.958  0.00  0.00    -0.235 N 
HETATM   54  H   UNK N   1      27.870  22.502   6.978  0.00  0.00     0.174 HD
ATOM     55  HN  UNK N   1      28.350  21.527   5.626  1.00  0.00     0.174 HD
HETATM   56  H   UNK N   1      26.157  19.758   8.366  0.00  0.00     0.174 HD
HETATM   57  H   UNK N   1      26.303  21.403   8.563  0.00  0.00     0.174 HD
HETATM   58  H   UNK N   1      25.224  19.789   5.753  0.00  0.00     0.177 HD
ENDBRANCH  49  50
ENDBRANCH  48  49
ENDBRANCH  47  48
ENDBRANCH   1  47
BRANCH   1  59
HETATM   59  N   UNK N   1      23.508  16.811   3.949  0.00  0.00    -0.346 N 
HETATM   60  C   UNK N   1      22.471  17.005   4.789  0.00  0.00     0.241 C 
HETATM   61  O   UNK N   1      22.661  17.467   5.911  0.00  0.00    -0.271 OA
HETATM   62  H   UNK N   1      23.427  16.182   3.196  0.00  0.00     0.163 HD
BRANCH  60  63
HETATM   63  C   UNK N   1      21.091  16.933   4.266  0.00  0.00     0.176 C 
BRANCH  63  64
HETATM   64  C   UNK N   1      20.240  17.104   5.534  0.00  0.00     0.036 C 
BRANCH  64  65
HETATM   65  C   UNK N   1      19.592  15.869   6.109  0.00  0.00     0.023 C 
BRANCH  65  66
HETATM   66  C   UNK N   1      20.015  15.769   7.572  0.00  0.00     0.138 C 
BRANCH  66  67
HETATM   67  N   UNK N   1      20.230  17.079   8.146  0.00  0.00    -0.227 N 
HETATM   68  C   UNK N   1      19.267  17.684   8.996  0.00  0.00     0.665 C 
HETATM   69  N   UNK N   1      18.185  17.065   9.300  0.00  0.00    -0.235 N 
HETATM   70  N   UNK N   1      19.520  18.957   9.548  0.00  0.00    -0.235 N 
HETATM   71  H   UNK N   1      17.450  17.499   9.792  0.00  0.00     0.174 HD
ATOM     72  HN  UNK N   1      18.083  16.089   9.022  1.00  0.00     0.174 HD
HETATM   73  H   UNK N   1      20.282  19.498   9.239  0.00  0.00     0.174 HD
HETATM   74  H   UNK N   1      18.928  19.310  10.251  0.00  0.00     0.174 HD
HETATM   75  H   UNK N   1      21.062  17.562   7.941  0.00  0.00     0.177 HD
ENDBRANCH  66  67
ENDBRANCH  65  66
ENDBRANCH  64  65
ENDBRANCH  63  64
BRANCH  63  76
HETATM   76  N   UNK N   1      21.008  15.644   3.621  0.00  0.00    -0.346 N 
HETATM   77  C   UNK N   1      20.560  15.424   2.359  0.00  0.00     0.240 C 
HETATM   78  O   UNK N   1      20.467  16.327   1.541  0.00  0.00    -0.271 OA
HETATM   79  H   UNK N   1      21.299  14.860   4.140  0.00  0.00     0.163 HD
BRANCH  77  80
HETATM   80  C   UNK N   1      20.053  14.080   2.012  0.00  0.00     0.172 C 
HETATM   81  C   UNK N   1      19.219  14.154   0.747  0.00  0.00     0.042 C 
BRANCH  80  82
HETATM   82  N   UNK N   1      19.249  13.567   3.089  0.00  0.00    -0.346 N 
HETATM   83  C   UNK N   1      19.499  12.365   3.651  0.00  0.00     0.241 C 
HETATM   84  O   UNK N   1      18.764  11.955   4.535  0.00  0.00    -0.271 OA
HETATM   85  H   UNK N   1      18.497  14.107   3.425  0.00  0.00     0.163 HD
BRANCH  83  86
HETATM   86  C   UNK N   1      20.676  11.528   3.220  0.00  0.00     0.186 C 
BRANCH  86  87
HETATM   87  C   UNK N   1      21.585  11.173   4.400  0.00  0.00     0.120 C 
BRANCH  87  88
HETATM   88  S   UNK N   1      22.063  12.635   5.374  0.00  0.00    -0.095 SA
BRANCH  88  89
HETATM   89  S   UNK N   1      23.548  13.159   3.956  0.00  0.00    -0.095 SA
BRANCH  89  90
HETATM   90  C   UNK N   1      24.597  11.760   4.470  0.00  0.00     0.121 C 
BRANCH  90  91
HETATM   91  C   UNK N   1      25.741  11.527   3.495  0.00  0.00     0.183 C 
BRANCH  91  92
HETATM   92  C   UNK N   1      26.628  12.739   3.396  0.00  0.00     0.163 C 
HETATM   93  O   UNK N   1      27.157  13.206   4.392  0.00  0.00    -0.648 OA
BRANCH  92  94
HETATM   94  O   UNK N   1      26.842  13.314   2.197  0.00  0.00    -0.775 OA
HETATM   95  H   UNK N   1      26.582  14.198   2.028  0.00  0.00     0.167 HD
ENDBRANCH  92  94
ENDBRANCH  91  92
BRANCH  91  96
HETATM   96  N   UNK N   1      25.211  11.139   2.196  0.00  0.00    -0.417 N 
HETATM   97  H   UNK N   1      24.507  11.700   1.716  0.00  0.00     0.150 HD
HETATM   98  H   UNK N   1      25.551  10.284   1.755  0.00  0.00     0.150 HD
ENDBRANCH  91  96
ENDBRANCH  90  91
ENDBRANCH  89  90
ENDBRANCH  88  89
ENDBRANCH  87  88
ENDBRANCH  86  87
BRANCH  86  99
HETATM   99  N   UNK N   1      20.190  10.303   2.629  0.00  0.00    -0.347 N 
HETATM  100  C   UNK N   1      20.208  10.074   1.297  0.00  0.00     0.214 C 
HETATM  101  O   UNK N   1      20.646  10.913   0.526  0.00  0.00    -0.274 OA
HETATM  102  C   UNK N   1      19.683   8.785   0.770  0.00  0.00     0.117 C 
HETATM  103  H   UNK N   1      19.831   9.604   3.222  0.00  0.00     0.163 HD
ENDBRANCH  86  99
ENDBRANCH  83  86
ENDBRANCH  80  82
ENDBRANCH  77  80
ENDBRANCH  63  76
ENDBRANCH  60  63
ENDBRANCH   1  59
TORSDOF 38
ENDMDL
MODEL 2
REMARK VINA RESULT:      -6.5      3.401     10.636
REMARK WARNING: 32 MAX_TORS EXCEEDED!!!
REMARK  38 active torsions:
REMARK  status: ('A' for Active; 'I' for Inactive)
REMARK    1  A    between atoms: C_2  and  C_3 
REMARK    2  A    between atoms: C_2  and  N_18 
REMARK       I    between atoms: C_3  and  N_5 
REMARK    3  A    between atoms: C_6  and  N_5 
REMARK    4  A    between atoms: C_6  and  C_7 
REMARK    5  A    between atoms: C_6  and  C_15 
REMARK    6  A    between atoms: C_7  and  C_8 
REMARK    7  A    between atoms: C_8  and  C_9 
REMARK    8  A    between atoms: C_9  and  N_10 
REMARK       I    between atoms: N_10  and  C_11 
REMARK       I    between atoms: C_11  and  N_14 
REMARK       I    between atoms: C_15  and  N_17 
REMARK       I    between atoms: N_18  and  C_19 
REMARK    9  A    between atoms: C_19  and  C_21 
REMARK   10  A    between atoms: C_21  and  C_22 
REMARK   11  A    between atoms: C_21  and  N_30 
REMARK   12  A    between atoms: C_22  and  C_23 
REMARK   13  A    between atoms: C_23  and  C_24 
REMARK   14  A    between atoms: C_24  and  N_25 
REMARK       I    between atoms: N_25  and  C_26 
REMARK       I    between atoms: C_26  and  N_29 
REMARK       I    between atoms: N_30  and  C_31 
REMARK   15  A    between atoms: C_31  and  C_33 
REMARK   16  A    between atoms: C_33  and  C_34 
REMARK   17  A    between atoms: C_33  and  N_42 
REMARK   18  A    between atoms: C_34  and  C_35 
REMARK   19  A    between atoms: C_35  and  C_36 
REMARK   20  A    between atoms: C_36  and  N_37 
REMARK       I    between atoms: N_37  and  C_38 
REMARK       I    between atoms: C_38  and  N_41 
REMARK       I    between atoms: N_42  and  C_43 
REMARK   21  A    between atoms: C_43  and  C_45 
REMARK   22  A    between atoms: C_45  and  C_46 
REMARK   23  A    between atoms: C_45  and  N_54 
REMARK   24  A    between atoms: C_46  and  C_47 
REMARK   25  A    between atoms: C_47  and  C_48 
REMARK   26  A    between atoms: C_48  and  N_49 
REMARK       I    between atoms: N_49  and  C_50 
REMARK       I    between atoms: C_50  and  N_53 
REMARK       I    between atoms: N_54  and  C_55 
REMARK   27  A    between atoms: C_55  and  C_57 
REMARK   28  A    between atoms: C_57  and  N_59 
REMARK       I    between atoms: N_59  and  C_60 
REMARK   29  A    between atoms: C_60  and  C_62 
REMARK   30  A    between atoms: C_62  and  C_63 
REMARK   31  A    between atoms: C_62  and  N_72 
REMARK   32  A    between atoms: C_63  and  S_64 
REMARK   33  A    between atoms: S_64  and  S_65 
REMARK   34  A    between atoms: S_65  and  C_66 
REMARK   35  A    between atoms: C_66  and  C_67 
REMARK   36  A    between atoms: C_67  and  C_68 
REMARK   37  A    between atoms: C_67  and  N_71 
REMARK   38  A    between atoms: C_68  and  O_70 
REMARK       I    between atoms: N_72  and  C_73 
ROOT
HETATM    1  C   UNK N   1      26.720  15.211   4.736  0.00  0.00     0.176 C 
ENDROOT
BRANCH   1   2
HETATM    2  C   UNK N   1      26.424  15.458   6.201  0.00  0.00     0.241 C 
HETATM    3  N   UNK N   1      25.366  14.834   6.783  0.00  0.00    -0.346 N 
HETATM    4  H   UNK N   1      25.235  14.944   7.753  0.00  0.00     0.163 HD
HETATM    5  O   UNK N   1      27.145  16.170   6.873  0.00  0.00    -0.271 OA
BRANCH   3   6
HETATM    6  C   UNK N   1      24.418  14.015   6.048  0.00  0.00     0.176 C 
BRANCH   6   7
HETATM    7  C   UNK N   1      23.157  14.786   5.736  0.00  0.00     0.241 C 
HETATM    8  N   UNK N   1      22.674  15.647   6.679  0.00  0.00    -0.346 N 
HETATM    9  H   UNK N   1      23.276  15.875   7.423  0.00  0.00     0.163 HD
HETATM   10  O   UNK N   1      22.556  14.584   4.696  0.00  0.00    -0.271 OA
BRANCH   8  11
HETATM   11  C   UNK N   1      21.372  16.250   6.686  0.00  0.00     0.172 C 
HETATM   12  C   UNK N   1      20.729  16.241   8.063  0.00  0.00     0.042 C 
BRANCH  11  13
HETATM   13  C   UNK N   1      21.515  17.612   6.110  0.00  0.00     0.240 C 
HETATM   14  O   UNK N   1      21.355  18.589   6.831  0.00  0.00    -0.271 OA
HETATM   15  N   UNK N   1      21.934  17.764   4.828  0.00  0.00    -0.346 N 
HETATM   16  H   UNK N   1      22.027  16.969   4.254  0.00  0.00     0.163 HD
BRANCH  15  17
HETATM   17  C   UNK N   1      22.248  19.070   4.283  0.00  0.00     0.176 C 
BRANCH  17  18
HETATM   18  C   UNK N   1      23.600  18.976   3.550  0.00  0.00     0.036 C 
BRANCH  18  19
HETATM   19  C   UNK N   1      24.479  20.224   3.597  0.00  0.00     0.023 C 
BRANCH  19  20
HETATM   20  C   UNK N   1      25.796  19.975   4.316  0.00  0.00     0.138 C 
BRANCH  20  21
HETATM   21  N   UNK N   1      25.588  20.075   5.737  0.00  0.00    -0.227 N 
HETATM   22  C   UNK N   1      26.442  20.839   6.569  0.00  0.00     0.665 C 
HETATM   23  N   UNK N   1      27.227  21.721   6.067  0.00  0.00    -0.235 N 
HETATM   24  N   UNK N   1      26.503  20.547   7.947  0.00  0.00    -0.235 N 
HETATM   25  H   UNK N   1      28.105  22.166   6.065  0.00  0.00     0.174 HD
ATOM     26  HN  UNK N   1      26.693  22.168   5.324  1.00  0.00     0.174 HD
HETATM   27  H   UNK N   1      26.400  19.673   8.389  0.00  0.00     0.174 HD
HETATM   28  H   UNK N   1      26.671  21.314   8.542  0.00  0.00     0.174 HD
HETATM   29  H   UNK N   1      24.829  19.596   6.142  0.00  0.00     0.177 HD
ENDBRANCH  20  21
ENDBRANCH  19  20
ENDBRANCH  18  19
ENDBRANCH  17  18
BRANCH  17  30
HETATM   30  C   UNK N   1      21.074  19.566   3.456  0.00  0.00     0.238 C 
HETATM   31  O   UNK N   1      20.387  20.502   3.833  0.00  0.00    -0.271 OA
HETATM   32  N   UNK N   1      20.783  18.961   2.287  0.00  0.00    -0.368 N 
HETATM   33  H   UNK N   1      20.212  18.237   1.942  0.00  0.00     0.159 HD
HETATM   34  H   UNK N   1      21.299  19.369   1.555  0.00  0.00     0.159 HD
ENDBRANCH  17  30
ENDBRANCH  15  17
ENDBRANCH  11  13
ENDBRANCH   8  11
ENDBRANCH   6   7
BRANCH   6  35
HETATM   35  C   UNK N   1      24.027  12.826   6.922  0.00  0.00     0.036 C 
BRANCH  35  36
HETATM   36  C   UNK N   1      24.433  13.064   8.377  0.00  0.00     0.023 C 
BRANCH  36  37
HETATM   37  C   UNK N   1      23.196  13.263   9.238  0.00  0.00     0.138 C 
BRANCH  37  38
HETATM   38  N   UNK N   1      23.567  13.216  10.628  0.00  0.00    -0.227 N 
HETATM   39  C   UNK N   1      23.276  12.092  11.447  0.00  0.00     0.665 C 
HETATM   40  N   UNK N   1      22.703  11.054  10.958  0.00  0.00    -0.235 N 
HETATM   41  N   UNK N   1      23.546  12.152  12.829  0.00  0.00    -0.235 N 
HETATM   42  H   UNK N   1      22.533  10.096  11.114  0.00  0.00     0.174 HD
ATOM     43  HN  UNK N   1      22.259  11.318  10.079  1.00  0.00     0.174 HD
HETATM   44  H   UNK N   1      23.097  12.825  13.389  0.00  0.00     0.174 HD
HETATM   45  H   UNK N   1      24.185  11.523  13.232  0.00  0.00     0.174 HD
HETATM   46  H   UNK N   1      24.037  13.986  11.023  0.00  0.00     0.177 HD
ENDBRANCH  37  38
ENDBRANCH  36  37
ENDBRANCH  35  36
ENDBRANCH   6  35
ENDBRANCH   3   6
ENDBRANCH   1   2
BRANCH   1  47
HETATM   47  C   UNK N   1      26.210  16.303   3.810  0.00  0.00     0.036 C 
BRANCH  47  48
HETATM   48  C   UNK N   1      26.203  15.778   2.392  0.00  0.00     0.023 C 
BRANCH  48  49
HETATM   49  C   UNK N   1      25.160  14.691   2.266  0.00  0.00     0.138 C 
BRANCH  49  50
HETATM   50  N   UNK N   1      25.811  13.438   1.978  0.00  0.00    -0.227 N 
HETATM   51  C   UNK N   1      25.185  12.436   1.199  0.00  0.00     0.665 C 
HETATM   52  N   UNK N   1      24.022  12.633   0.692  0.00  0.00    -0.235 N 
HETATM   53  N   UNK N   1      25.849  11.212   0.971  0.00  0.00    -0.235 N 
HETATM   54  H   UNK N   1      23.810  12.300  -0.210  0.00  0.00     0.174 HD
ATOM     55  HN  UNK N   1      23.315  13.137   1.227  1.00  0.00     0.174 HD
HETATM   56  H   UNK N   1      26.314  10.626   1.611  0.00  0.00     0.174 HD
HETATM   57  H   UNK N   1      25.847  10.899   0.038  0.00  0.00     0.174 HD
HETATM   58  H   UNK N   1      26.716  13.275   2.333  0.00  0.00     0.177 HD
ENDBRANCH  49  50
ENDBRANCH  48  49
ENDBRANCH  47  48
ENDBRANCH   1  47
BRANCH   1  59
HETATM   59  N   UNK N   1      28.144  15.003   4.661  0.00  0.00    -0.346 N 
HETATM   60  C   UNK N   1      28.618  13.849   4.148  0.00  0.00     0.241 C 
HETATM   61  O   UNK N   1      27.903  12.852   4.103  0.00  0.00    -0.271 OA
HETATM   62  H   UNK N   1      28.765  15.697   4.980  0.00  0.00     0.163 HD
BRANCH  60  63
HETATM   63  C   UNK N   1      29.884  13.861   3.387  0.00  0.00     0.176 C 
BRANCH  63  64
HETATM   64  C   UNK N   1      29.745  12.626   2.483  0.00  0.00     0.036 C 
BRANCH  64  65
HETATM   65  C   UNK N   1      29.362  12.859   1.042  0.00  0.00     0.023 C 
BRANCH  65  66
HETATM   66  C   UNK N   1      30.170  11.885   0.189  0.00  0.00     0.138 C 
BRANCH  66  67
HETATM   67  N   UNK N   1      29.916  12.088  -1.220  0.00  0.00    -0.227 N 
HETATM   68  C   UNK N   1      30.303  11.126  -2.190  0.00  0.00     0.665 C 
HETATM   69  N   UNK N   1      30.870  10.032  -1.834  0.00  0.00    -0.235 N 
HETATM   70  N   UNK N   1      30.025  11.354  -3.554  0.00  0.00    -0.235 N 
HETATM   71  H   UNK N   1      31.251   9.399  -2.485  0.00  0.00     0.174 HD
ATOM     72  HN  UNK N   1      30.927   9.809  -0.839  1.00  0.00     0.174 HD
HETATM   73  H   UNK N   1      29.701  12.231  -3.862  0.00  0.00     0.174 HD
HETATM   74  H   UNK N   1      30.156  10.628  -4.206  0.00  0.00     0.174 HD
HETATM   75  H   UNK N   1      29.465  12.912  -1.513  0.00  0.00     0.177 HD
ENDBRANCH  66  67
ENDBRANCH  65  66
ENDBRANCH  64  65
ENDBRANCH  63  64
BRANCH  63  76
HETATM   76  N   UNK N   1      30.919  13.792   4.392  0.00  0.00    -0.346 N 
HETATM   77  C   UNK N   1      32.243  13.995   4.171  0.00  0.00     0.240 C 
HETATM   78  O   UNK N   1      32.650  14.551   3.162  0.00  0.00    -0.271 OA
HETATM   79  H   UNK N   1      30.642  13.579   5.311  0.00  0.00     0.163 HD
BRANCH  77  80
HETATM   80  C   UNK N   1      33.215  13.412   5.118  0.00  0.00     0.172 C 
HETATM   81  C   UNK N   1      33.790  12.131   4.545  0.00  0.00     0.042 C 
BRANCH  80  82
HETATM   82  N   UNK N   1      32.570  13.132   6.373  0.00  0.00    -0.346 N 
HETATM   83  C   UNK N   1      32.925  13.764   7.511  0.00  0.00     0.241 C 
HETATM   84  O   UNK N   1      32.376  13.462   8.558  0.00  0.00    -0.271 OA
HETATM   85  H   UNK N   1      31.850  12.461   6.401  0.00  0.00     0.163 HD
BRANCH  83  86
HETATM   86  C   UNK N   1      33.976  14.846   7.512  0.00  0.00     0.186 C 
BRANCH  86  87
HETATM   87  C   UNK N   1      33.411  16.186   7.989  0.00  0.00     0.120 C 
BRANCH  87  88
HETATM   88  S   UNK N   1      33.255  17.396   6.638  0.00  0.00    -0.095 SA
BRANCH  88  89
HETATM   89  S   UNK N   1      31.205  16.926   6.384  0.00  0.00    -0.095 SA
BRANCH  89  90
HETATM   90  C   UNK N   1      30.868  17.231   8.149  0.00  0.00     0.121 C 
BRANCH  90  91
HETATM   91  C   UNK N   1      29.687  18.169   8.343  0.00  0.00     0.183 C 
BRANCH  91  92
HETATM   92  C   UNK N   1      28.765  17.666   9.422  0.00  0.00     0.163 C 
HETATM   93  O   UNK N   1      29.187  16.954  10.319  0.00  0.00    -0.648 OA
BRANCH  92  94
HETATM   94  O   UNK N   1      27.462  18.007   9.399  0.00  0.00    -0.775 OA
HETATM   95  H   UNK N   1      26.988  18.168  10.192  0.00  0.00     0.167 HD
ENDBRANCH  92  94
ENDBRANCH  91  92
BRANCH  91  96
HETATM   96  N   UNK N   1      28.989  18.351   7.079  0.00  0.00    -0.417 N 
HETATM   97  H   UNK N   1      28.486  19.212   6.864  0.00  0.00     0.150 HD
HETATM   98  H   UNK N   1      29.002  17.597   6.391  0.00  0.00     0.150 HD
ENDBRANCH  91  96
ENDBRANCH  90  91
ENDBRANCH  89  90
ENDBRANCH  88  89
ENDBRANCH  87  88
ENDBRANCH  86  87
BRANCH  86  99
HETATM   99  N   UNK N   1      35.050  14.457   8.397  0.00  0.00    -0.347 N 
HETATM  100  C   UNK N   1      36.272  14.094   7.950  0.00  0.00     0.214 C 
HETATM  101  O   UNK N   1      36.521  14.080   6.754  0.00  0.00    -0.274 OA
HETATM  102  C   UNK N   1      37.322  13.703   8.930  0.00  0.00     0.117 C 
HETATM  103  H   UNK N   1      34.884  14.458   9.367  0.00  0.00     0.163 HD
ENDBRANCH  86  99
ENDBRANCH  83  86
ENDBRANCH  80  82
ENDBRANCH  77  80
ENDBRANCH  63  76
ENDBRANCH  60  63
ENDBRANCH   1  59
TORSDOF 38
ENDMDL
MODEL 3
REMARK VINA RESULT:      -6.4      3.032      9.862
REMARK WARNING: 32 MAX_TORS EXCEEDED!!!
REMARK  38 active torsions:
REMARK  status: ('A' for Active; 'I' for Inactive)
REMARK    1  A    between atoms: C_2  and  C_3 
REMARK    2  A    between atoms: C_2  and  N_18 
REMARK       I    between atoms: C_3  and  N_5 
REMARK    3  A    between atoms: C_6  and  N_5 
REMARK    4  A    between atoms: C_6  and  C_7 
REMARK    5  A    between atoms: C_6  and  C_15 
REMARK    6  A    between atoms: C_7  and  C_8 
REMARK    7  A    between atoms: C_8  and  C_9 
REMARK    8  A    between atoms: C_9  and  N_10 
REMARK       I    between atoms: N_10  and  C_11 
REMARK       I    between atoms: C_11  and  N_14 
REMARK       I    between atoms: C_15  and  N_17 
REMARK       I    between atoms: N_18  and  C_19 
REMARK    9  A    between atoms: C_19  and  C_21 
REMARK   10  A    between atoms: C_21  and  C_22 
REMARK   11  A    between atoms: C_21  and  N_30 
REMARK   12  A    between atoms: C_22  and  C_23 
REMARK   13  A    between atoms: C_23  and  C_24 
REMARK   14  A    between atoms: C_24  and  N_25 
REMARK       I    between atoms: N_25  and  C_26 
REMARK       I    between atoms: C_26  and  N_29 
REMARK       I    between atoms: N_30  and  C_31 
REMARK   15  A    between atoms: C_31  and  C_33 
REMARK   16  A    between atoms: C_33  and  C_34 
REMARK   17  A    between atoms: C_33  and  N_42 
REMARK   18  A    between atoms: C_34  and  C_35 
REMARK   19  A    between atoms: C_35  and  C_36 
REMARK   20  A    between atoms: C_36  and  N_37 
REMARK       I    between atoms: N_37  and  C_38 
REMARK       I    between atoms: C_38  and  N_41 
REMARK       I    between atoms: N_42  and  C_43 
REMARK   21  A    between atoms: C_43  and  C_45 
REMARK   22  A    between atoms: C_45  and  C_46 
REMARK   23  A    between atoms: C_45  and  N_54 
REMARK   24  A    between atoms: C_46  and  C_47 
REMARK   25  A    between atoms: C_47  and  C_48 
REMARK   26  A    between atoms: C_48  and  N_49 
REMARK       I    between atoms: N_49  and  C_50 
REMARK       I    between atoms: C_50  and  N_53 
REMARK       I    between atoms: N_54  and  C_55 
REMARK   27  A    between atoms: C_55  and  C_57 
REMARK   28  A    between atoms: C_57  and  N_59 
REMARK       I    between atoms: N_59  and  C_60 
REMARK   29  A    between atoms: C_60  and  C_62 
REMARK   30  A    between atoms: C_62  and  C_63 
REMARK   31  A    between atoms: C_62  and  N_72 
REMARK   32  A    between atoms: C_63  and  S_64 
REMARK   33  A    between atoms: S_64  and  S_65 
REMARK   34  A    between atoms: S_65  and  C_66 
REMARK   35  A    between atoms: C_66  and  C_67 
REMARK   36  A    between atoms: C_67  and  C_68 
REMARK   37  A    between atoms: C_67  and  N_71 
REMARK   38  A    between atoms: C_68  and  O_70 
REMARK       I    between atoms: N_72  and  C_73 
ROOT
HETATM    1  C   UNK N   1      23.053  16.846   5.176  0.00  0.00     0.176 C 
ENDROOT
BRANCH   1   2
HETATM    2  C   UNK N   1      21.957  17.177   6.167  0.00  0.00     0.241 C 
HETATM    3  N   UNK N   1      21.153  16.183   6.631  0.00  0.00    -0.346 N 
HETATM    4  H   UNK N   1      20.498  16.400   7.333  0.00  0.00     0.163 HD
HETATM    5  O   UNK N   1      21.813  18.308   6.587  0.00  0.00    -0.271 OA
BRANCH   3   6
HETATM    6  C   UNK N   1      21.212  14.815   6.144  0.00  0.00     0.176 C 
BRANCH   6   7
HETATM    7  C   UNK N   1      20.176  14.573   5.072  0.00  0.00     0.241 C 
HETATM    8  N   UNK N   1      20.603  14.389   3.788  0.00  0.00    -0.346 N 
HETATM    9  H   UNK N   1      21.564  14.219   3.659  0.00  0.00     0.163 HD
HETATM   10  O   UNK N   1      18.990  14.614   5.343  0.00  0.00    -0.271 OA
BRANCH   8  11
HETATM   11  C   UNK N   1      19.783  14.420   2.611  0.00  0.00     0.172 C 
HETATM   12  C   UNK N   1      20.216  15.491   1.623  0.00  0.00     0.042 C 
BRANCH  11  13
HETATM   13  C   UNK N   1      19.788  13.050   2.036  0.00  0.00     0.240 C 
HETATM   14  O   UNK N   1      18.767  12.610   1.522  0.00  0.00    -0.271 OA
HETATM   15  N   UNK N   1      20.947  12.344   1.979  0.00  0.00    -0.346 N 
HETATM   16  H   UNK N   1      21.749  12.700   2.425  0.00  0.00     0.163 HD
BRANCH  15  17
HETATM   17  C   UNK N   1      21.029  11.078   1.277  0.00  0.00     0.176 C 
BRANCH  17  18
HETATM   18  C   UNK N   1      22.191  11.160   0.268  0.00  0.00     0.036 C 
BRANCH  18  19
HETATM   19  C   UNK N   1      22.882  12.517   0.144  0.00  0.00     0.023 C 
BRANCH  19  20
HETATM   20  C   UNK N   1      24.186  12.573   0.924  0.00  0.00     0.138 C 
BRANCH  20  21
HETATM   21  N   UNK N   1      24.681  13.925   0.926  0.00  0.00    -0.227 N 
HETATM   22  C   UNK N   1      25.531  14.412   1.948  0.00  0.00     0.665 C 
HETATM   23  N   UNK N   1      26.150  13.601   2.726  0.00  0.00    -0.235 N 
HETATM   24  N   UNK N   1      25.608  15.801   2.178  0.00  0.00    -0.235 N 
HETATM   25  H   UNK N   1      26.472  13.377   3.629  0.00  0.00     0.174 HD
ATOM     26  HN  UNK N   1      26.446  12.827   2.132  1.00  0.00     0.174 HD
HETATM   27  H   UNK N   1      24.900  16.476   2.065  0.00  0.00     0.174 HD
HETATM   28  H   UNK N   1      26.478  16.138   2.491  0.00  0.00     0.174 HD
HETATM   29  H   UNK N   1      24.419  14.530   0.194  0.00  0.00     0.177 HD
ENDBRANCH  20  21
ENDBRANCH  19  20
ENDBRANCH  18  19
ENDBRANCH  17  18
BRANCH  17  30
HETATM   30  C   UNK N   1      21.100   9.946   2.287  0.00  0.00     0.238 C 
HETATM   31  O   UNK N   1      20.086   9.404   2.698  0.00  0.00    -0.271 OA
HETATM   32  N   UNK N   1      22.300   9.533   2.738  0.00  0.00    -0.368 N 
HETATM   33  H   UNK N   1      22.920   9.709   3.483  0.00  0.00     0.159 HD
HETATM   34  H   UNK N   1      22.672   8.845   2.140  0.00  0.00     0.159 HD
ENDBRANCH  17  30
ENDBRANCH  15  17
ENDBRANCH  11  13
ENDBRANCH   8  11
ENDBRANCH   6   7
BRANCH   6  35
HETATM   35  C   UNK N   1      20.903  13.875   7.305  0.00  0.00     0.036 C 
BRANCH  35  36
HETATM   36  C   UNK N   1      21.527  14.389   8.603  0.00  0.00     0.023 C 
BRANCH  36  37
HETATM   37  C   UNK N   1      21.711  13.242   9.584  0.00  0.00     0.138 C 
BRANCH  37  38
HETATM   38  N   UNK N   1      22.943  13.422  10.306  0.00  0.00    -0.227 N 
HETATM   39  C   UNK N   1      24.100  12.646  10.027  0.00  0.00     0.665 C 
HETATM   40  N   UNK N   1      24.096  11.778   9.082  0.00  0.00    -0.235 N 
HETATM   41  N   UNK N   1      25.237  12.775  10.849  0.00  0.00    -0.235 N 
HETATM   42  H   UNK N   1      24.680  11.243   8.496  0.00  0.00     0.174 HD
ATOM     43  HN  UNK N   1      23.127  11.559   8.853  1.00  0.00     0.174 HD
HETATM   44  H   UNK N   1      25.179  12.557  11.807  0.00  0.00     0.174 HD
HETATM   45  H   UNK N   1      26.088  13.084  10.465  0.00  0.00     0.174 HD
HETATM   46  H   UNK N   1      22.985  14.104  11.015  0.00  0.00     0.177 HD
ENDBRANCH  37  38
ENDBRANCH  36  37
ENDBRANCH  35  36
ENDBRANCH   6  35
ENDBRANCH   3   6
ENDBRANCH   1   2
BRANCH   1  47
HETATM   47  C   UNK N   1      22.872  17.497   3.814  0.00  0.00     0.036 C 
BRANCH  47  48
HETATM   48  C   UNK N   1      23.278  18.951   3.909  0.00  0.00     0.023 C 
BRANCH  48  49
HETATM   49  C   UNK N   1      22.255  19.804   3.195  0.00  0.00     0.138 C 
BRANCH  49  50
HETATM   50  N   UNK N   1      20.967  19.162   3.266  0.00  0.00    -0.227 N 
HETATM   51  C   UNK N   1      20.004  19.312   2.240  0.00  0.00     0.665 C 
HETATM   52  N   UNK N   1      20.269  19.999   1.189  0.00  0.00    -0.235 N 
HETATM   53  N   UNK N   1      18.743  18.691   2.370  0.00  0.00    -0.235 N 
HETATM   54  H   UNK N   1      19.950  19.702   0.306  0.00  0.00     0.174 HD
ATOM     55  HN  UNK N   1      20.813  20.858   1.269  1.00  0.00     0.174 HD
HETATM   56  H   UNK N   1      18.131  18.678   3.140  0.00  0.00     0.174 HD
HETATM   57  H   UNK N   1      18.432  18.200   1.576  0.00  0.00     0.174 HD
HETATM   58  H   UNK N   1      20.751  18.606   4.050  0.00  0.00     0.177 HD
ENDBRANCH  49  50
ENDBRANCH  48  49
ENDBRANCH  47  48
ENDBRANCH   1  47
BRANCH   1  59
HETATM   59  N   UNK N   1      24.285  17.204   5.833  0.00  0.00    -0.346 N 
HETATM   60  C   UNK N   1      25.387  16.455   5.624  0.00  0.00     0.241 C 
HETATM   61  O   UNK N   1      25.284  15.301   5.217  0.00  0.00    -0.271 OA
HETATM   62  H   UNK N   1      24.322  17.988   6.426  0.00  0.00     0.163 HD
BRANCH  60  63
HETATM   63  C   UNK N   1      26.714  17.106   5.611  0.00  0.00     0.176 C 
BRANCH  63  64
HETATM   64  C   UNK N   1      26.461  18.368   4.771  0.00  0.00     0.036 C 
BRANCH  64  65
HETATM   65  C   UNK N   1      27.336  19.568   5.038  0.00  0.00     0.023 C 
BRANCH  65  66
HETATM   66  C   UNK N   1      27.341  19.805   6.545  0.00  0.00     0.138 C 
BRANCH  66  67
HETATM   67  N   UNK N   1      28.592  19.384   7.137  0.00  0.00    -0.227 N 
HETATM   68  C   UNK N   1      28.632  18.713   8.388  0.00  0.00     0.665 C 
HETATM   69  N   UNK N   1      27.548  18.441   9.017  0.00  0.00    -0.235 N 
HETATM   70  N   UNK N   1      29.870  18.305   8.926  0.00  0.00    -0.235 N 
HETATM   71  H   UNK N   1      27.546  18.080   9.934  0.00  0.00     0.174 HD
ATOM     72  HN  UNK N   1      26.655  18.602   8.550  1.00  0.00     0.174 HD
HETATM   73  H   UNK N   1      30.717  18.604   8.524  0.00  0.00     0.174 HD
HETATM   74  H   UNK N   1      29.889  17.713   9.712  0.00  0.00     0.174 HD
HETATM   75  H   UNK N   1      29.434  19.566   6.662  0.00  0.00     0.177 HD
ENDBRANCH  66  67
ENDBRANCH  65  66
ENDBRANCH  64  65
ENDBRANCH  63  64
BRANCH  63  76
HETATM   76  N   UNK N   1      27.599  16.127   5.026  0.00  0.00    -0.346 N 
HETATM   77  C   UNK N   1      28.953  16.138   5.119  0.00  0.00     0.240 C 
HETATM   78  O   UNK N   1      29.536  16.808   5.957  0.00  0.00    -0.271 OA
HETATM   79  H   UNK N   1      27.187  15.393   4.518  0.00  0.00     0.163 HD
BRANCH  77  80
HETATM   80  C   UNK N   1      29.738  15.419   4.094  0.00  0.00     0.172 C 
HETATM   81  C   UNK N   1      29.133  15.653   2.723  0.00  0.00     0.042 C 
BRANCH  80  82
HETATM   82  N   UNK N   1      29.747  14.010   4.383  0.00  0.00    -0.346 N 
HETATM   83  C   UNK N   1      30.876  13.368   4.750  0.00  0.00     0.241 C 
HETATM   84  O   UNK N   1      30.842  12.164   4.945  0.00  0.00    -0.271 OA
HETATM   85  H   UNK N   1      28.907  13.501   4.311  0.00  0.00     0.163 HD
BRANCH  83  86
HETATM   86  C   UNK N   1      32.175  14.111   4.938  0.00  0.00     0.186 C 
BRANCH  86  87
HETATM   87  C   UNK N   1      32.760  13.889   6.336  0.00  0.00     0.120 C 
BRANCH  87  88
HETATM   88  S   UNK N   1      34.511  14.373   6.442  0.00  0.00    -0.095 SA
BRANCH  88  89
HETATM   89  S   UNK N   1      34.351  14.688   8.531  0.00  0.00    -0.095 SA
BRANCH  89  90
HETATM   90  C   UNK N   1      33.242  16.112   8.279  0.00  0.00     0.121 C 
BRANCH  90  91
HETATM   91  C   UNK N   1      33.763  17.362   8.970  0.00  0.00     0.183 C 
BRANCH  91  92
HETATM   92  C   UNK N   1      34.541  18.228   8.016  0.00  0.00     0.163 C 
HETATM   93  O   UNK N   1      34.514  18.010   6.814  0.00  0.00    -0.648 OA
BRANCH  92  94
HETATM   94  O   UNK N   1      35.272  19.255   8.489  0.00  0.00    -0.775 OA
HETATM   95  H   UNK N   1      34.862  20.011   8.862  0.00  0.00     0.167 HD
ENDBRANCH  92  94
ENDBRANCH  91  92
BRANCH  91  96
HETATM   96  N   UNK N   1      34.560  16.988  10.129  0.00  0.00    -0.417 N 
HETATM   97  H   UNK N   1      35.421  17.479  10.369  0.00  0.00     0.150 HD
HETATM   98  H   UNK N   1      34.249  16.214  10.717  0.00  0.00     0.150 HD
ENDBRANCH  91  96
ENDBRANCH  90  91
ENDBRANCH  89  90
ENDBRANCH  88  89
ENDBRANCH  87  88
ENDBRANCH  86  87
BRANCH  86  99
HETATM   99  N   UNK N   1      33.130  13.645   3.960  0.00  0.00    -0.347 N 
HETATM  100  C   UNK N   1      33.468  14.363   2.867  0.00  0.00     0.214 C 
HETATM  101  O   UNK N   1      32.970  15.458   2.660  0.00  0.00    -0.274 OA
HETATM  102  C   UNK N   1      34.459  13.806   1.904  0.00  0.00     0.117 C 
HETATM  103  H   UNK N   1      33.552  12.765   4.095  0.00  0.00     0.163 HD
ENDBRANCH  86  99
ENDBRANCH  83  86
ENDBRANCH  80  82
ENDBRANCH  77  80
ENDBRANCH  63  76
ENDBRANCH  60  63
ENDBRANCH   1  59
TORSDOF 38
ENDMDL
MODEL 4
REMARK VINA RESULT:      -6.4      3.792     11.616
REMARK WARNING: 32 MAX_TORS EXCEEDED!!!
REMARK  38 active torsions:
REMARK  status: ('A' for Active; 'I' for Inactive)
REMARK    1  A    between atoms: C_2  and  C_3 
REMARK    2  A    between atoms: C_2  and  N_18 
REMARK       I    between atoms: C_3  and  N_5 
REMARK    3  A    between atoms: C_6  and  N_5 
REMARK    4  A    between atoms: C_6  and  C_7 
REMARK    5  A    between atoms: C_6  and  C_15 
REMARK    6  A    between atoms: C_7  and  C_8 
REMARK    7  A    between atoms: C_8  and  C_9 
REMARK    8  A    between atoms: C_9  and  N_10 
REMARK       I    between atoms: N_10  and  C_11 
REMARK       I    between atoms: C_11  and  N_14 
REMARK       I    between atoms: C_15  and  N_17 
REMARK       I    between atoms: N_18  and  C_19 
REMARK    9  A    between atoms: C_19  and  C_21 
REMARK   10  A    between atoms: C_21  and  C_22 
REMARK   11  A    between atoms: C_21  and  N_30 
REMARK   12  A    between atoms: C_22  and  C_23 
REMARK   13  A    between atoms: C_23  and  C_24 
REMARK   14  A    between atoms: C_24  and  N_25 
REMARK       I    between atoms: N_25  and  C_26 
REMARK       I    between atoms: C_26  and  N_29 
REMARK       I    between atoms: N_30  and  C_31 
REMARK   15  A    between atoms: C_31  and  C_33 
REMARK   16  A    between atoms: C_33  and  C_34 
REMARK   17  A    between atoms: C_33  and  N_42 
REMARK   18  A    between atoms: C_34  and  C_35 
REMARK   19  A    between atoms: C_35  and  C_36 
REMARK   20  A    between atoms: C_36  and  N_37 
REMARK       I    between atoms: N_37  and  C_38 
REMARK       I    between atoms: C_38  and  N_41 
REMARK       I    between atoms: N_42  and  C_43 
REMARK   21  A    between atoms: C_43  and  C_45 
REMARK   22  A    between atoms: C_45  and  C_46 
REMARK   23  A    between atoms: C_45  and  N_54 
REMARK   24  A    between atoms: C_46  and  C_47 
REMARK   25  A    between atoms: C_47  and  C_48 
REMARK   26  A    between atoms: C_48  and  N_49 
REMARK       I    between atoms: N_49  and  C_50 
REMARK       I    between atoms: C_50  and  N_53 
REMARK       I    between atoms: N_54  and  C_55 
REMARK   27  A    between atoms: C_55  and  C_57 
REMARK   28  A    between atoms: C_57  and  N_59 
REMARK       I    between atoms: N_59  and  C_60 
REMARK   29  A    between atoms: C_60  and  C_62 
REMARK   30  A    between atoms: C_62  and  C_63 
REMARK   31  A    between atoms: C_62  and  N_72 
REMARK   32  A    between atoms: C_63  and  S_64 
REMARK   33  A    between atoms: S_64  and  S_65 
REMARK   34  A    between atoms: S_65  and  C_66 
REMARK   35  A    between atoms: C_66  and  C_67 
REMARK   36  A    between atoms: C_67  and  C_68 
REMARK   37  A    between atoms: C_67  and  N_71 
REMARK   38  A    between atoms: C_68  and  O_70 
REMARK       I    between atoms: N_72  and  C_73 
ROOT
HETATM    1  C   UNK N   1      28.257  17.930   6.960  0.00  0.00     0.176 C 
ENDROOT
BRANCH   1   2
HETATM    2  C   UNK N   1      27.517  17.051   7.948  0.00  0.00     0.241 C 
HETATM    3  N   UNK N   1      26.693  16.074   7.486  0.00  0.00    -0.346 N 
HETATM    4  H   UNK N   1      26.282  15.462   8.138  0.00  0.00     0.163 HD
HETATM    5  O   UNK N   1      27.684  17.178   9.145  0.00  0.00    -0.271 OA
BRANCH   3   6
HETATM    6  C   UNK N   1      26.387  15.886   6.078  0.00  0.00     0.176 C 
BRANCH   6   7
HETATM    7  C   UNK N   1      25.192  16.712   5.664  0.00  0.00     0.241 C 
HETATM    8  N   UNK N   1      23.945  16.226   5.932  0.00  0.00    -0.346 N 
HETATM    9  H   UNK N   1      23.887  15.469   6.558  0.00  0.00     0.163 HD
HETATM   10  O   UNK N   1      25.347  17.749   5.044  0.00  0.00    -0.271 OA
BRANCH   8  11
HETATM   11  C   UNK N   1      22.711  16.716   5.386  0.00  0.00     0.172 C 
HETATM   12  C   UNK N   1      22.629  16.546   3.878  0.00  0.00     0.042 C 
BRANCH  11  13
HETATM   13  C   UNK N   1      21.608  16.040   6.117  0.00  0.00     0.240 C 
HETATM   14  O   UNK N   1      21.082  15.049   5.626  0.00  0.00    -0.271 OA
HETATM   15  N   UNK N   1      21.273  16.451   7.366  0.00  0.00    -0.346 N 
HETATM   16  H   UNK N   1      21.684  17.269   7.731  0.00  0.00     0.163 HD
BRANCH  15  17
HETATM   17  C   UNK N   1      20.322  15.715   8.176  0.00  0.00     0.176 C 
BRANCH  17  18
HETATM   18  C   UNK N   1      21.108  14.875   9.201  0.00  0.00     0.036 C 
BRANCH  18  19
HETATM   19  C   UNK N   1      20.897  13.364   9.137  0.00  0.00     0.023 C 
BRANCH  19  20
HETATM   20  C   UNK N   1      22.195  12.610   8.893  0.00  0.00     0.138 C 
BRANCH  20  21
HETATM   21  N   UNK N   1      22.975  12.603  10.103  0.00  0.00    -0.227 N 
HETATM   22  C   UNK N   1      24.372  12.837  10.097  0.00  0.00     0.665 C 
HETATM   23  N   UNK N   1      24.941  13.376   9.081  0.00  0.00    -0.235 N 
HETATM   24  N   UNK N   1      25.154  12.373  11.174  0.00  0.00    -0.235 N 
HETATM   25  H   UNK N   1      25.710  13.418   8.468  0.00  0.00     0.174 HD
ATOM     26  HN  UNK N   1      24.294  14.094   8.757  1.00  0.00     0.174 HD
HETATM   27  H   UNK N   1      25.013  11.569  11.726  0.00  0.00     0.174 HD
HETATM   28  H   UNK N   1      25.939  12.920  11.403  0.00  0.00     0.174 HD
HETATM   29  H   UNK N   1      22.524  12.430  10.961  0.00  0.00     0.177 HD
ENDBRANCH  20  21
ENDBRANCH  19  20
ENDBRANCH  18  19
ENDBRANCH  17  18
BRANCH  17  30
HETATM   30  C   UNK N   1      19.297  16.679   8.749  0.00  0.00     0.238 C 
HETATM   31  O   UNK N   1      18.217  16.282   9.157  0.00  0.00    -0.271 OA
HETATM   32  N   UNK N   1      19.582  17.995   8.806  0.00  0.00    -0.368 N 
HETATM   33  H   UNK N   1      19.463  18.810   8.267  0.00  0.00     0.159 HD
HETATM   34  H   UNK N   1      20.052  18.206   9.645  0.00  0.00     0.159 HD
ENDBRANCH  17  30
ENDBRANCH  15  17
ENDBRANCH  11  13
ENDBRANCH   8  11
ENDBRANCH   6   7
BRANCH   6  35
HETATM   35  C   UNK N   1      26.034  14.419   5.852  0.00  0.00     0.036 C 
BRANCH  35  36
HETATM   36  C   UNK N   1      26.878  13.824   4.723  0.00  0.00     0.023 C 
BRANCH  36  37
HETATM   37  C   UNK N   1      28.339  14.199   4.913  0.00  0.00     0.138 C 
BRANCH  37  38
HETATM   38  N   UNK N   1      29.172  13.089   4.529  0.00  0.00    -0.227 N 
HETATM   39  C   UNK N   1      29.796  13.021   3.254  0.00  0.00     0.665 C 
HETATM   40  N   UNK N   1      29.670  13.979   2.410  0.00  0.00    -0.235 N 
HETATM   41  N   UNK N   1      30.494  11.855   2.885  0.00  0.00    -0.235 N 
HETATM   42  H   UNK N   1      30.061  14.374   1.596  0.00  0.00     0.174 HD
ATOM     43  HN  UNK N   1      28.863  14.541   2.681  1.00  0.00     0.174 HD
HETATM   44  H   UNK N   1      30.019  10.995   2.827  0.00  0.00     0.174 HD
HETATM   45  H   UNK N   1      31.456  11.900   2.684  0.00  0.00     0.174 HD
HETATM   46  H   UNK N   1      29.314  12.355   5.169  0.00  0.00     0.177 HD
ENDBRANCH  37  38
ENDBRANCH  36  37
ENDBRANCH  35  36
ENDBRANCH   6  35
ENDBRANCH   3   6
ENDBRANCH   1   2
BRANCH   1  47
HETATM   47  C   UNK N   1      28.417  19.372   7.415  0.00  0.00     0.036 C 
BRANCH  47  48
HETATM   48  C   UNK N   1      27.121  20.110   7.168  0.00  0.00     0.023 C 
BRANCH  48  49
HETATM   49  C   UNK N   1      27.319  21.107   6.050  0.00  0.00     0.138 C 
BRANCH  49  50
HETATM   50  N   UNK N   1      26.296  20.915   5.053  0.00  0.00    -0.227 N 
HETATM   51  C   UNK N   1      26.557  20.232   3.842  0.00  0.00     0.665 C 
HETATM   52  N   UNK N   1      27.714  19.727   3.611  0.00  0.00    -0.235 N 
HETATM   53  N   UNK N   1      25.531  20.097   2.881  0.00  0.00    -0.235 N 
HETATM   54  H   UNK N   1      27.796  18.859   3.154  0.00  0.00     0.174 HD
ATOM     55  HN  UNK N   1      28.553  20.228   3.904  1.00  0.00     0.174 HD
HETATM   56  H   UNK N   1      24.911  20.777   2.531  0.00  0.00     0.174 HD
HETATM   57  H   UNK N   1      25.420  19.194   2.507  0.00  0.00     0.174 HD
HETATM   58  H   UNK N   1      25.392  21.269   5.220  0.00  0.00     0.177 HD
ENDBRANCH  49  50
ENDBRANCH  48  49
ENDBRANCH  47  48
ENDBRANCH   1  47
BRANCH   1  59
HETATM   59  N   UNK N   1      29.506  17.257   6.708  0.00  0.00    -0.346 N 
HETATM   60  C   UNK N   1      30.056  17.321   5.479  0.00  0.00     0.241 C 
HETATM   61  O   UNK N   1      29.362  17.598   4.504  0.00  0.00    -0.271 OA
HETATM   62  H   UNK N   1      29.954  16.756   7.427  0.00  0.00     0.163 HD
BRANCH  60  63
HETATM   63  C   UNK N   1      31.527  17.342   5.343  0.00  0.00     0.176 C 
BRANCH  63  64
HETATM   64  C   UNK N   1      31.787  16.224   4.321  0.00  0.00     0.036 C 
BRANCH  64  65
HETATM   65  C   UNK N   1      32.384  16.620   2.993  0.00  0.00     0.023 C 
BRANCH  65  66
HETATM   66  C   UNK N   1      33.628  15.762   2.776  0.00  0.00     0.138 C 
BRANCH  66  67
HETATM   67  N   UNK N   1      33.274  14.385   2.510  0.00  0.00    -0.227 N 
HETATM   68  C   UNK N   1      34.010  13.594   1.589  0.00  0.00     0.665 C 
HETATM   69  N   UNK N   1      35.032  14.079   0.984  0.00  0.00    -0.235 N 
HETATM   70  N   UNK N   1      33.643  12.250   1.367  0.00  0.00    -0.235 N 
HETATM   71  H   UNK N   1      35.494  13.598   0.259  0.00  0.00     0.174 HD
ATOM     72  HN  UNK N   1      35.380  14.996   1.265  1.00  0.00     0.174 HD
HETATM   73  H   UNK N   1      32.798  11.893   1.726  0.00  0.00     0.174 HD
HETATM   74  H   UNK N   1      34.237  11.662   0.848  0.00  0.00     0.174 HD
HETATM   75  H   UNK N   1      32.505  13.988   2.978  0.00  0.00     0.177 HD
ENDBRANCH  66  67
ENDBRANCH  65  66
ENDBRANCH  64  65
ENDBRANCH  63  64
BRANCH  63  76
HETATM   76  N   UNK N   1      32.024  17.105   6.677  0.00  0.00    -0.346 N 
HETATM   77  C   UNK N   1      33.332  17.097   7.039  0.00  0.00     0.240 C 
HETATM   78  O   UNK N   1      34.199  17.588   6.331  0.00  0.00    -0.271 OA
HETATM   79  H   UNK N   1      31.360  16.933   7.382  0.00  0.00     0.163 HD
BRANCH  77  80
HETATM   80  C   UNK N   1      33.725  16.362   8.258  0.00  0.00     0.172 C 
HETATM   81  C   UNK N   1      32.489  15.845   8.969  0.00  0.00     0.042 C 
BRANCH  80  82
HETATM   82  N   UNK N   1      34.459  17.231   9.139  0.00  0.00    -0.346 N 
HETATM   83  C   UNK N   1      35.316  16.746  10.063  0.00  0.00     0.241 C 
HETATM   84  O   UNK N   1      35.885  17.521  10.814  0.00  0.00    -0.271 OA
HETATM   85  H   UNK N   1      34.333  18.205   9.066  0.00  0.00     0.163 HD
BRANCH  83  86
HETATM   86  C   UNK N   1      35.595  15.269  10.174  0.00  0.00     0.186 C 
BRANCH  86  87
HETATM   87  C   UNK N   1      36.491  14.772   9.037  0.00  0.00     0.120 C 
BRANCH  87  88
HETATM   88  S   UNK N   1      36.711  12.965   9.063  0.00  0.00    -0.095 SA
BRANCH  88  89
HETATM   89  S   UNK N   1      34.623  12.655   8.880  0.00  0.00    -0.095 SA
BRANCH  89  90
HETATM   90  C   UNK N   1      34.811  12.093   7.157  0.00  0.00     0.121 C 
BRANCH  90  91
HETATM   91  C   UNK N   1      33.552  11.409   6.647  0.00  0.00     0.183 C 
BRANCH  91  92
HETATM   92  C   UNK N   1      32.787  12.305   5.710  0.00  0.00     0.163 C 
HETATM   93  O   UNK N   1      32.978  12.253   4.505  0.00  0.00    -0.648 OA
BRANCH  92  94
HETATM   94  O   UNK N   1      31.881  13.170   6.203  0.00  0.00    -0.775 OA
HETATM   95  H   UNK N   1      31.009  12.895   6.411  0.00  0.00     0.167 HD
ENDBRANCH  92  94
ENDBRANCH  91  92
BRANCH  91  96
HETATM   96  N   UNK N   1      32.733  10.982   7.772  0.00  0.00    -0.417 N 
HETATM   97  H   UNK N   1      32.214  10.104   7.754  0.00  0.00     0.150 HD
HETATM   98  H   UNK N   1      32.677  11.576   8.600  0.00  0.00     0.150 HD
ENDBRANCH  91  96
ENDBRANCH  90  91
ENDBRANCH  89  90
ENDBRANCH  88  89
ENDBRANCH  87  88
ENDBRANCH  86  87
BRANCH  86  99
HETATM   99  N   UNK N   1      36.258  15.009  11.431  0.00  0.00    -0.347 N 
HETATM  100  C   UNK N   1      35.657  14.371  12.459  0.00  0.00     0.214 C 
HETATM  101  O   UNK N   1      34.504  13.980  12.363  0.00  0.00    -0.274 OA
HETATM  102  C   UNK N   1      36.411  14.148  13.723  0.00  0.00     0.117 C 
HETATM  103  H   UNK N   1      37.189  15.309  11.543  0.00  0.00     0.163 HD
ENDBRANCH  86  99
ENDBRANCH  83  86
ENDBRANCH  80  82
ENDBRANCH  77  80
ENDBRANCH  63  76
ENDBRANCH  60  63
ENDBRANCH   1  59
TORSDOF 38
ENDMDL
MODEL 5
REMARK VINA RESULT:      -6.3      2.445      4.751
REMARK WARNING: 32 MAX_TORS EXCEEDED!!!
REMARK  38 active torsions:
REMARK  status: ('A' for Active; 'I' for Inactive)
REMARK    1  A    between atoms: C_2  and  C_3 
REMARK    2  A    between atoms: C_2  and  N_18 
REMARK       I    between atoms: C_3  and  N_5 
REMARK    3  A    between atoms: C_6  and  N_5 
REMARK    4  A    between atoms: C_6  and  C_7 
REMARK    5  A    between atoms: C_6  and  C_15 
REMARK    6  A    between atoms: C_7  and  C_8 
REMARK    7  A    between atoms: C_8  and  C_9 
REMARK    8  A    between atoms: C_9  and  N_10 
REMARK       I    between atoms: N_10  and  C_11 
REMARK       I    between atoms: C_11  and  N_14 
REMARK       I    between atoms: C_15  and  N_17 
REMARK       I    between atoms: N_18  and  C_19 
REMARK    9  A    between atoms: C_19  and  C_21 
REMARK   10  A    between atoms: C_21  and  C_22 
REMARK   11  A    between atoms: C_21  and  N_30 
REMARK   12  A    between atoms: C_22  and  C_23 
REMARK   13  A    between atoms: C_23  and  C_24 
REMARK   14  A    between atoms: C_24  and  N_25 
REMARK       I    between atoms: N_25  and  C_26 
REMARK       I    between atoms: C_26  and  N_29 
REMARK       I    between atoms: N_30  and  C_31 
REMARK   15  A    between atoms: C_31  and  C_33 
REMARK   16  A    between atoms: C_33  and  C_34 
REMARK   17  A    between atoms: C_33  and  N_42 
REMARK   18  A    between atoms: C_34  and  C_35 
REMARK   19  A    between atoms: C_35  and  C_36 
REMARK   20  A    between atoms: C_36  and  N_37 
REMARK       I    between atoms: N_37  and  C_38 
REMARK       I    between atoms: C_38  and  N_41 
REMARK       I    between atoms: N_42  and  C_43 
REMARK   21  A    between atoms: C_43  and  C_45 
REMARK   22  A    between atoms: C_45  and  C_46 
REMARK   23  A    between atoms: C_45  and  N_54 
REMARK   24  A    between atoms: C_46  and  C_47 
REMARK   25  A    between atoms: C_47  and  C_48 
REMARK   26  A    between atoms: C_48  and  N_49 
REMARK       I    between atoms: N_49  and  C_50 
REMARK       I    between atoms: C_50  and  N_53 
REMARK       I    between atoms: N_54  and  C_55 
REMARK   27  A    between atoms: C_55  and  C_57 
REMARK   28  A    between atoms: C_57  and  N_59 
REMARK       I    between atoms: N_59  and  C_60 
REMARK   29  A    between atoms: C_60  and  C_62 
REMARK   30  A    between atoms: C_62  and  C_63 
REMARK   31  A    between atoms: C_62  and  N_72 
REMARK   32  A    between atoms: C_63  and  S_64 
REMARK   33  A    between atoms: S_64  and  S_65 
REMARK   34  A    between atoms: S_65  and  C_66 
REMARK   35  A    between atoms: C_66  and  C_67 
REMARK   36  A    between atoms: C_67  and  C_68 
REMARK   37  A    between atoms: C_67  and  N_71 
REMARK   38  A    between atoms: C_68  and  O_70 
REMARK       I    between atoms: N_72  and  C_73 
ROOT
HETATM    1  C   UNK N   1      27.081  14.806   4.960  0.00  0.00     0.176 C 
ENDROOT
BRANCH   1   2
HETATM    2  C   UNK N   1      27.437  14.710   3.491  0.00  0.00     0.241 C 
HETATM    3  N   UNK N   1      28.226  13.691   3.060  0.00  0.00    -0.346 N 
HETATM    4  H   UNK N   1      28.382  13.599   2.092  0.00  0.00     0.163 HD
HETATM    5  O   UNK N   1      26.992  15.506   2.687  0.00  0.00    -0.271 OA
BRANCH   3   6
HETATM    6  C   UNK N   1      28.850  12.730   3.953  0.00  0.00     0.176 C 
BRANCH   6   7
HETATM    7  C   UNK N   1      30.297  13.081   4.207  0.00  0.00     0.241 C 
HETATM    8  N   UNK N   1      31.073  13.439   3.142  0.00  0.00    -0.346 N 
HETATM    9  H   UNK N   1      30.606  13.648   2.302  0.00  0.00     0.163 HD
HETATM   10  O   UNK N   1      30.767  12.974   5.325  0.00  0.00    -0.271 OA
BRANCH   8  11
HETATM   11  C   UNK N   1      32.504  13.538   3.135  0.00  0.00     0.172 C 
HETATM   12  C   UNK N   1      33.115  13.101   1.813  0.00  0.00     0.042 C 
BRANCH  11  13
HETATM   13  C   UNK N   1      32.850  14.932   3.513  0.00  0.00     0.240 C 
HETATM   14  O   UNK N   1      33.048  15.762   2.634  0.00  0.00    -0.271 OA
HETATM   15  N   UNK N   1      32.830  15.304   4.819  0.00  0.00    -0.346 N 
HETATM   16  H   UNK N   1      32.701  14.617   5.513  0.00  0.00     0.163 HD
BRANCH  15  17
HETATM   17  C   UNK N   1      32.996  16.689   5.215  0.00  0.00     0.176 C 
BRANCH  17  18
HETATM   18  C   UNK N   1      31.651  17.196   5.770  0.00  0.00     0.036 C 
BRANCH  18  19
HETATM   19  C   UNK N   1      31.196  16.588   7.095  0.00  0.00     0.023 C 
BRANCH  19  20
HETATM   20  C   UNK N   1      31.302  17.574   8.249  0.00  0.00     0.138 C 
BRANCH  20  21
HETATM   21  N   UNK N   1      30.043  18.255   8.409  0.00  0.00    -0.227 N 
HETATM   22  C   UNK N   1      29.099  17.866   9.390  0.00  0.00     0.665 C 
HETATM   23  N   UNK N   1      29.447  17.119  10.374  0.00  0.00    -0.235 N 
HETATM   24  N   UNK N   1      27.744  18.215   9.220  0.00  0.00    -0.235 N 
HETATM   25  H   UNK N   1      29.237  16.378  10.987  0.00  0.00     0.174 HD
ATOM     26  HN  UNK N   1      30.374  17.444  10.647  1.00  0.00     0.174 HD
HETATM   27  H   UNK N   1      27.241  18.310   8.379  0.00  0.00     0.174 HD
HETATM   28  H   UNK N   1      27.236  18.385  10.047  0.00  0.00     0.174 HD
HETATM   29  H   UNK N   1      29.832  19.013   7.817  0.00  0.00     0.177 HD
ENDBRANCH  20  21
ENDBRANCH  19  20
ENDBRANCH  18  19
ENDBRANCH  17  18
BRANCH  17  30
HETATM   30  C   UNK N   1      34.190  16.807   6.146  0.00  0.00     0.238 C 
HETATM   31  O   UNK N   1      34.537  17.888   6.593  0.00  0.00    -0.271 OA
HETATM   32  N   UNK N   1      34.880  15.699   6.485  0.00  0.00    -0.368 N 
HETATM   33  H   UNK N   1      35.665  15.187   6.184  0.00  0.00     0.159 HD
HETATM   34  H   UNK N   1      34.475  15.273   7.274  0.00  0.00     0.159 HD
ENDBRANCH  17  30
ENDBRANCH  15  17
ENDBRANCH  11  13
ENDBRANCH   8  11
ENDBRANCH   6   7
BRANCH   6  35
HETATM   35  C   UNK N   1      28.818  11.358   3.285  0.00  0.00     0.036 C 
BRANCH  35  36
HETATM   36  C   UNK N   1      28.442  10.271   4.293  0.00  0.00     0.023 C 
BRANCH  36  37
HETATM   37  C   UNK N   1      27.054   9.732   3.985  0.00  0.00     0.138 C 
BRANCH  37  38
HETATM   38  N   UNK N   1      26.067  10.545   4.644  0.00  0.00    -0.227 N 
HETATM   39  C   UNK N   1      25.012   9.977   5.409  0.00  0.00     0.665 C 
HETATM   40  N   UNK N   1      24.930   8.707   5.573  0.00  0.00    -0.235 N 
HETATM   41  N   UNK N   1      24.002  10.812   5.925  0.00  0.00    -0.235 N 
HETATM   42  H   UNK N   1      24.526   8.005   6.134  0.00  0.00     0.174 HD
ATOM     43  HN  UNK N   1      25.495   8.255   4.854  1.00  0.00     0.174 HD
HETATM   44  H   UNK N   1      23.433  11.332   5.313  0.00  0.00     0.174 HD
HETATM   45  H   UNK N   1      23.864  10.874   6.897  0.00  0.00     0.174 HD
HETATM   46  H   UNK N   1      26.123  11.524   4.563  0.00  0.00     0.177 HD
ENDBRANCH  37  38
ENDBRANCH  36  37
ENDBRANCH  35  36
ENDBRANCH   6  35
ENDBRANCH   3   6
ENDBRANCH   1   2
BRANCH   1  47
HETATM   47  C   UNK N   1      27.915  15.814   5.735  0.00  0.00     0.036 C 
BRANCH  47  48
HETATM   48  C   UNK N   1      27.174  17.130   5.779  0.00  0.00     0.023 C 
BRANCH  48  49
HETATM   49  C   UNK N   1      28.004  18.195   5.100  0.00  0.00     0.138 C 
BRANCH  49  50
HETATM   50  N   UNK N   1      27.948  19.409   5.874  0.00  0.00    -0.227 N 
HETATM   51  C   UNK N   1      27.184  20.524   5.455  0.00  0.00     0.665 C 
HETATM   52  N   UNK N   1      26.483  20.471   4.381  0.00  0.00    -0.235 N 
HETATM   53  N   UNK N   1      27.187  21.704   6.230  0.00  0.00    -0.235 N 
HETATM   54  H   UNK N   1      25.596  20.898   4.344  0.00  0.00     0.174 HD
ATOM     55  HN  UNK N   1      26.847  19.983   3.563  1.00  0.00     0.174 HD
HETATM   56  H   UNK N   1      27.947  22.190   6.623  0.00  0.00     0.174 HD
HETATM   57  H   UNK N   1      26.301  22.096   6.404  0.00  0.00     0.174 HD
HETATM   58  H   UNK N   1      28.455  19.464   6.717  0.00  0.00     0.177 HD
ENDBRANCH  49  50
ENDBRANCH  48  49
ENDBRANCH  47  48
ENDBRANCH   1  47
BRANCH   1  59
HETATM   59  N   UNK N   1      25.665  15.072   4.996  0.00  0.00    -0.346 N 
HETATM   60  C   UNK N   1      24.889  14.412   5.879  0.00  0.00     0.241 C 
HETATM   61  O   UNK N   1      25.272  13.352   6.368  0.00  0.00    -0.271 OA
HETATM   62  H   UNK N   1      25.268  15.732   4.383  0.00  0.00     0.163 HD
BRANCH  60  63
HETATM   63  C   UNK N   1      23.721  15.096   6.471  0.00  0.00     0.176 C 
BRANCH  63  64
HETATM   64  C   UNK N   1      23.129  14.016   7.392  0.00  0.00     0.036 C 
BRANCH  64  65
HETATM   65  C   UNK N   1      21.876  14.365   8.157  0.00  0.00     0.023 C 
BRANCH  65  66
HETATM   66  C   UNK N   1      21.868  13.525   9.431  0.00  0.00     0.138 C 
BRANCH  66  67
HETATM   67  N   UNK N   1      23.198  13.404   9.986  0.00  0.00    -0.227 N 
HETATM   68  C   UNK N   1      23.572  12.286  10.778  0.00  0.00     0.665 C 
HETATM   69  N   UNK N   1      22.740  11.336  11.000  0.00  0.00    -0.235 N 
HETATM   70  N   UNK N   1      24.884  12.197  11.290  0.00  0.00    -0.235 N 
HETATM   71  H   UNK N   1      22.929  10.607  11.635  0.00  0.00     0.174 HD
ATOM     72  HN  UNK N   1      21.850  11.336  10.502  1.00  0.00     0.174 HD
HETATM   73  H   UNK N   1      25.500  12.963  11.233  0.00  0.00     0.174 HD
HETATM   74  H   UNK N   1      25.188  11.360  11.709  0.00  0.00     0.174 HD
HETATM   75  H   UNK N   1      23.858  14.112   9.811  0.00  0.00     0.177 HD
ENDBRANCH  66  67
ENDBRANCH  65  66
ENDBRANCH  64  65
ENDBRANCH  63  64
BRANCH  63  76
HETATM   76  N   UNK N   1      22.906  15.477   5.342  0.00  0.00    -0.346 N 
HETATM   77  C   UNK N   1      22.145  16.599   5.265  0.00  0.00     0.240 C 
HETATM   78  O   UNK N   1      22.313  17.544   6.021  0.00  0.00    -0.271 OA
HETATM   79  H   UNK N   1      22.900  14.873   4.566  0.00  0.00     0.163 HD
BRANCH  77  80
HETATM   80  C   UNK N   1      21.006  16.618   4.325  0.00  0.00     0.172 C 
HETATM   81  C   UNK N   1      20.656  18.050   3.969  0.00  0.00     0.042 C 
BRANCH  80  82
HETATM   82  N   UNK N   1      19.866  15.977   4.924  0.00  0.00    -0.346 N 
HETATM   83  C   UNK N   1      19.230  14.951   4.320  0.00  0.00     0.241 C 
HETATM   84  O   UNK N   1      18.243  14.467   4.849  0.00  0.00    -0.271 OA
HETATM   85  H   UNK N   1      19.541  16.297   5.796  0.00  0.00     0.163 HD
BRANCH  83  86
HETATM   86  C   UNK N   1      19.725  14.380   3.015  0.00  0.00     0.186 C 
BRANCH  86  87
HETATM   87  C   UNK N   1      19.291  12.924   2.830  0.00  0.00     0.120 C 
BRANCH  87  88
HETATM   88  S   UNK N   1      20.527  11.939   1.927  0.00  0.00    -0.095 SA
BRANCH  88  89
HETATM   89  S   UNK N   1      22.021  12.408   3.355  0.00  0.00    -0.095 SA
BRANCH  89  90
HETATM   90  C   UNK N   1      23.331  11.759   2.266  0.00  0.00     0.121 C 
BRANCH  90  91
HETATM   91  C   UNK N   1      24.529  12.693   2.209  0.00  0.00     0.183 C 
BRANCH  91  92
HETATM   92  C   UNK N   1      24.159  14.016   1.594  0.00  0.00     0.163 C 
HETATM   93  O   UNK N   1      24.022  14.124   0.385  0.00  0.00    -0.648 OA
BRANCH  92  94
HETATM   94  O   UNK N   1      23.974  15.091   2.383  0.00  0.00    -0.775 OA
HETATM   95  H   UNK N   1      24.468  15.207   3.171  0.00  0.00     0.167 HD
ENDBRANCH  92  94
ENDBRANCH  91  92
BRANCH  91  96
HETATM   96  N   UNK N   1      25.621  12.052   1.491  0.00  0.00    -0.417 N 
HETATM   97  H   UNK N   1      26.517  11.861   1.938  0.00  0.00     0.150 HD
HETATM   98  H   UNK N   1      25.486  11.787   0.515  0.00  0.00     0.150 HD
ENDBRANCH  91  96
ENDBRANCH  90  91
ENDBRANCH  89  90
ENDBRANCH  88  89
ENDBRANCH  87  88
ENDBRANCH  86  87
BRANCH  86  99
HETATM   99  N   UNK N   1      19.188  15.163   1.926  0.00  0.00    -0.347 N 
HETATM  100  C   UNK N   1      19.962  15.694   0.954  0.00  0.00     0.214 C 
HETATM  101  O   UNK N   1      21.172  15.527   0.959  0.00  0.00    -0.274 OA
HETATM  102  C   UNK N   1      19.328  16.492  -0.130  0.00  0.00     0.117 C 
HETATM  103  H   UNK N   1      18.216  15.316   1.891  0.00  0.00     0.163 HD
ENDBRANCH  86  99
ENDBRANCH  83  86
ENDBRANCH  80  82
ENDBRANCH  77  80
ENDBRANCH  63  76
ENDBRANCH  60  63
ENDBRANCH   1  59
TORSDOF 38
ENDMDL
MODEL 6
REMARK VINA RESULT:      -6.3      3.399     10.290
REMARK WARNING: 32 MAX_TORS EXCEEDED!!!
REMARK  38 active torsions:
REMARK  status: ('A' for Active; 'I' for Inactive)
REMARK    1  A    between atoms: C_2  and  C_3 
REMARK    2  A    between atoms: C_2  and  N_18 
REMARK       I    between atoms: C_3  and  N_5 
REMARK    3  A    between atoms: C_6  and  N_5 
REMARK    4  A    between atoms: C_6  and  C_7 
REMARK    5  A    between atoms: C_6  and  C_15 
REMARK    6  A    between atoms: C_7  and  C_8 
REMARK    7  A    between atoms: C_8  and  C_9 
REMARK    8  A    between atoms: C_9  and  N_10 
REMARK       I    between atoms: N_10  and  C_11 
REMARK       I    between atoms: C_11  and  N_14 
REMARK       I    between atoms: C_15  and  N_17 
REMARK       I    between atoms: N_18  and  C_19 
REMARK    9  A    between atoms: C_19  and  C_21 
REMARK   10  A    between atoms: C_21  and  C_22 
REMARK   11  A    between atoms: C_21  and  N_30 
REMARK   12  A    between atoms: C_22  and  C_23 
REMARK   13  A    between atoms: C_23  and  C_24 
REMARK   14  A    between atoms: C_24  and  N_25 
REMARK       I    between atoms: N_25  and  C_26 
REMARK       I    between atoms: C_26  and  N_29 
REMARK       I    between atoms: N_30  and  C_31 
REMARK   15  A    between atoms: C_31  and  C_33 
REMARK   16  A    between atoms: C_33  and  C_34 
REMARK   17  A    between atoms: C_33  and  N_42 
REMARK   18  A    between atoms: C_34  and  C_35 
REMARK   19  A    between atoms: C_35  and  C_36 
REMARK   20  A    between atoms: C_36  and  N_37 
REMARK       I    between atoms: N_37  and  C_38 
REMARK       I    between atoms: C_38  and  N_41 
REMARK       I    between atoms: N_42  and  C_43 
REMARK   21  A    between atoms: C_43  and  C_45 
REMARK   22  A    between atoms: C_45  and  C_46 
REMARK   23  A    between atoms: C_45  and  N_54 
REMARK   24  A    between atoms: C_46  and  C_47 
REMARK   25  A    between atoms: C_47  and  C_48 
REMARK   26  A    between atoms: C_48  and  N_49 
REMARK       I    between atoms: N_49  and  C_50 
REMARK       I    between atoms: C_50  and  N_53 
REMARK       I    between atoms: N_54  and  C_55 
REMARK   27  A    between atoms: C_55  and  C_57 
REMARK   28  A    between atoms: C_57  and  N_59 
REMARK       I    between atoms: N_59  and  C_60 
REMARK   29  A    between atoms: C_60  and  C_62 
REMARK   30  A    between atoms: C_62  and  C_63 
REMARK   31  A    between atoms: C_62  and  N_72 
REMARK   32  A    between atoms: C_63  and  S_64 
REMARK   33  A    between atoms: S_64  and  S_65 
REMARK   34  A    between atoms: S_65  and  C_66 
REMARK   35  A    between atoms: C_66  and  C_67 
REMARK   36  A    between atoms: C_67  and  C_68 
REMARK   37  A    between atoms: C_67  and  N_71 
REMARK   38  A    between atoms: C_68  and  O_70 
REMARK       I    between atoms: N_72  and  C_73 
ROOT
HETATM    1  C   UNK N   1      25.907  14.822   5.195  0.00  0.00     0.176 C 
ENDROOT
BRANCH   1   2
HETATM    2  C   UNK N   1      25.696  15.146   6.659  0.00  0.00     0.241 C 
HETATM    3  N   UNK N   1      24.663  14.569   7.329  0.00  0.00    -0.346 N 
HETATM    4  H   UNK N   1      24.588  14.729   8.298  0.00  0.00     0.163 HD
HETATM    5  O   UNK N   1      26.462  15.878   7.254  0.00  0.00    -0.271 OA
BRANCH   3   6
HETATM    6  C   UNK N   1      23.665  13.730   6.690  0.00  0.00     0.176 C 
BRANCH   6   7
HETATM    7  C   UNK N   1      22.424  14.521   6.349  0.00  0.00     0.241 C 
HETATM    8  N   UNK N   1      22.167  15.659   7.058  0.00  0.00    -0.346 N 
HETATM    9  H   UNK N   1      22.900  16.015   7.609  0.00  0.00     0.163 HD
HETATM   10  O   UNK N   1      21.643  14.107   5.511  0.00  0.00    -0.271 OA
BRANCH   8  11
HETATM   11  C   UNK N   1      20.928  16.383   7.074  0.00  0.00     0.172 C 
HETATM   12  C   UNK N   1      20.327  16.484   8.466  0.00  0.00     0.042 C 
BRANCH  11  13
HETATM   13  C   UNK N   1      21.182  17.703   6.443  0.00  0.00     0.240 C 
HETATM   14  O   UNK N   1      21.176  18.712   7.138  0.00  0.00    -0.271 OA
HETATM   15  N   UNK N   1      21.533  17.771   5.133  0.00  0.00    -0.346 N 
HETATM   16  H   UNK N   1      21.501  16.955   4.583  0.00  0.00     0.163 HD
BRANCH  15  17
HETATM   17  C   UNK N   1      21.952  19.019   4.525  0.00  0.00     0.176 C 
BRANCH  17  18
HETATM   18  C   UNK N   1      23.318  18.792   3.849  0.00  0.00     0.036 C 
BRANCH  18  19
HETATM   19  C   UNK N   1      24.098  20.048   3.467  0.00  0.00     0.023 C 
BRANCH  19  20
HETATM   20  C   UNK N   1      25.602  19.834   3.530  0.00  0.00     0.138 C 
BRANCH  20  21
HETATM   21  N   UNK N   1      26.134  20.535   4.671  0.00  0.00    -0.227 N 
HETATM   22  C   UNK N   1      26.407  19.878   5.895  0.00  0.00     0.665 C 
HETATM   23  N   UNK N   1      26.500  18.599   5.945  0.00  0.00    -0.235 N 
HETATM   24  N   UNK N   1      26.468  20.633   7.084  0.00  0.00    -0.235 N 
HETATM   25  H   UNK N   1      26.320  17.758   6.423  0.00  0.00     0.174 HD
ATOM     26  HN  UNK N   1      26.989  18.329   5.093  1.00  0.00     0.174 HD
HETATM   27  H   UNK N   1      25.960  21.445   7.315  0.00  0.00     0.174 HD
HETATM   28  H   UNK N   1      27.096  20.308   7.769  0.00  0.00     0.174 HD
HETATM   29  H   UNK N   1      26.313  21.501   4.596  0.00  0.00     0.177 HD
ENDBRANCH  20  21
ENDBRANCH  19  20
ENDBRANCH  18  19
ENDBRANCH  17  18
BRANCH  17  30
HETATM   30  C   UNK N   1      20.842  19.539   3.628  0.00  0.00     0.238 C 
HETATM   31  O   UNK N   1      20.691  20.736   3.441  0.00  0.00    -0.271 OA
HETATM   32  N   UNK N   1      20.008  18.666   3.030  0.00  0.00    -0.368 N 
HETATM   33  H   UNK N   1      19.137  18.234   3.190  0.00  0.00     0.159 HD
HETATM   34  H   UNK N   1      20.383  18.371   2.169  0.00  0.00     0.159 HD
ENDBRANCH  17  30
ENDBRANCH  15  17
ENDBRANCH  11  13
ENDBRANCH   8  11
ENDBRANCH   6   7
BRANCH   6  35
HETATM   35  C   UNK N   1      23.258  12.632   7.668  0.00  0.00     0.036 C 
BRANCH  35  36
HETATM   36  C   UNK N   1      21.763  12.706   7.978  0.00  0.00     0.023 C 
BRANCH  36  37
HETATM   37  C   UNK N   1      21.550  13.116   9.427  0.00  0.00     0.138 C 
BRANCH  37  38
HETATM   38  N   UNK N   1      22.777  12.942  10.159  0.00  0.00    -0.227 N 
HETATM   39  C   UNK N   1      22.823  12.240  11.394  0.00  0.00     0.665 C 
HETATM   40  N   UNK N   1      21.768  11.697  11.881  0.00  0.00    -0.235 N 
HETATM   41  N   UNK N   1      24.024  12.210  12.130  0.00  0.00    -0.235 N 
HETATM   42  H   UNK N   1      21.449  11.024  12.526  0.00  0.00     0.174 HD
ATOM     43  HN  UNK N   1      20.955  12.119  11.432  1.00  0.00     0.174 HD
HETATM   44  H   UNK N   1      24.421  13.049  12.458  0.00  0.00     0.174 HD
HETATM   45  H   UNK N   1      24.466  11.351  12.316  0.00  0.00     0.174 HD
HETATM   46  H   UNK N   1      23.609  13.320   9.793  0.00  0.00     0.177 HD
ENDBRANCH  37  38
ENDBRANCH  36  37
ENDBRANCH  35  36
ENDBRANCH   6  35
ENDBRANCH   3   6
ENDBRANCH   1   2
BRANCH   1  47
HETATM   47  C   UNK N   1      25.151  15.735   4.244  0.00  0.00     0.036 C 
BRANCH  47  48
HETATM   48  C   UNK N   1      25.807  15.676   2.883  0.00  0.00     0.023 C 
BRANCH  48  49
HETATM   49  C   UNK N   1      25.227  14.523   2.098  0.00  0.00     0.138 C 
BRANCH  49  50
HETATM   50  N   UNK N   1      23.802  14.700   1.974  0.00  0.00    -0.227 N 
HETATM   51  C   UNK N   1      22.887  13.763   2.510  0.00  0.00     0.665 C 
HETATM   52  N   UNK N   1      23.305  12.739   3.161  0.00  0.00    -0.235 N 
HETATM   53  N   UNK N   1      21.501  13.962   2.335  0.00  0.00    -0.235 N 
HETATM   54  H   UNK N   1      22.818  12.422   3.956  0.00  0.00     0.174 HD
ATOM     55  HN  UNK N   1      24.146  12.251   2.852  1.00  0.00     0.174 HD
HETATM   56  H   UNK N   1      21.003  14.198   1.519  0.00  0.00     0.174 HD
HETATM   57  H   UNK N   1      20.953  13.850   3.144  0.00  0.00     0.174 HD
HETATM   58  H   UNK N   1      23.457  15.493   1.503  0.00  0.00     0.177 HD
ENDBRANCH  49  50
ENDBRANCH  48  49
ENDBRANCH  47  48
ENDBRANCH   1  47
BRANCH   1  59
HETATM   59  N   UNK N   1      27.335  14.834   5.001  0.00  0.00    -0.346 N 
HETATM   60  C   UNK N   1      27.960  13.702   4.616  0.00  0.00     0.241 C 
HETATM   61  O   UNK N   1      27.428  12.610   4.794  0.00  0.00    -0.271 OA
HETATM   62  H   UNK N   1      27.849  15.660   5.146  0.00  0.00     0.163 HD
BRANCH  60  63
HETATM   63  C   UNK N   1      29.140  13.791   3.731  0.00  0.00     0.176 C 
BRANCH  63  64
HETATM   64  C   UNK N   1      28.815  12.767   2.632  0.00  0.00     0.036 C 
BRANCH  64  65
HETATM   65  C   UNK N   1      29.951  11.920   2.112  0.00  0.00     0.023 C 
BRANCH  65  66
HETATM   66  C   UNK N   1      29.742  10.502   2.634  0.00  0.00     0.138 C 
BRANCH  66  67
HETATM   67  N   UNK N   1      30.710  10.173   3.657  0.00  0.00    -0.227 N 
HETATM   68  C   UNK N   1      30.328  10.008   5.015  0.00  0.00     0.665 C 
HETATM   69  N   UNK N   1      29.100  10.124   5.365  0.00  0.00    -0.235 N 
HETATM   70  N   UNK N   1      31.300   9.673   5.981  0.00  0.00    -0.235 N 
HETATM   71  H   UNK N   1      28.818  10.128   6.309  0.00  0.00     0.174 HD
ATOM     72  HN  UNK N   1      28.388  10.213   4.640  1.00  0.00     0.174 HD
HETATM   73  H   UNK N   1      32.259   9.695   5.760  0.00  0.00     0.174 HD
HETATM   74  H   UNK N   1      31.016   9.414   6.888  0.00  0.00     0.174 HD
HETATM   75  H   UNK N   1      31.655  10.060   3.407  0.00  0.00     0.177 HD
ENDBRANCH  66  67
ENDBRANCH  65  66
ENDBRANCH  64  65
ENDBRANCH  63  64
BRANCH  63  76
HETATM   76  N   UNK N   1      30.263  13.470   4.579  0.00  0.00    -0.346 N 
HETATM   77  C   UNK N   1      31.198  14.353   5.014  0.00  0.00     0.240 C 
HETATM   78  O   UNK N   1      31.011  15.560   4.975  0.00  0.00    -0.271 OA
HETATM   79  H   UNK N   1      30.358  12.533   4.866  0.00  0.00     0.163 HD
BRANCH  77  80
HETATM   80  C   UNK N   1      32.521  13.838   5.422  0.00  0.00     0.172 C 
HETATM   81  C   UNK N   1      33.123  13.016   4.299  0.00  0.00     0.042 C 
BRANCH  80  82
HETATM   82  N   UNK N   1      32.388  13.022   6.599  0.00  0.00    -0.346 N 
HETATM   83  C   UNK N   1      33.154  13.222   7.692  0.00  0.00     0.241 C 
HETATM   84  O   UNK N   1      33.032  12.478   8.651  0.00  0.00    -0.271 OA
HETATM   85  H   UNK N   1      31.720  12.299   6.607  0.00  0.00     0.163 HD
BRANCH  83  86
HETATM   86  C   UNK N   1      34.146  14.356   7.757  0.00  0.00     0.186 C 
BRANCH  86  87
HETATM   87  C   UNK N   1      34.153  15.028   9.133  0.00  0.00     0.120 C 
BRANCH  87  88
HETATM   88  S   UNK N   1      33.635  16.771   9.058  0.00  0.00    -0.095 SA
BRANCH  88  89
HETATM   89  S   UNK N   1      31.675  16.218   8.473  0.00  0.00    -0.095 SA
BRANCH  89  90
HETATM   90  C   UNK N   1      31.150  17.963   8.417  0.00  0.00     0.121 C 
BRANCH  90  91
HETATM   91  C   UNK N   1      29.695  18.100   7.994  0.00  0.00     0.183 C 
BRANCH  91  92
HETATM   92  C   UNK N   1      28.804  18.344   9.183  0.00  0.00     0.163 C 
HETATM   93  O   UNK N   1      29.282  18.605  10.276  0.00  0.00    -0.648 OA
BRANCH  92  94
HETATM   94  O   UNK N   1      27.467  18.279   9.040  0.00  0.00    -0.775 OA
HETATM   95  H   UNK N   1      27.045  17.486   8.772  0.00  0.00     0.167 HD
ENDBRANCH  92  94
ENDBRANCH  91  92
BRANCH  91  96
HETATM   96  N   UNK N   1      29.285  16.920   7.248  0.00  0.00    -0.417 N 
HETATM   97  H   UNK N   1      28.704  16.990   6.413  0.00  0.00     0.150 HD
HETATM   98  H   UNK N   1      29.587  15.999   7.568  0.00  0.00     0.150 HD
ENDBRANCH  91  96
ENDBRANCH  90  91
ENDBRANCH  89  90
ENDBRANCH  88  89
ENDBRANCH  87  88
ENDBRANCH  86  87
BRANCH  86  99
HETATM   99  N   UNK N   1      35.469  13.839   7.490  0.00  0.00    -0.347 N 
HETATM  100  C   UNK N   1      36.267  14.336   6.521  0.00  0.00     0.214 C 
HETATM  101  O   UNK N   1      35.894  15.261   5.818  0.00  0.00    -0.274 OA
HETATM  102  C   UNK N   1      37.616  13.742   6.309  0.00  0.00     0.117 C 
HETATM  103  H   UNK N   1      35.802  13.093   8.040  0.00  0.00     0.163 HD
ENDBRANCH  86  99
ENDBRANCH  83  86
ENDBRANCH  80  82
ENDBRANCH  77  80
ENDBRANCH  63  76
ENDBRANCH  60  63
ENDBRANCH   1  59
TORSDOF 38
ENDMDL
MODEL 7
REMARK VINA RESULT:      -6.3      3.215     10.857
REMARK WARNING: 32 MAX_TORS EXCEEDED!!!
REMARK  38 active torsions:
REMARK  status: ('A' for Active; 'I' for Inactive)
REMARK    1  A    between atoms: C_2  and  C_3 
REMARK    2  A    between atoms: C_2  and  N_18 
REMARK       I    between atoms: C_3  and  N_5 
REMARK    3  A    between atoms: C_6  and  N_5 
REMARK    4  A    between atoms: C_6  and  C_7 
REMARK    5  A    between atoms: C_6  and  C_15 
REMARK    6  A    between atoms: C_7  and  C_8 
REMARK    7  A    between atoms: C_8  and  C_9 
REMARK    8  A    between atoms: C_9  and  N_10 
REMARK       I    between atoms: N_10  and  C_11 
REMARK       I    between atoms: C_11  and  N_14 
REMARK       I    between atoms: C_15  and  N_17 
REMARK       I    between atoms: N_18  and  C_19 
REMARK    9  A    between atoms: C_19  and  C_21 
REMARK   10  A    between atoms: C_21  and  C_22 
REMARK   11  A    between atoms: C_21  and  N_30 
REMARK   12  A    between atoms: C_22  and  C_23 
REMARK   13  A    between atoms: C_23  and  C_24 
REMARK   14  A    between atoms: C_24  and  N_25 
REMARK       I    between atoms: N_25  and  C_26 
REMARK       I    between atoms: C_26  and  N_29 
REMARK       I    between atoms: N_30  and  C_31 
REMARK   15  A    between atoms: C_31  and  C_33 
REMARK   16  A    between atoms: C_33  and  C_34 
REMARK   17  A    between atoms: C_33  and  N_42 
REMARK   18  A    between atoms: C_34  and  C_35 
REMARK   19  A    between atoms: C_35  and  C_36 
REMARK   20  A    between atoms: C_36  and  N_37 
REMARK       I    between atoms: N_37  and  C_38 
REMARK       I    between atoms: C_38  and  N_41 
REMARK       I    between atoms: N_42  and  C_43 
REMARK   21  A    between atoms: C_43  and  C_45 
REMARK   22  A    between atoms: C_45  and  C_46 
REMARK   23  A    between atoms: C_45  and  N_54 
REMARK   24  A    between atoms: C_46  and  C_47 
REMARK   25  A    between atoms: C_47  and  C_48 
REMARK   26  A    between atoms: C_48  and  N_49 
REMARK       I    between atoms: N_49  and  C_50 
REMARK       I    between atoms: C_50  and  N_53 
REMARK       I    between atoms: N_54  and  C_55 
REMARK   27  A    between atoms: C_55  and  C_57 
REMARK   28  A    between atoms: C_57  and  N_59 
REMARK       I    between atoms: N_59  and  C_60 
REMARK   29  A    between atoms: C_60  and  C_62 
REMARK   30  A    between atoms: C_62  and  C_63 
REMARK   31  A    between atoms: C_62  and  N_72 
REMARK   32  A    between atoms: C_63  and  S_64 
REMARK   33  A    between atoms: S_64  and  S_65 
REMARK   34  A    between atoms: S_65  and  C_66 
REMARK   35  A    between atoms: C_66  and  C_67 
REMARK   36  A    between atoms: C_67  and  C_68 
REMARK   37  A    between atoms: C_67  and  N_71 
REMARK   38  A    between atoms: C_68  and  O_70 
REMARK       I    between atoms: N_72  and  C_73 
ROOT
HETATM    1  C   UNK N   1      25.791  15.098   4.953  0.00  0.00     0.176 C 
ENDROOT
BRANCH   1   2
HETATM    2  C   UNK N   1      25.299  15.379   3.549  0.00  0.00     0.241 C 
HETATM    3  N   UNK N   1      24.327  16.309   3.355  0.00  0.00    -0.346 N 
HETATM    4  H   UNK N   1      24.074  16.536   2.431  0.00  0.00     0.163 HD
HETATM    5  O   UNK N   1      25.790  14.817   2.589  0.00  0.00    -0.271 OA
BRANCH   3   6
HETATM    6  C   UNK N   1      23.641  16.987   4.442  0.00  0.00     0.176 C 
BRANCH   6   7
HETATM    7  C   UNK N   1      22.148  17.012   4.215  0.00  0.00     0.241 C 
HETATM    8  N   UNK N   1      21.370  16.151   4.933  0.00  0.00    -0.346 N 
HETATM    9  H   UNK N   1      21.791  15.706   5.703  0.00  0.00     0.163 HD
HETATM   10  O   UNK N   1      21.670  17.735   3.360  0.00  0.00    -0.271 OA
BRANCH   8  11
HETATM   11  C   UNK N   1      19.995  15.834   4.670  0.00  0.00     0.172 C 
HETATM   12  C   UNK N   1      19.815  14.442   4.086  0.00  0.00     0.042 C 
BRANCH  11  13
HETATM   13  C   UNK N   1      19.246  16.044   5.935  0.00  0.00     0.240 C 
HETATM   14  O   UNK N   1      18.023  15.969   5.930  0.00  0.00    -0.271 OA
HETATM   15  N   UNK N   1      19.920  16.201   7.103  0.00  0.00    -0.346 N 
HETATM   16  H   UNK N   1      20.901  16.292   7.084  0.00  0.00     0.163 HD
BRANCH  15  17
HETATM   17  C   UNK N   1      19.230  16.240   8.378  0.00  0.00     0.176 C 
BRANCH  17  18
HETATM   18  C   UNK N   1      19.880  15.200   9.311  0.00  0.00     0.036 C 
BRANCH  18  19
HETATM   19  C   UNK N   1      21.305  14.776   8.959  0.00  0.00     0.023 C 
BRANCH  19  20
HETATM   20  C   UNK N   1      21.498  13.270   9.055  0.00  0.00     0.138 C 
BRANCH  20  21
HETATM   21  N   UNK N   1      21.469  12.875  10.439  0.00  0.00    -0.227 N 
HETATM   22  C   UNK N   1      22.633  12.445  11.122  0.00  0.00     0.665 C 
HETATM   23  N   UNK N   1      23.799  12.692  10.646  0.00  0.00    -0.235 N 
HETATM   24  N   UNK N   1      22.501  11.645  12.275  0.00  0.00    -0.235 N 
HETATM   25  H   UNK N   1      24.723  12.395  10.478  0.00  0.00     0.174 HD
ATOM     26  HN  UNK N   1      23.743  13.635  10.263  1.00  0.00     0.174 HD
HETATM   27  H   UNK N   1      21.803  10.981  12.477  0.00  0.00     0.174 HD
HETATM   28  H   UNK N   1      23.193  11.767  12.965  0.00  0.00     0.174 HD
HETATM   29  H   UNK N   1      20.614  12.904  10.926  0.00  0.00     0.177 HD
ENDBRANCH  20  21
ENDBRANCH  19  20
ENDBRANCH  18  19
ENDBRANCH  17  18
BRANCH  17  30
HETATM   30  C   UNK N   1      19.199  17.669   8.890  0.00  0.00     0.238 C 
HETATM   31  O   UNK N   1      20.165  18.405   8.767  0.00  0.00    -0.271 OA
HETATM   32  N   UNK N   1      18.086  18.134   9.492  0.00  0.00    -0.368 N 
HETATM   33  H   UNK N   1      17.705  18.220  10.396  0.00  0.00     0.159 HD
HETATM   34  H   UNK N   1      17.464  18.501   8.823  0.00  0.00     0.159 HD
ENDBRANCH  17  30
ENDBRANCH  15  17
ENDBRANCH  11  13
ENDBRANCH   8  11
ENDBRANCH   6   7
BRANCH   6  35
HETATM   35  C   UNK N   1      24.125  18.433   4.492  0.00  0.00     0.036 C 
BRANCH  35  36
HETATM   36  C   UNK N   1      25.359  18.625   3.610  0.00  0.00     0.023 C 
BRANCH  36  37
HETATM   37  C   UNK N   1      26.374  19.509   4.317  0.00  0.00     0.138 C 
BRANCH  37  38
HETATM   38  N   UNK N   1      25.986  19.679   5.692  0.00  0.00    -0.227 N 
HETATM   39  C   UNK N   1      26.588  20.656   6.529  0.00  0.00     0.665 C 
HETATM   40  N   UNK N   1      27.479  21.456   6.069  0.00  0.00    -0.235 N 
HETATM   41  N   UNK N   1      26.261  20.692   7.899  0.00  0.00    -0.235 N 
HETATM   42  H   UNK N   1      27.939  22.311   6.238  0.00  0.00     0.174 HD
ATOM     43  HN  UNK N   1      27.849  21.061   5.205  1.00  0.00     0.174 HD
HETATM   44  H   UNK N   1      26.453  19.915   8.472  0.00  0.00     0.174 HD
HETATM   45  H   UNK N   1      25.841  21.495   8.284  0.00  0.00     0.174 HD
HETATM   46  H   UNK N   1      25.281  19.101   6.064  0.00  0.00     0.177 HD
ENDBRANCH  37  38
ENDBRANCH  36  37
ENDBRANCH  35  36
ENDBRANCH   6  35
ENDBRANCH   3   6
ENDBRANCH   1   2
BRANCH   1  47
HETATM   47  C   UNK N   1      25.642  13.647   5.383  0.00  0.00     0.036 C 
BRANCH  47  48
HETATM   48  C   UNK N   1      24.497  13.544   6.365  0.00  0.00     0.023 C 
BRANCH  48  49
HETATM   49  C   UNK N   1      24.570  12.215   7.080  0.00  0.00     0.138 C 
BRANCH  49  50
HETATM   50  N   UNK N   1      23.417  11.423   6.733  0.00  0.00    -0.227 N 
HETATM   51  C   UNK N   1      23.500  10.353   5.811  0.00  0.00     0.665 C 
HETATM   52  N   UNK N   1      24.624  10.030   5.282  0.00  0.00    -0.235 N 
HETATM   53  N   UNK N   1      22.336   9.628   5.477  0.00  0.00    -0.235 N 
HETATM   54  H   UNK N   1      24.851   9.084   5.133  0.00  0.00     0.174 HD
ATOM     55  HN  UNK N   1      25.285  10.759   5.014  1.00  0.00     0.174 HD
HETATM   56  H   UNK N   1      21.443   9.960   5.231  0.00  0.00     0.174 HD
HETATM   57  H   UNK N   1      22.431   8.649   5.493  0.00  0.00     0.174 HD
HETATM   58  H   UNK N   1      22.549  11.634   7.148  0.00  0.00     0.177 HD
ENDBRANCH  49  50
ENDBRANCH  48  49
ENDBRANCH  47  48
ENDBRANCH   1  47
BRANCH   1  59
HETATM   59  N   UNK N   1      27.151  15.577   4.986  0.00  0.00    -0.346 N 
HETATM   60  C   UNK N   1      27.554  16.354   6.012  0.00  0.00     0.241 C 
HETATM   61  O   UNK N   1      26.729  16.960   6.691  0.00  0.00    -0.271 OA
HETATM   62  H   UNK N   1      27.779  15.339   4.267  0.00  0.00     0.163 HD
BRANCH  60  63
HETATM   63  C   UNK N   1      28.946  16.250   6.496  0.00  0.00     0.176 C 
BRANCH  63  64
HETATM   64  C   UNK N   1      29.387  17.720   6.573  0.00  0.00     0.036 C 
BRANCH  64  65
HETATM   65  C   UNK N   1      29.759  18.265   7.930  0.00  0.00     0.023 C 
BRANCH  65  66
HETATM   66  C   UNK N   1      29.719  17.101   8.917  0.00  0.00     0.138 C 
BRANCH  66  67
HETATM   67  N   UNK N   1      31.029  16.511   9.084  0.00  0.00    -0.227 N 
HETATM   68  C   UNK N   1      31.337  15.692  10.202  0.00  0.00     0.665 C 
HETATM   69  N   UNK N   1      30.445  15.433  11.086  0.00  0.00    -0.235 N 
HETATM   70  N   UNK N   1      32.622  15.123  10.322  0.00  0.00    -0.235 N 
HETATM   71  H   UNK N   1      30.655  14.965  11.927  0.00  0.00     0.174 HD
ATOM     72  HN  UNK N   1      29.481  15.721  10.912  1.00  0.00     0.174 HD
HETATM   73  H   UNK N   1      33.354  15.400   9.724  0.00  0.00     0.174 HD
HETATM   74  H   UNK N   1      32.790  14.440  11.011  0.00  0.00     0.174 HD
HETATM   75  H   UNK N   1      31.723  16.681   8.407  0.00  0.00     0.177 HD
ENDBRANCH  66  67
ENDBRANCH  65  66
ENDBRANCH  64  65
ENDBRANCH  63  64
BRANCH  63  76
HETATM   76  N   UNK N   1      29.620  15.441   5.508  0.00  0.00    -0.346 N 
HETATM   77  C   UNK N   1      30.832  14.850   5.670  0.00  0.00     0.240 C 
HETATM   78  O   UNK N   1      31.331  14.697   6.775  0.00  0.00    -0.271 OA
HETATM   79  H   UNK N   1      29.165  15.308   4.647  0.00  0.00     0.163 HD
BRANCH  77  80
HETATM   80  C   UNK N   1      31.616  14.503   4.468  0.00  0.00     0.172 C 
HETATM   81  C   UNK N   1      31.097  15.279   3.272  0.00  0.00     0.042 C 
BRANCH  80  82
HETATM   82  N   UNK N   1      31.515  13.092   4.208  0.00  0.00    -0.346 N 
HETATM   83  C   UNK N   1      32.602  12.343   3.927  0.00  0.00     0.241 C 
HETATM   84  O   UNK N   1      32.461  11.158   3.673  0.00  0.00    -0.271 OA
HETATM   85  H   UNK N   1      30.630  12.662   4.235  0.00  0.00     0.163 HD
BRANCH  83  86
HETATM   86  C   UNK N   1      33.988  12.937   3.936  0.00  0.00     0.186 C 
BRANCH  86  87
HETATM   87  C   UNK N   1      34.879  12.285   4.997  0.00  0.00     0.120 C 
BRANCH  87  88
HETATM   88  S   UNK N   1      34.714  13.076   6.627  0.00  0.00    -0.095 SA
BRANCH  88  89
HETATM   89  S   UNK N   1      35.151  14.980   5.806  0.00  0.00    -0.095 SA
BRANCH  89  90
HETATM   90  C   UNK N   1      34.544  15.818   7.307  0.00  0.00     0.121 C 
BRANCH  90  91
HETATM   91  C   UNK N   1      34.355  17.310   7.081  0.00  0.00     0.183 C 
BRANCH  91  92
HETATM   92  C   UNK N   1      34.537  18.081   8.360  0.00  0.00     0.163 C 
HETATM   93  O   UNK N   1      35.166  19.128   8.372  0.00  0.00    -0.648 OA
BRANCH  92  94
HETATM   94  O   UNK N   1      33.999  17.616   9.503  0.00  0.00    -0.775 OA
HETATM   95  H   UNK N   1      33.191  17.956   9.834  0.00  0.00     0.167 HD
ENDBRANCH  92  94
ENDBRANCH  91  92
BRANCH  91  96
HETATM   96  N   UNK N   1      33.051  17.557   6.483  0.00  0.00    -0.417 N 
HETATM   97  H   UNK N   1      32.575  16.850   5.924  0.00  0.00     0.150 HD
HETATM   98  H   UNK N   1      32.602  18.462   6.628  0.00  0.00     0.150 HD
ENDBRANCH  91  96
ENDBRANCH  90  91
ENDBRANCH  89  90
ENDBRANCH  88  89
ENDBRANCH  87  88
ENDBRANCH  86  87
BRANCH  86  99
HETATM   99  N   UNK N   1      34.594  12.739   2.640  0.00  0.00    -0.347 N 
HETATM  100  C   UNK N   1      34.660  13.712   1.706  0.00  0.00     0.214 C 
HETATM  101  O   UNK N   1      34.202  14.822   1.927  0.00  0.00    -0.274 OA
HETATM  102  C   UNK N   1      35.298  13.422   0.392  0.00  0.00     0.117 C 
HETATM  103  H   UNK N   1      34.974  11.855   2.428  0.00  0.00     0.163 HD
ENDBRANCH  86  99
ENDBRANCH  83  86
ENDBRANCH  80  82
ENDBRANCH  77  80
ENDBRANCH  63  76
ENDBRANCH  60  63
ENDBRANCH   1  59
TORSDOF 38
ENDMDL
MODEL 8
REMARK VINA RESULT:      -6.2      2.648      5.490
REMARK WARNING: 32 MAX_TORS EXCEEDED!!!
REMARK  38 active torsions:
REMARK  status: ('A' for Active; 'I' for Inactive)
REMARK    1  A    between atoms: C_2  and  C_3 
REMARK    2  A    between atoms: C_2  and  N_18 
REMARK       I    between atoms: C_3  and  N_5 
REMARK    3  A    between atoms: C_6  and  N_5 
REMARK    4  A    between atoms: C_6  and  C_7 
REMARK    5  A    between atoms: C_6  and  C_15 
REMARK    6  A    between atoms: C_7  and  C_8 
REMARK    7  A    between atoms: C_8  and  C_9 
REMARK    8  A    between atoms: C_9  and  N_10 
REMARK       I    between atoms: N_10  and  C_11 
REMARK       I    between atoms: C_11  and  N_14 
REMARK       I    between atoms: C_15  and  N_17 
REMARK       I    between atoms: N_18  and  C_19 
REMARK    9  A    between atoms: C_19  and  C_21 
REMARK   10  A    between atoms: C_21  and  C_22 
REMARK   11  A    between atoms: C_21  and  N_30 
REMARK   12  A    between atoms: C_22  and  C_23 
REMARK   13  A    between atoms: C_23  and  C_24 
REMARK   14  A    between atoms: C_24  and  N_25 
REMARK       I    between atoms: N_25  and  C_26 
REMARK       I    between atoms: C_26  and  N_29 
REMARK       I    between atoms: N_30  and  C_31 
REMARK   15  A    between atoms: C_31  and  C_33 
REMARK   16  A    between atoms: C_33  and  C_34 
REMARK   17  A    between atoms: C_33  and  N_42 
REMARK   18  A    between atoms: C_34  and  C_35 
REMARK   19  A    between atoms: C_35  and  C_36 
REMARK   20  A    between atoms: C_36  and  N_37 
REMARK       I    between atoms: N_37  and  C_38 
REMARK       I    between atoms: C_38  and  N_41 
REMARK       I    between atoms: N_42  and  C_43 
REMARK   21  A    between atoms: C_43  and  C_45 
REMARK   22  A    between atoms: C_45  and  C_46 
REMARK   23  A    between atoms: C_45  and  N_54 
REMARK   24  A    between atoms: C_46  and  C_47 
REMARK   25  A    between atoms: C_47  and  C_48 
REMARK   26  A    between atoms: C_48  and  N_49 
REMARK       I    between atoms: N_49  and  C_50 
REMARK       I    between atoms: C_50  and  N_53 
REMARK       I    between atoms: N_54  and  C_55 
REMARK   27  A    between atoms: C_55  and  C_57 
REMARK   28  A    between atoms: C_57  and  N_59 
REMARK       I    between atoms: N_59  and  C_60 
REMARK   29  A    between atoms: C_60  and  C_62 
REMARK   30  A    between atoms: C_62  and  C_63 
REMARK   31  A    between atoms: C_62  and  N_72 
REMARK   32  A    between atoms: C_63  and  S_64 
REMARK   33  A    between atoms: S_64  and  S_65 
REMARK   34  A    between atoms: S_65  and  C_66 
REMARK   35  A    between atoms: C_66  and  C_67 
REMARK   36  A    between atoms: C_67  and  C_68 
REMARK   37  A    between atoms: C_67  and  N_71 
REMARK   38  A    between atoms: C_68  and  O_70 
REMARK       I    between atoms: N_72  and  C_73 
ROOT
HETATM    1  C   UNK N   1      25.496  15.542   5.814  0.00  0.00     0.176 C 
ENDROOT
BRANCH   1   2
HETATM    2  C   UNK N   1      26.220  15.611   7.142  0.00  0.00     0.241 C 
HETATM    3  N   UNK N   1      27.298  16.430   7.273  0.00  0.00    -0.346 N 
HETATM    4  H   UNK N   1      27.709  16.523   8.163  0.00  0.00     0.163 HD
HETATM    5  O   UNK N   1      25.827  14.981   8.103  0.00  0.00    -0.271 OA
BRANCH   3   6
HETATM    6  C   UNK N   1      27.875  17.175   6.168  0.00  0.00     0.176 C 
BRANCH   6   7
HETATM    7  C   UNK N   1      29.010  16.410   5.528  0.00  0.00     0.241 C 
HETATM    8  N   UNK N   1      30.277  16.900   5.663  0.00  0.00    -0.346 N 
HETATM    9  H   UNK N   1      30.413  17.605   6.336  0.00  0.00     0.163 HD
HETATM   10  O   UNK N   1      28.781  15.424   4.851  0.00  0.00    -0.271 OA
BRANCH   8  11
HETATM   11  C   UNK N   1      31.429  16.482   4.916  0.00  0.00     0.172 C 
HETATM   12  C   UNK N   1      32.363  17.635   4.586  0.00  0.00     0.042 C 
BRANCH  11  13
HETATM   13  C   UNK N   1      32.083  15.394   5.687  0.00  0.00     0.240 C 
HETATM   14  O   UNK N   1      32.198  14.284   5.182  0.00  0.00    -0.271 OA
HETATM   15  N   UNK N   1      32.649  15.664   6.891  0.00  0.00    -0.346 N 
HETATM   16  H   UNK N   1      32.518  16.553   7.296  0.00  0.00     0.163 HD
BRANCH  15  17
HETATM   17  C   UNK N   1      33.440  14.675   7.596  0.00  0.00     0.176 C 
BRANCH  17  18
HETATM   18  C   UNK N   1      34.848  15.257   7.827  0.00  0.00     0.036 C 
BRANCH  18  19
HETATM   19  C   UNK N   1      36.017  14.297   7.617  0.00  0.00     0.023 C 
BRANCH  19  20
HETATM   20  C   UNK N   1      36.520  13.706   8.925  0.00  0.00     0.138 C 
BRANCH  20  21
HETATM   21  N   UNK N   1      36.371  14.681   9.975  0.00  0.00    -0.227 N 
HETATM   22  C   UNK N   1      36.784  14.421  11.304  0.00  0.00     0.665 C 
HETATM   23  N   UNK N   1      37.587  13.454  11.563  0.00  0.00    -0.235 N 
HETATM   24  N   UNK N   1      36.218  15.164  12.360  0.00  0.00    -0.235 N 
HETATM   25  H   UNK N   1      37.854  12.714  12.154  0.00  0.00     0.174 HD
ATOM     26  HN  UNK N   1      38.265  13.453  10.801  1.00  0.00     0.174 HD
HETATM   27  H   UNK N   1      35.308  15.535  12.423  0.00  0.00     0.174 HD
HETATM   28  H   UNK N   1      36.806  15.333  13.131  0.00  0.00     0.174 HD
HETATM   29  H   UNK N   1      35.970  15.554   9.761  0.00  0.00     0.177 HD
ENDBRANCH  20  21
ENDBRANCH  19  20
ENDBRANCH  18  19
ENDBRANCH  17  18
BRANCH  17  30
HETATM   30  C   UNK N   1      32.692  14.224   8.838  0.00  0.00     0.238 C 
HETATM   31  O   UNK N   1      32.231  13.097   8.923  0.00  0.00    -0.271 OA
HETATM   32  N   UNK N   1      32.532  15.082   9.865  0.00  0.00    -0.368 N 
HETATM   33  H   UNK N   1      31.879  15.743  10.193  0.00  0.00     0.159 HD
HETATM   34  H   UNK N   1      33.304  15.033  10.474  0.00  0.00     0.159 HD
ENDBRANCH  17  30
ENDBRANCH  15  17
ENDBRANCH  11  13
ENDBRANCH   8  11
ENDBRANCH   6   7
BRANCH   6  35
HETATM   35  C   UNK N   1      28.447  18.481   6.711  0.00  0.00     0.036 C 
BRANCH  35  36
HETATM   36  C   UNK N   1      27.457  19.630   6.519  0.00  0.00     0.023 C 
BRANCH  36  37
HETATM   37  C   UNK N   1      27.266  19.913   5.037  0.00  0.00     0.138 C 
BRANCH  37  38
HETATM   38  N   UNK N   1      25.867  19.839   4.711  0.00  0.00    -0.227 N 
HETATM   39  C   UNK N   1      25.353  20.333   3.482  0.00  0.00     0.665 C 
HETATM   40  N   UNK N   1      26.135  20.830   2.595  0.00  0.00    -0.235 N 
HETATM   41  N   UNK N   1      23.960  20.352   3.270  0.00  0.00    -0.235 N 
HETATM   42  H   UNK N   1      26.203  21.064   1.641  0.00  0.00     0.174 HD
ATOM     43  HN  UNK N   1      27.017  21.073   3.047  1.00  0.00     0.174 HD
HETATM   44  H   UNK N   1      23.379  20.883   3.861  0.00  0.00     0.174 HD
HETATM   45  H   UNK N   1      23.568  19.834   2.531  0.00  0.00     0.174 HD
HETATM   46  H   UNK N   1      25.246  19.433   5.359  0.00  0.00     0.177 HD
ENDBRANCH  37  38
ENDBRANCH  36  37
ENDBRANCH  35  36
ENDBRANCH   6  35
ENDBRANCH   3   6
ENDBRANCH   1   2
BRANCH   1  47
HETATM   47  C   UNK N   1      25.047  14.142   5.427  0.00  0.00     0.036 C 
BRANCH  47  48
HETATM   48  C   UNK N   1      26.258  13.238   5.373  0.00  0.00     0.023 C 
BRANCH  48  49
HETATM   49  C   UNK N   1      26.512  12.828   3.940  0.00  0.00     0.138 C 
BRANCH  49  50
HETATM   50  N   UNK N   1      25.883  13.775   3.055  0.00  0.00    -0.227 N 
HETATM   51  C   UNK N   1      26.641  14.619   2.209  0.00  0.00     0.665 C 
HETATM   52  N   UNK N   1      27.922  14.536   2.179  0.00  0.00    -0.235 N 
HETATM   53  N   UNK N   1      25.981  15.555   1.383  0.00  0.00    -0.235 N 
HETATM   54  H   UNK N   1      28.407  14.631   1.327  0.00  0.00     0.174 HD
ATOM     55  HN  UNK N   1      28.439  14.371   3.042  1.00  0.00     0.174 HD
HETATM   56  H   UNK N   1      25.262  16.187   1.609  0.00  0.00     0.174 HD
HETATM   57  H   UNK N   1      26.284  15.578   0.447  0.00  0.00     0.174 HD
HETATM   58  H   UNK N   1      24.900  13.837   3.040  0.00  0.00     0.177 HD
ENDBRANCH  49  50
ENDBRANCH  48  49
ENDBRANCH  47  48
ENDBRANCH   1  47
BRANCH   1  59
HETATM   59  N   UNK N   1      24.416  16.492   5.916  0.00  0.00    -0.346 N 
HETATM   60  C   UNK N   1      23.941  17.075   4.797  0.00  0.00     0.241 C 
HETATM   61  O   UNK N   1      24.628  17.114   3.779  0.00  0.00    -0.271 OA
HETATM   62  H   UNK N   1      24.029  16.711   6.793  0.00  0.00     0.163 HD
BRANCH  60  63
HETATM   63  C   UNK N   1      22.504  17.408   4.707  0.00  0.00     0.176 C 
BRANCH  63  64
HETATM   64  C   UNK N   1      21.916  16.697   5.936  0.00  0.00     0.036 C 
BRANCH  64  65
HETATM   65  C   UNK N   1      20.906  17.456   6.762  0.00  0.00     0.023 C 
BRANCH  65  66
HETATM   66  C   UNK N   1      20.595  16.611   7.994  0.00  0.00     0.138 C 
BRANCH  66  67
HETATM   67  N   UNK N   1      19.183  16.645   8.309  0.00  0.00    -0.227 N 
HETATM   68  C   UNK N   1      18.627  17.678   9.109  0.00  0.00     0.665 C 
HETATM   69  N   UNK N   1      19.365  18.627   9.556  0.00  0.00    -0.235 N 
HETATM   70  N   UNK N   1      17.242  17.685   9.382  0.00  0.00    -0.235 N 
HETATM   71  H   UNK N   1      19.035  19.292  10.203  0.00  0.00     0.174 HD
ATOM     72  HN  UNK N   1      20.329  18.696   9.227  1.00  0.00     0.174 HD
HETATM   73  H   UNK N   1      16.680  16.911   9.152  0.00  0.00     0.174 HD
HETATM   74  H   UNK N   1      16.834  18.473   9.807  0.00  0.00     0.174 HD
HETATM   75  H   UNK N   1      18.595  15.938   7.960  0.00  0.00     0.177 HD
ENDBRANCH  66  67
ENDBRANCH  65  66
ENDBRANCH  64  65
ENDBRANCH  63  64
BRANCH  63  76
HETATM   76  N   UNK N   1      22.086  16.896   3.424  0.00  0.00    -0.346 N 
HETATM   77  C   UNK N   1      20.850  17.043   2.884  0.00  0.00     0.240 C 
HETATM   78  O   UNK N   1      20.061  17.880   3.298  0.00  0.00    -0.271 OA
HETATM   79  H   UNK N   1      22.753  16.399   2.898  0.00  0.00     0.163 HD
BRANCH  77  80
HETATM   80  C   UNK N   1      20.407  16.079   1.856  0.00  0.00     0.172 C 
HETATM   81  C   UNK N   1      19.984  16.819   0.602  0.00  0.00     0.042 C 
BRANCH  80  82
HETATM   82  N   UNK N   1      19.302  15.305   2.355  0.00  0.00    -0.346 N 
HETATM   83  C   UNK N   1      19.488  14.124   2.983  0.00  0.00     0.241 C 
HETATM   84  O   UNK N   1      18.516  13.485   3.352  0.00  0.00    -0.271 OA
HETATM   85  H   UNK N   1      18.386  15.645   2.235  0.00  0.00     0.163 HD
BRANCH  83  86
HETATM   86  C   UNK N   1      20.871  13.588   3.251  0.00  0.00     0.186 C 
BRANCH  86  87
HETATM   87  C   UNK N   1      20.856  12.472   4.298  0.00  0.00     0.120 C 
BRANCH  87  88
HETATM   88  S   UNK N   1      20.828  13.116   6.001  0.00  0.00    -0.095 SA
BRANCH  88  89
HETATM   89  S   UNK N   1      22.161  11.602   6.651  0.00  0.00    -0.095 SA
BRANCH  89  90
HETATM   90  C   UNK N   1      22.068  12.195   8.372  0.00  0.00     0.121 C 
BRANCH  90  91
HETATM   91  C   UNK N   1      23.261  11.731   9.192  0.00  0.00     0.183 C 
BRANCH  91  92
HETATM   92  C   UNK N   1      22.947  11.743  10.665  0.00  0.00     0.163 C 
HETATM   93  O   UNK N   1      23.845  11.762  11.492  0.00  0.00    -0.648 OA
BRANCH  92  94
HETATM   94  O   UNK N   1      21.664  11.736  11.074  0.00  0.00    -0.775 OA
HETATM   95  H   UNK N   1      21.444  11.779  11.984  0.00  0.00     0.167 HD
ENDBRANCH  92  94
ENDBRANCH  91  92
BRANCH  91  96
HETATM   96  N   UNK N   1      24.422  12.551   8.882  0.00  0.00    -0.417 N 
HETATM   97  H   UNK N   1      24.426  13.198   8.094  0.00  0.00     0.150 HD
HETATM   98  H   UNK N   1      25.254  12.476   9.468  0.00  0.00     0.150 HD
ENDBRANCH  91  96
ENDBRANCH  90  91
ENDBRANCH  89  90
ENDBRANCH  88  89
ENDBRANCH  87  88
ENDBRANCH  86  87
BRANCH  86  99
HETATM   99  N   UNK N   1      21.417  13.059   2.022  0.00  0.00    -0.347 N 
HETATM  100  C   UNK N   1      22.596  13.471   1.507  0.00  0.00     0.214 C 
HETATM  101  O   UNK N   1      23.261  14.324   2.074  0.00  0.00    -0.274 OA
HETATM  102  C   UNK N   1      23.084  12.877   0.232  0.00  0.00     0.117 C 
HETATM  103  H   UNK N   1      20.907  12.369   1.540  0.00  0.00     0.163 HD
ENDBRANCH  86  99
ENDBRANCH  83  86
ENDBRANCH  80  82
ENDBRANCH  77  80
ENDBRANCH  63  76
ENDBRANCH  60  63
ENDBRANCH   1  59
TORSDOF 38
ENDMDL
MODEL 9
REMARK VINA RESULT:      -6.2      3.293     10.739
REMARK WARNING: 32 MAX_TORS EXCEEDED!!!
REMARK  38 active torsions:
REMARK  status: ('A' for Active; 'I' for Inactive)
REMARK    1  A    between atoms: C_2  and  C_3 
REMARK    2  A    between atoms: C_2  and  N_18 
REMARK       I    between atoms: C_3  and  N_5 
REMARK    3  A    between atoms: C_6  and  N_5 
REMARK    4  A    between atoms: C_6  and  C_7 
REMARK    5  A    between atoms: C_6  and  C_15 
REMARK    6  A    between atoms: C_7  and  C_8 
REMARK    7  A    between atoms: C_8  and  C_9 
REMARK    8  A    between atoms: C_9  and  N_10 
REMARK       I    between atoms: N_10  and  C_11 
REMARK       I    between atoms: C_11  and  N_14 
REMARK       I    between atoms: C_15  and  N_17 
REMARK       I    between atoms: N_18  and  C_19 
REMARK    9  A    between atoms: C_19  and  C_21 
REMARK   10  A    between atoms: C_21  and  C_22 
REMARK   11  A    between atoms: C_21  and  N_30 
REMARK   12  A    between atoms: C_22  and  C_23 
REMARK   13  A    between atoms: C_23  and  C_24 
REMARK   14  A    between atoms: C_24  and  N_25 
REMARK       I    between atoms: N_25  and  C_26 
REMARK       I    between atoms: C_26  and  N_29 
REMARK       I    between atoms: N_30  and  C_31 
REMARK   15  A    between atoms: C_31  and  C_33 
REMARK   16  A    between atoms: C_33  and  C_34 
REMARK   17  A    between atoms: C_33  and  N_42 
REMARK   18  A    between atoms: C_34  and  C_35 
REMARK   19  A    between atoms: C_35  and  C_36 
REMARK   20  A    between atoms: C_36  and  N_37 
REMARK       I    between atoms: N_37  and  C_38 
REMARK       I    between atoms: C_38  and  N_41 
REMARK       I    between atoms: N_42  and  C_43 
REMARK   21  A    between atoms: C_43  and  C_45 
REMARK   22  A    between atoms: C_45  and  C_46 
REMARK   23  A    between atoms: C_45  and  N_54 
REMARK   24  A    between atoms: C_46  and  C_47 
REMARK   25  A    between atoms: C_47  and  C_48 
REMARK   26  A    between atoms: C_48  and  N_49 
REMARK       I    between atoms: N_49  and  C_50 
REMARK       I    between atoms: C_50  and  N_53 
REMARK       I    between atoms: N_54  and  C_55 
REMARK   27  A    between atoms: C_55  and  C_57 
REMARK   28  A    between atoms: C_57  and  N_59 
REMARK       I    between atoms: N_59  and  C_60 
REMARK   29  A    between atoms: C_60  and  C_62 
REMARK   30  A    between atoms: C_62  and  C_63 
REMARK   31  A    between atoms: C_62  and  N_72 
REMARK   32  A    between atoms: C_63  and  S_64 
REMARK   33  A    between atoms: S_64  and  S_65 
REMARK   34  A    between atoms: S_65  and  C_66 
REMARK   35  A    between atoms: C_66  and  C_67 
REMARK   36  A    between atoms: C_67  and  C_68 
REMARK   37  A    between atoms: C_67  and  N_71 
REMARK   38  A    between atoms: C_68  and  O_70 
REMARK       I    between atoms: N_72  and  C_73 
ROOT
HETATM    1  C   UNK N   1      24.038  16.664   4.932  0.00  0.00     0.176 C 
ENDROOT
BRANCH   1   2
HETATM    2  C   UNK N   1      23.530  15.392   5.578  0.00  0.00     0.241 C 
HETATM    3  N   UNK N   1      23.800  14.193   4.996  0.00  0.00    -0.346 N 
HETATM    4  H   UNK N   1      23.531  13.373   5.469  0.00  0.00     0.163 HD
HETATM    5  O   UNK N   1      22.923  15.424   6.630  0.00  0.00    -0.271 OA
BRANCH   3   6
HETATM    6  C   UNK N   1      24.465  14.061   3.711  0.00  0.00     0.176 C 
BRANCH   6   7
HETATM    7  C   UNK N   1      23.672  13.181   2.774  0.00  0.00     0.241 C 
HETATM    8  N   UNK N   1      23.665  13.493   1.445  0.00  0.00    -0.346 N 
HETATM    9  H   UNK N   1      24.335  14.145   1.137  0.00  0.00     0.163 HD
HETATM   10  O   UNK N   1      23.002  12.264   3.212  0.00  0.00    -0.271 OA
BRANCH   8  11
HETATM   11  C   UNK N   1      22.772  12.960   0.456  0.00  0.00     0.172 C 
HETATM   12  C   UNK N   1      22.812  11.441   0.389  0.00  0.00     0.042 C 
BRANCH  11  13
HETATM   13  C   UNK N   1      21.420  13.502   0.746  0.00  0.00     0.240 C 
HETATM   14  O   UNK N   1      20.515  12.733   1.047  0.00  0.00    -0.271 OA
HETATM   15  N   UNK N   1      21.225  14.845   0.790  0.00  0.00    -0.346 N 
HETATM   16  H   UNK N   1      21.954  15.447   0.514  0.00  0.00     0.163 HD
BRANCH  15  17
HETATM   17  C   UNK N   1      19.967  15.414   1.233  0.00  0.00     0.176 C 
BRANCH  17  18
HETATM   18  C   UNK N   1      20.103  15.788   2.722  0.00  0.00     0.036 C 
BRANCH  18  19
HETATM   19  C   UNK N   1      19.393  14.870   3.715  0.00  0.00     0.023 C 
BRANCH  19  20
HETATM   20  C   UNK N   1      20.368  14.142   4.626  0.00  0.00     0.138 C 
BRANCH  20  21
HETATM   21  N   UNK N   1      19.902  14.228   5.986  0.00  0.00    -0.227 N 
HETATM   22  C   UNK N   1      19.980  15.429   6.732  0.00  0.00     0.665 C 
HETATM   23  N   UNK N   1      20.162  16.555   6.142  0.00  0.00    -0.235 N 
HETATM   24  N   UNK N   1      19.966  15.370   8.140  0.00  0.00    -0.235 N 
HETATM   25  H   UNK N   1      20.590  17.441   6.129  0.00  0.00     0.174 HD
ATOM     26  HN  UNK N   1      19.603  16.509   5.291  1.00  0.00     0.174 HD
HETATM   27  H   UNK N   1      20.327  14.662   8.722  0.00  0.00     0.174 HD
HETATM   28  H   UNK N   1      19.543  16.131   8.599  0.00  0.00     0.174 HD
HETATM   29  H   UNK N   1      19.519  13.427   6.411  0.00  0.00     0.177 HD
ENDBRANCH  20  21
ENDBRANCH  19  20
ENDBRANCH  18  19
ENDBRANCH  17  18
BRANCH  17  30
HETATM   30  C   UNK N   1      19.566  16.540   0.296  0.00  0.00     0.238 C 
HETATM   31  O   UNK N   1      20.378  17.372  -0.074  0.00  0.00    -0.271 OA
HETATM   32  N   UNK N   1      18.291  16.624  -0.133  0.00  0.00    -0.368 N 
HETATM   33  H   UNK N   1      17.445  17.061   0.117  0.00  0.00     0.159 HD
HETATM   34  H   UNK N   1      18.168  16.082  -0.947  0.00  0.00     0.159 HD
ENDBRANCH  17  30
ENDBRANCH  15  17
ENDBRANCH  11  13
ENDBRANCH   8  11
ENDBRANCH   6   7
BRANCH   6  35
HETATM   35  C   UNK N   1      25.819  13.394   3.935  0.00  0.00     0.036 C 
BRANCH  35  36
HETATM   36  C   UNK N   1      26.847  13.894   2.918  0.00  0.00     0.023 C 
BRANCH  36  37
HETATM   37  C   UNK N   1      27.339  12.738   2.062  0.00  0.00     0.138 C 
BRANCH  37  38
HETATM   38  N   UNK N   1      28.301  11.967   2.804  0.00  0.00    -0.227 N 
HETATM   39  C   UNK N   1      29.700  12.157   2.647  0.00  0.00     0.665 C 
HETATM   40  N   UNK N   1      30.156  13.062   1.860  0.00  0.00    -0.235 N 
HETATM   41  N   UNK N   1      30.596  11.289   3.301  0.00  0.00    -0.235 N 
HETATM   42  H   UNK N   1      30.955  13.597   1.647  0.00  0.00     0.174 HD
ATOM     43  HN  UNK N   1      29.413  13.328   1.214  1.00  0.00     0.174 HD
HETATM   44  H   UNK N   1      30.586  10.326   3.097  0.00  0.00     0.174 HD
HETATM   45  H   UNK N   1      31.231  11.645   3.963  0.00  0.00     0.174 HD
HETATM   46  H   UNK N   1      27.980  11.287   3.439  0.00  0.00     0.177 HD
ENDBRANCH  37  38
ENDBRANCH  36  37
ENDBRANCH  35  36
ENDBRANCH   6  35
ENDBRANCH   3   6
ENDBRANCH   1   2
BRANCH   1  47
HETATM   47  C   UNK N   1      23.153  17.877   5.174  0.00  0.00     0.036 C 
BRANCH  47  48
HETATM   48  C   UNK N   1      22.931  18.590   3.859  0.00  0.00     0.023 C 
BRANCH  48  49
HETATM   49  C   UNK N   1      21.504  19.085   3.793  0.00  0.00     0.138 C 
BRANCH  49  50
HETATM   50  N   UNK N   1      21.103  19.199   2.413  0.00  0.00    -0.227 N 
HETATM   51  C   UNK N   1      20.858  20.456   1.812  0.00  0.00     0.665 C 
HETATM   52  N   UNK N   1      21.023  21.542   2.475  0.00  0.00    -0.235 N 
HETATM   53  N   UNK N   1      20.434  20.516   0.467  0.00  0.00    -0.235 N 
HETATM   54  H   UNK N   1      21.406  22.338   2.040  0.00  0.00     0.174 HD
ATOM     55  HN  UNK N   1      20.757  21.580   3.459  1.00  0.00     0.174 HD
HETATM   56  H   UNK N   1      19.732  19.999   0.010  0.00  0.00     0.174 HD
HETATM   57  H   UNK N   1      20.910  21.168  -0.096  0.00  0.00     0.174 HD
HETATM   58  H   UNK N   1      20.997  18.380   1.876  0.00  0.00     0.177 HD
ENDBRANCH  49  50
ENDBRANCH  48  49
ENDBRANCH  47  48
ENDBRANCH   1  47
BRANCH   1  59
HETATM   59  N   UNK N   1      25.388  16.825   5.410  0.00  0.00    -0.346 N 
HETATM   60  C   UNK N   1      26.342  17.262   4.563  0.00  0.00     0.241 C 
HETATM   61  O   UNK N   1      26.187  17.160   3.349  0.00  0.00    -0.271 OA
HETATM   62  H   UNK N   1      25.611  16.620   6.347  0.00  0.00     0.163 HD
BRANCH  60  63
HETATM   63  C   UNK N   1      27.434  18.113   5.079  0.00  0.00     0.176 C 
BRANCH  63  64
HETATM   64  C   UNK N   1      27.508  19.237   4.033  0.00  0.00     0.036 C 
BRANCH  64  65
HETATM   65  C   UNK N   1      26.728  20.499   4.312  0.00  0.00     0.023 C 
BRANCH  65  66
HETATM   66  C   UNK N   1      27.427  21.225   5.458  0.00  0.00     0.138 C 
BRANCH  66  67
HETATM   67  N   UNK N   1      26.475  21.665   6.455  0.00  0.00    -0.227 N 
HETATM   68  C   UNK N   1      26.319  20.975   7.686  0.00  0.00     0.665 C 
HETATM   69  N   UNK N   1      27.042  19.951   7.957  0.00  0.00    -0.235 N 
HETATM   70  N   UNK N   1      25.391  21.444   8.640  0.00  0.00    -0.235 N 
HETATM   71  H   UNK N   1      26.882  19.385   8.747  0.00  0.00     0.174 HD
ATOM     72  HN  UNK N   1      27.813  19.714   7.330  1.00  0.00     0.174 HD
HETATM   73  H   UNK N   1      24.746  22.150   8.410  0.00  0.00     0.174 HD
HETATM   74  H   UNK N   1      25.388  21.059   9.546  0.00  0.00     0.174 HD
HETATM   75  H   UNK N   1      25.924  22.460   6.276  0.00  0.00     0.177 HD
ENDBRANCH  66  67
ENDBRANCH  65  66
ENDBRANCH  64  65
ENDBRANCH  63  64
BRANCH  63  76
HETATM   76  N   UNK N   1      28.582  17.240   5.146  0.00  0.00    -0.346 N 
HETATM   77  C   UNK N   1      29.601  17.348   6.037  0.00  0.00     0.240 C 
HETATM   78  O   UNK N   1      29.496  18.011   7.058  0.00  0.00    -0.271 OA
HETATM   79  H   UNK N   1      28.630  16.507   4.492  0.00  0.00     0.163 HD
BRANCH  77  80
HETATM   80  C   UNK N   1      30.907  16.752   5.693  0.00  0.00     0.172 C 
HETATM   81  C   UNK N   1      31.510  17.479   4.506  0.00  0.00     0.042 C 
BRANCH  80  82
HETATM   82  N   UNK N   1      30.742  15.360   5.371  0.00  0.00    -0.346 N 
HETATM   83  C   UNK N   1      31.621  14.425   5.790  0.00  0.00     0.241 C 
HETATM   84  O   UNK N   1      31.459  13.262   5.457  0.00  0.00    -0.271 OA
HETATM   85  H   UNK N   1      29.967  15.082   4.832  0.00  0.00     0.163 HD
BRANCH  83  86
HETATM   86  C   UNK N   1      32.788  14.786   6.673  0.00  0.00     0.186 C 
BRANCH  86  87
HETATM   87  C   UNK N   1      32.574  14.323   8.117  0.00  0.00     0.120 C 
BRANCH  87  88
HETATM   88  S   UNK N   1      32.003  15.668   9.201  0.00  0.00    -0.095 SA
BRANCH  88  89
HETATM   89  S   UNK N   1      33.866  16.664   9.036  0.00  0.00    -0.095 SA
BRANCH  89  90
HETATM   90  C   UNK N   1      34.763  15.174   9.581  0.00  0.00     0.121 C 
BRANCH  90  91
HETATM   91  C   UNK N   1      34.693  14.995  11.090  0.00  0.00     0.183 C 
BRANCH  91  92
HETATM   92  C   UNK N   1      35.979  15.421  11.748  0.00  0.00     0.163 C 
HETATM   93  O   UNK N   1      36.170  15.208  12.935  0.00  0.00    -0.648 OA
BRANCH  92  94
HETATM   94  O   UNK N   1      36.928  16.040  11.021  0.00  0.00    -0.775 OA
HETATM   95  H   UNK N   1      36.743  16.829  10.551  0.00  0.00     0.167 HD
ENDBRANCH  92  94
ENDBRANCH  91  92
BRANCH  91  96
HETATM   96  N   UNK N   1      34.356  13.616  11.408  0.00  0.00    -0.417 N 
HETATM   97  H   UNK N   1      34.988  12.846  11.190  0.00  0.00     0.150 HD
HETATM   98  H   UNK N   1      33.464  13.415  11.860  0.00  0.00     0.150 HD
ENDBRANCH  91  96
ENDBRANCH  90  91
ENDBRANCH  89  90
ENDBRANCH  88  89
ENDBRANCH  87  88
ENDBRANCH  86  87
BRANCH  86  99
HETATM   99  N   UNK N   1      33.981  14.153   6.158  0.00  0.00    -0.347 N 
HETATM  100  C   UNK N   1      35.049  14.852   5.716  0.00  0.00     0.214 C 
HETATM  101  O   UNK N   1      35.048  16.073   5.737  0.00  0.00    -0.274 OA
HETATM  102  C   UNK N   1      36.237  14.121   5.197  0.00  0.00     0.117 C 
HETATM  103  H   UNK N   1      34.016  13.169   6.128  0.00  0.00     0.163 HD
ENDBRANCH  86  99
ENDBRANCH  83  86
ENDBRANCH  80  82
ENDBRANCH  77  80
ENDBRANCH  63  76
ENDBRANCH  60  63
ENDBRANCH   1  59
TORSDOF 38
ENDMDL
