REMARK  5 active torsions:
REMARK  status: ('A' for Active; 'I' for Inactive)
REMARK       I    between atoms: N_9  and  C_12 
REMARK       I    between atoms: C_12  and  N_14 
REMARK    1  A    between atoms: N_14  and  C_15 
REMARK    2  A    between atoms: C_15  and  C_16 
REMARK    3  A    between atoms: N_19  and  C_22 
REMARK    4  A    between atoms: C_22  and  C_23 
REMARK    5  A    between atoms: C_23  and  O_29 
ROOT
HETATM    1  C   UNK N   1       0.927   1.636  -1.051  0.00  0.00     0.030 C 
HETATM    2  C   UNK N   1       1.650   1.095   0.171  0.00  0.00     0.064 A 
HETATM    3  C   UNK N   1       3.065   0.711  -0.137  0.00  0.00    -0.013 A 
HETATM    4  C   UNK N   1       4.106   1.540  -0.561  0.00  0.00     0.014 A 
HETATM    5  C   UNK N   1       5.369   0.971  -0.779  0.00  0.00     0.043 A 
HETATM    6  C   UNK N   1       5.572  -0.407  -0.574  0.00  0.00     0.118 A 
HETATM    7  C   UNK N   1       4.511  -1.221  -0.151  0.00  0.00     0.073 A 
HETATM    8  C   UNK N   1       3.258  -0.635   0.064  0.00  0.00     0.057 A 
HETATM    9  N   UNK N   1       2.064  -1.260   0.495  0.00  0.00    -0.232 N 
HETATM   10  C   UNK N   1       1.124  -0.268   0.575  0.00  0.00     0.245 A 
HETATM   11  O   UNK N   1      -0.017  -0.412   0.969  0.00  0.00    -0.271 OA
HETATM   12  C   UNK N   1       1.992  -2.625   0.777  0.00  0.00     0.329 C 
HETATM   13  O   UNK N   1       3.012  -3.290   0.702  0.00  0.00    -0.246 OA
HETATM   14  N   UNK N   1       0.857  -3.304   1.131  0.00  0.00    -0.342 N 
HETATM   15  F   UNK N   1       6.796  -0.947  -0.782  0.00  0.00    -0.206 F 
HETATM   16  C   UNK N   1       1.579   2.082   1.323  0.00  0.00     0.030 C 
HETATM   17  H   UNK N   1       0.999  -4.240   1.399  0.00  0.00     0.164 HD
ENDROOT
BRANCH  14  18
HETATM   18  C   UNK N   1      -0.508  -2.862   1.172  0.00  0.00     0.129 C 
BRANCH  18  19
HETATM   19  C   UNK N   1      -1.092  -2.870  -0.236  0.00  0.00     0.007 C 
HETATM   20  C   UNK N   1      -1.368  -4.302  -0.697  0.00  0.00     0.036 C 
HETATM   21  C   UNK N   1      -2.574  -4.860   0.050  0.00  0.00     0.273 C 
HETATM   22  N   UNK N   1      -3.742  -4.024  -0.226  0.00  0.00     0.091 N 
HETATM   23  C   UNK N   1      -3.532  -2.719   0.394  0.00  0.00     0.273 C 
HETATM   24  C   UNK N   1      -2.365  -2.018  -0.307  0.00  0.00     0.036 C 
BRANCH  22  25
HETATM   25  C   UNK N   1      -4.893  -4.671   0.390  0.00  0.00     0.310 C 
BRANCH  25  26
HETATM   26  C   UNK N   1      -5.538  -5.701  -0.560  0.00  0.00     0.088 C 
HETATM   27  C   UNK N   1      -5.822  -6.995   0.210  0.00  0.00     0.066 C 
HETATM   28  C   UNK N   1      -7.031  -6.810   1.127  0.00  0.00     0.170 C 
HETATM   29  O   UNK N   1      -8.152  -6.481   0.346  0.00  0.00    -0.391 OA
HETATM   30  C   UNK N   1      -7.949  -5.161  -0.094  0.00  0.00     0.170 C 
HETATM   31  C   UNK N   1      -6.839  -5.141  -1.150  0.00  0.00     0.066 C 
BRANCH  26  32
HETATM   32  O   UNK N   1      -4.676  -6.010  -1.616  0.00  0.00    -0.388 OA
HETATM   33  H   UNK N   1      -4.563  -6.635  -2.349  0.00  0.00     0.210 HD
ENDBRANCH  26  32
ENDBRANCH  25  26
ENDBRANCH  22  25
ENDBRANCH  18  19
ENDBRANCH  14  18
TORSDOF 5
