MODEL 1
REMARK VINA RESULT:      -4.7      0.000      0.000
REMARK  10 active torsions:
REMARK  status: ('A' for Active; 'I' for Inactive)
REMARK    1  A    between atoms: C_1  and  C_2 
REMARK    2  A    between atoms: C_1  and  O_12 
REMARK    3  A    between atoms: C_2  and  C_3 
REMARK    4  A    between atoms: C_2  and  O_11 
REMARK    5  A    between atoms: C_3  and  C_4 
REMARK    6  A    between atoms: C_3  and  O_10 
REMARK    7  A    between atoms: C_4  and  C_5 
REMARK    8  A    between atoms: C_4  and  O_9 
REMARK    9  A    between atoms: C_5  and  C_6 
REMARK   10  A    between atoms: C_5  and  O_8 
ROOT
HETATM    1  C   UNK N   1      34.721  16.740  10.116  0.00  0.00     0.180 C 
ENDROOT
BRANCH   1   2
HETATM    2  C   UNK N   1      34.584  16.875   8.585  0.00  0.00     0.173 C 
BRANCH   2   3
HETATM    3  C   UNK N   1      34.249  18.305   8.171  0.00  0.00     0.198 C 
BRANCH   3   4
HETATM    4  O   UNK N   1      35.288  19.180   8.489  0.00  0.00    -0.398 OA
HETATM    5  H   UNK N   1      36.014  19.385   7.879  0.00  0.00     0.209 HD
ENDBRANCH   3   4
ENDBRANCH   2   3
BRANCH   2   6
HETATM    6  O   UNK N   1      33.568  16.048   8.107  0.00  0.00    -0.391 OA
HETATM    7  H   UNK N   1      33.385  15.967   7.157  0.00  0.00     0.210 HD
ENDBRANCH   2   6
ENDBRANCH   1   2
BRANCH   1   8
HETATM    8  C   UNK N   1      34.655  15.274  10.597  0.00  0.00     0.184 C 
BRANCH   8   9
HETATM    9  C   UNK N   1      35.718  14.958  11.668  0.00  0.00     0.210 C 
BRANCH   9  10
HETATM   10  C   UNK N   1      35.448  13.654  12.357  0.00  0.00     0.265 C 
HETATM   11  O   UNK N   1      34.734  13.605  13.345  0.00  0.00    -0.304 OA
ENDBRANCH   9  10
BRANCH   9  12
HETATM   12  O   UNK N   1      36.988  14.884  11.094  0.00  0.00    -0.386 OA
HETATM   13  H   UNK N   1      37.132  15.003  10.142  0.00  0.00     0.210 HD
ENDBRANCH   9  12
ENDBRANCH   8   9
BRANCH   8  14
HETATM   14  O   UNK N   1      33.388  15.012  11.126  0.00  0.00    -0.390 OA
HETATM   15  H   UNK N   1      32.601  14.951  10.562  0.00  0.00     0.210 HD
ENDBRANCH   8  14
ENDBRANCH   1   8
BRANCH   1  16
HETATM   16  O   UNK N   1      35.934  17.308  10.515  0.00  0.00    -0.390 OA
HETATM   17  H   UNK N   1      35.971  18.172  10.953  0.00  0.00     0.210 HD
ENDBRANCH   1  16
TORSDOF 10
ENDMDL
MODEL 2
REMARK VINA RESULT:      -4.5      0.720      4.967
REMARK  10 active torsions:
REMARK  status: ('A' for Active; 'I' for Inactive)
REMARK    1  A    between atoms: C_1  and  C_2 
REMARK    2  A    between atoms: C_1  and  O_12 
REMARK    3  A    between atoms: C_2  and  C_3 
REMARK    4  A    between atoms: C_2  and  O_11 
REMARK    5  A    between atoms: C_3  and  C_4 
REMARK    6  A    between atoms: C_3  and  O_10 
REMARK    7  A    between atoms: C_4  and  C_5 
REMARK    8  A    between atoms: C_4  and  O_9 
REMARK    9  A    between atoms: C_5  and  C_6 
REMARK   10  A    between atoms: C_5  and  O_8 
ROOT
HETATM    1  C   UNK N   1      34.645  15.662  11.055  0.00  0.00     0.180 C 
ENDROOT
BRANCH   1   2
HETATM    2  C   UNK N   1      35.700  14.567  11.319  0.00  0.00     0.173 C 
BRANCH   2   3
HETATM    3  C   UNK N   1      35.607  14.023  12.742  0.00  0.00     0.198 C 
BRANCH   3   4
HETATM    4  O   UNK N   1      34.460  13.247  12.912  0.00  0.00    -0.398 OA
HETATM    5  H   UNK N   1      33.702  13.531  13.445  0.00  0.00     0.209 HD
ENDBRANCH   3   4
ENDBRANCH   2   3
BRANCH   2   6
HETATM    6  O   UNK N   1      36.988  15.072  11.144  0.00  0.00    -0.391 OA
HETATM    7  H   UNK N   1      37.753  14.674  11.589  0.00  0.00     0.210 HD
ENDBRANCH   2   6
ENDBRANCH   1   2
BRANCH   1   8
HETATM    8  C   UNK N   1      34.935  16.477   9.775  0.00  0.00     0.184 C 
BRANCH   8   9
HETATM    9  C   UNK N   1      33.651  16.814   8.990  0.00  0.00     0.210 C 
BRANCH   9  10
HETATM   10  C   UNK N   1      33.795  18.080   8.201  0.00  0.00     0.265 C 
HETATM   11  O   UNK N   1      34.642  18.183   7.330  0.00  0.00    -0.304 OA
ENDBRANCH   9  10
BRANCH   9  12
HETATM   12  O   UNK N   1      33.336  15.787   8.099  0.00  0.00    -0.386 OA
HETATM   13  H   UNK N   1      32.434  15.442   8.007  0.00  0.00     0.210 HD
ENDBRANCH   9  12
ENDBRANCH   8   9
BRANCH   8  14
HETATM   14  O   UNK N   1      35.582  17.668  10.117  0.00  0.00    -0.390 OA
HETATM   15  H   UNK N   1      35.155  18.531  10.006  0.00  0.00     0.210 HD
ENDBRANCH   8  14
ENDBRANCH   1   8
BRANCH   1  16
HETATM   16  O   UNK N   1      33.387  15.064  10.953  0.00  0.00    -0.390 OA
HETATM   17  H   UNK N   1      33.021  14.793  10.097  0.00  0.00     0.210 HD
ENDBRANCH   1  16
TORSDOF 10
ENDMDL
MODEL 3
REMARK VINA RESULT:      -4.4      1.583      5.186
REMARK  10 active torsions:
REMARK  status: ('A' for Active; 'I' for Inactive)
REMARK    1  A    between atoms: C_1  and  C_2 
REMARK    2  A    between atoms: C_1  and  O_12 
REMARK    3  A    between atoms: C_2  and  C_3 
REMARK    4  A    between atoms: C_2  and  O_11 
REMARK    5  A    between atoms: C_3  and  C_4 
REMARK    6  A    between atoms: C_3  and  O_10 
REMARK    7  A    between atoms: C_4  and  C_5 
REMARK    8  A    between atoms: C_4  and  O_9 
REMARK    9  A    between atoms: C_5  and  C_6 
REMARK   10  A    between atoms: C_5  and  O_8 
ROOT
HETATM    1  C   UNK N   1      35.835  13.622  12.295  0.00  0.00     0.180 C 
ENDROOT
BRANCH   1   2
HETATM    2  C   UNK N   1      35.396  13.314  13.741  0.00  0.00     0.173 C 
BRANCH   2   3
HETATM    3  C   UNK N   1      36.485  12.582  14.520  0.00  0.00     0.198 C 
BRANCH   3   4
HETATM    4  O   UNK N   1      37.411  13.478  15.056  0.00  0.00    -0.398 OA
HETATM    5  H   UNK N   1      37.750  14.245  14.569  0.00  0.00     0.209 HD
ENDBRANCH   3   4
ENDBRANCH   2   3
BRANCH   2   6
HETATM    6  O   UNK N   1      34.258  12.508  13.749  0.00  0.00    -0.391 OA
HETATM    7  H   UNK N   1      33.652  12.479  12.991  0.00  0.00     0.210 HD
ENDBRANCH   2   6
ENDBRANCH   1   2
BRANCH   1   8
HETATM    8  C   UNK N   1      35.235  14.939  11.754  0.00  0.00     0.184 C 
BRANCH   8   9
HETATM    9  C   UNK N   1      35.926  15.411  10.459  0.00  0.00     0.210 C 
BRANCH   9  10
HETATM   10  C   UNK N   1      35.014  16.246   9.611  0.00  0.00     0.265 C 
HETATM   11  O   UNK N   1      34.754  17.397   9.917  0.00  0.00    -0.304 OA
ENDBRANCH   9  10
BRANCH   9  12
HETATM   12  O   UNK N   1      37.055  16.176  10.756  0.00  0.00    -0.386 OA
HETATM   13  H   UNK N   1      37.911  15.772  10.971  0.00  0.00     0.210 HD
ENDBRANCH   9  12
ENDBRANCH   8   9
BRANCH   8  14
HETATM   14  O   UNK N   1      33.872  14.761  11.500  0.00  0.00    -0.390 OA
HETATM   15  H   UNK N   1      33.477  14.991  10.645  0.00  0.00     0.210 HD
ENDBRANCH   8  14
ENDBRANCH   1   8
BRANCH   1  16
HETATM   16  O   UNK N   1      37.230  13.692  12.250  0.00  0.00    -0.390 OA
HETATM   17  H   UNK N   1      37.692  14.528  12.084  0.00  0.00     0.210 HD
ENDBRANCH   1  16
TORSDOF 10
ENDMDL
MODEL 4
REMARK VINA RESULT:      -4.4      1.652      2.839
REMARK  10 active torsions:
REMARK  status: ('A' for Active; 'I' for Inactive)
REMARK    1  A    between atoms: C_1  and  C_2 
REMARK    2  A    between atoms: C_1  and  O_12 
REMARK    3  A    between atoms: C_2  and  C_3 
REMARK    4  A    between atoms: C_2  and  O_11 
REMARK    5  A    between atoms: C_3  and  C_4 
REMARK    6  A    between atoms: C_3  and  O_10 
REMARK    7  A    between atoms: C_4  and  C_5 
REMARK    8  A    between atoms: C_4  and  O_9 
REMARK    9  A    between atoms: C_5  and  C_6 
REMARK   10  A    between atoms: C_5  and  O_8 
ROOT
HETATM    1  C   UNK N   1      35.492  15.042  11.959  0.00  0.00     0.180 C 
ENDROOT
BRANCH   1   2
HETATM    2  C   UNK N   1      34.535  14.908  10.757  0.00  0.00     0.173 C 
BRANCH   2   3
HETATM    3  C   UNK N   1      34.761  16.013   9.728  0.00  0.00     0.198 C 
BRANCH   3   4
HETATM    4  O   UNK N   1      34.787  17.269  10.335  0.00  0.00    -0.398 OA
HETATM    5  H   UNK N   1      34.600  18.093   9.859  0.00  0.00     0.209 HD
ENDBRANCH   3   4
ENDBRANCH   2   3
BRANCH   2   6
HETATM    6  O   UNK N   1      33.206  14.985  11.174  0.00  0.00    -0.391 OA
HETATM    7  H   UNK N   1      32.843  14.363  11.824  0.00  0.00     0.210 HD
ENDBRANCH   2   6
ENDBRANCH   1   2
BRANCH   1   8
HETATM    8  C   UNK N   1      35.665  13.719  12.737  0.00  0.00     0.184 C 
BRANCH   8   9
HETATM    9  C   UNK N   1      36.119  13.948  14.193  0.00  0.00     0.210 C 
BRANCH   9  10
HETATM   10  C   UNK N   1      36.851  12.761  14.744  0.00  0.00     0.265 C 
HETATM   11  O   UNK N   1      36.680  11.648  14.277  0.00  0.00    -0.304 OA
ENDBRANCH   9  10
BRANCH   9  12
HETATM   12  O   UNK N   1      36.970  15.052  14.274  0.00  0.00    -0.386 OA
HETATM   13  H   UNK N   1      37.690  15.196  13.641  0.00  0.00     0.210 HD
ENDBRANCH   9  12
ENDBRANCH   8   9
BRANCH   8  14
HETATM   14  O   UNK N   1      34.454  13.020  12.746  0.00  0.00    -0.390 OA
HETATM   15  H   UNK N   1      34.180  12.481  13.504  0.00  0.00     0.210 HD
ENDBRANCH   8  14
ENDBRANCH   1   8
BRANCH   1  16
HETATM   16  O   UNK N   1      36.737  15.480  11.501  0.00  0.00    -0.390 OA
HETATM   17  H   UNK N   1      37.074  15.230  10.627  0.00  0.00     0.210 HD
ENDBRANCH   1  16
TORSDOF 10
ENDMDL
MODEL 5
REMARK VINA RESULT:      -4.4      1.603      3.162
REMARK  10 active torsions:
REMARK  status: ('A' for Active; 'I' for Inactive)
REMARK    1  A    between atoms: C_1  and  C_2 
REMARK    2  A    between atoms: C_1  and  O_12 
REMARK    3  A    between atoms: C_2  and  C_3 
REMARK    4  A    between atoms: C_2  and  O_11 
REMARK    5  A    between atoms: C_3  and  C_4 
REMARK    6  A    between atoms: C_3  and  O_10 
REMARK    7  A    between atoms: C_4  and  C_5 
REMARK    8  A    between atoms: C_4  and  O_9 
REMARK    9  A    between atoms: C_5  and  C_6 
REMARK   10  A    between atoms: C_5  and  O_8 
ROOT
HETATM    1  C   UNK N   1      35.144  14.767  11.569  0.00  0.00     0.180 C 
ENDROOT
BRANCH   1   2
HETATM    2  C   UNK N   1      35.692  16.149  11.156  0.00  0.00     0.173 C 
BRANCH   2   3
HETATM    3  C   UNK N   1      34.948  16.716   9.950  0.00  0.00     0.198 C 
BRANCH   3   4
HETATM    4  O   UNK N   1      35.382  18.008   9.651  0.00  0.00    -0.398 OA
HETATM    5  H   UNK N   1      35.320  18.746  10.276  0.00  0.00     0.209 HD
ENDBRANCH   3   4
ENDBRANCH   2   3
BRANCH   2   6
HETATM    6  O   UNK N   1      37.042  16.062  10.817  0.00  0.00    -0.391 OA
HETATM    7  H   UNK N   1      37.598  15.332  11.133  0.00  0.00     0.210 HD
ENDBRANCH   2   6
ENDBRANCH   1   2
BRANCH   1   8
HETATM    8  C   UNK N   1      35.553  14.365  13.003  0.00  0.00     0.184 C 
BRANCH   8   9
HETATM    9  C   UNK N   1      35.540  12.837  13.211  0.00  0.00     0.210 C 
BRANCH   9  10
HETATM   10  C   UNK N   1      36.024  12.454  14.578  0.00  0.00     0.265 C 
HETATM   11  O   UNK N   1      37.210  12.507  14.859  0.00  0.00    -0.304 OA
ENDBRANCH   9  10
BRANCH   9  12
HETATM   12  O   UNK N   1      34.248  12.331  13.057  0.00  0.00    -0.386 OA
HETATM   13  H   UNK N   1      33.633  12.679  12.392  0.00  0.00     0.210 HD
ENDBRANCH   9  12
ENDBRANCH   8   9
BRANCH   8  14
HETATM   14  O   UNK N   1      36.837  14.847  13.275  0.00  0.00    -0.390 OA
HETATM   15  H   UNK N   1      37.629  14.435  12.896  0.00  0.00     0.210 HD
ENDBRANCH   8  14
ENDBRANCH   1   8
BRANCH   1  16
HETATM   16  O   UNK N   1      33.751  14.783  11.469  0.00  0.00    -0.390 OA
HETATM   17  H   UNK N   1      33.258  14.028  11.114  0.00  0.00     0.210 HD
ENDBRANCH   1  16
TORSDOF 10
ENDMDL
MODEL 6
REMARK VINA RESULT:      -4.4      1.100      1.697
REMARK  10 active torsions:
REMARK  status: ('A' for Active; 'I' for Inactive)
REMARK    1  A    between atoms: C_1  and  C_2 
REMARK    2  A    between atoms: C_1  and  O_12 
REMARK    3  A    between atoms: C_2  and  C_3 
REMARK    4  A    between atoms: C_2  and  O_11 
REMARK    5  A    between atoms: C_3  and  C_4 
REMARK    6  A    between atoms: C_3  and  O_10 
REMARK    7  A    between atoms: C_4  and  C_5 
REMARK    8  A    between atoms: C_4  and  O_9 
REMARK    9  A    between atoms: C_5  and  C_6 
REMARK   10  A    between atoms: C_5  and  O_8 
ROOT
HETATM    1  C   UNK N   1      34.834  15.794   9.162  0.00  0.00     0.180 C 
ENDROOT
BRANCH   1   2
HETATM    2  C   UNK N   1      34.285  17.235   9.203  0.00  0.00     0.173 C 
BRANCH   2   3
HETATM    3  C   UNK N   1      33.593  17.614   7.896  0.00  0.00     0.198 C 
BRANCH   3   4
HETATM    4  O   UNK N   1      34.523  17.869   6.888  0.00  0.00    -0.398 OA
HETATM    5  H   UNK N   1      35.236  17.254   6.655  0.00  0.00     0.209 HD
ENDBRANCH   3   4
ENDBRANCH   2   3
BRANCH   2   6
HETATM    6  O   UNK N   1      35.317  18.149   9.413  0.00  0.00    -0.391 OA
HETATM    7  H   UNK N   1      36.219  17.977   9.099  0.00  0.00     0.210 HD
ENDBRANCH   2   6
ENDBRANCH   1   2
BRANCH   1   8
HETATM    8  C   UNK N   1      34.710  15.068  10.520  0.00  0.00     0.184 C 
BRANCH   8   9
HETATM    9  C   UNK N   1      35.671  15.640  11.582  0.00  0.00     0.210 C 
BRANCH   9  10
HETATM   10  C   UNK N   1      35.967  14.644  12.664  0.00  0.00     0.265 C 
HETATM   11  O   UNK N   1      35.090  13.920  13.105  0.00  0.00    -0.304 OA
ENDBRANCH   9  10
BRANCH   9  12
HETATM   12  O   UNK N   1      36.883  16.013  10.999  0.00  0.00    -0.386 OA
HETATM   13  H   UNK N   1      37.697  15.502  11.130  0.00  0.00     0.210 HD
ENDBRANCH   9  12
ENDBRANCH   8   9
BRANCH   8  14
HETATM   14  O   UNK N   1      33.398  15.177  10.991  0.00  0.00    -0.390 OA
HETATM   15  H   UNK N   1      32.848  14.397  11.157  0.00  0.00     0.210 HD
ENDBRANCH   8  14
ENDBRANCH   1   8
BRANCH   1  16
HETATM   16  O   UNK N   1      34.145  15.073   8.184  0.00  0.00    -0.390 OA
HETATM   17  H   UNK N   1      34.524  14.281   7.774  0.00  0.00     0.210 HD
ENDBRANCH   1  16
TORSDOF 10
ENDMDL
MODEL 7
REMARK VINA RESULT:      -4.2      2.169      3.597
REMARK  10 active torsions:
REMARK  status: ('A' for Active; 'I' for Inactive)
REMARK    1  A    between atoms: C_1  and  C_2 
REMARK    2  A    between atoms: C_1  and  O_12 
REMARK    3  A    between atoms: C_2  and  C_3 
REMARK    4  A    between atoms: C_2  and  O_11 
REMARK    5  A    between atoms: C_3  and  C_4 
REMARK    6  A    between atoms: C_3  and  O_10 
REMARK    7  A    between atoms: C_4  and  C_5 
REMARK    8  A    between atoms: C_4  and  O_9 
REMARK    9  A    between atoms: C_5  and  C_6 
REMARK   10  A    between atoms: C_5  and  O_8 
ROOT
HETATM    1  C   UNK N   1      36.187  13.811  11.550  0.00  0.00     0.180 C 
ENDROOT
BRANCH   1   2
HETATM    2  C   UNK N   1      35.741  15.287  11.518  0.00  0.00     0.173 C 
BRANCH   2   3
HETATM    3  C   UNK N   1      34.546  15.498  10.592  0.00  0.00     0.198 C 
BRANCH   3   4
HETATM    4  O   UNK N   1      33.373  15.003  11.163  0.00  0.00    -0.398 OA
HETATM    5  H   UNK N   1      32.569  14.822  10.651  0.00  0.00     0.209 HD
ENDBRANCH   3   4
ENDBRANCH   2   3
BRANCH   2   6
HETATM    6  O   UNK N   1      36.776  16.105  11.063  0.00  0.00    -0.391 OA
HETATM    7  H   UNK N   1      37.432  16.478  11.673  0.00  0.00     0.210 HD
ENDBRANCH   2   6
ENDBRANCH   1   2
BRANCH   1   8
HETATM    8  C   UNK N   1      35.719  13.071  12.823  0.00  0.00     0.184 C 
BRANCH   8   9
HETATM    9  C   UNK N   1      35.894  13.923  14.095  0.00  0.00     0.210 C 
BRANCH   9  10
HETATM   10  C   UNK N   1      35.391  13.214  15.317  0.00  0.00     0.265 C 
HETATM   11  O   UNK N   1      34.196  13.065  15.507  0.00  0.00    -0.304 OA
ENDBRANCH   9  10
BRANCH   9  12
HETATM   12  O   UNK N   1      37.240  14.230  14.301  0.00  0.00    -0.386 OA
HETATM   13  H   UNK N   1      37.528  14.855  14.985  0.00  0.00     0.210 HD
ENDBRANCH   9  12
ENDBRANCH   8   9
BRANCH   8  14
HETATM   14  O   UNK N   1      34.371  12.724  12.692  0.00  0.00    -0.390 OA
HETATM   15  H   UNK N   1      34.021  12.332  11.877  0.00  0.00     0.210 HD
ENDBRANCH   8  14
ENDBRANCH   1   8
BRANCH   1  16
HETATM   16  O   UNK N   1      35.683  13.160  10.421  0.00  0.00    -0.390 OA
HETATM   17  H   UNK N   1      34.833  13.409  10.028  0.00  0.00     0.210 HD
ENDBRANCH   1  16
TORSDOF 10
ENDMDL
MODEL 8
REMARK VINA RESULT:      -4.2     12.331     14.523
REMARK  10 active torsions:
REMARK  status: ('A' for Active; 'I' for Inactive)
REMARK    1  A    between atoms: C_1  and  C_2 
REMARK    2  A    between atoms: C_1  and  O_12 
REMARK    3  A    between atoms: C_2  and  C_3 
REMARK    4  A    between atoms: C_2  and  O_11 
REMARK    5  A    between atoms: C_3  and  C_4 
REMARK    6  A    between atoms: C_3  and  O_10 
REMARK    7  A    between atoms: C_4  and  C_5 
REMARK    8  A    between atoms: C_4  and  O_9 
REMARK    9  A    between atoms: C_5  and  C_6 
REMARK   10  A    between atoms: C_5  and  O_8 
ROOT
HETATM    1  C   UNK N   1      22.517  19.609   3.019  0.00  0.00     0.180 C 
ENDROOT
BRANCH   1   2
HETATM    2  C   UNK N   1      21.431  20.662   2.717  0.00  0.00     0.173 C 
BRANCH   2   3
HETATM    3  C   UNK N   1      20.784  20.434   1.354  0.00  0.00     0.198 C 
BRANCH   3   4
HETATM    4  O   UNK N   1      21.637  20.824   0.320  0.00  0.00    -0.398 OA
HETATM    5  H   UNK N   1      21.334  21.312  -0.461  0.00  0.00     0.209 HD
ENDBRANCH   3   4
ENDBRANCH   2   3
BRANCH   2   6
HETATM    6  O   UNK N   1      21.976  21.946   2.716  0.00  0.00    -0.391 OA
HETATM    7  H   UNK N   1      22.754  22.166   3.252  0.00  0.00     0.210 HD
ENDBRANCH   2   6
ENDBRANCH   1   2
BRANCH   1   8
HETATM    8  C   UNK N   1      23.898  20.238   3.308  0.00  0.00     0.184 C 
BRANCH   8   9
HETATM    9  C   UNK N   1      24.906  19.213   3.864  0.00  0.00     0.210 C 
BRANCH   9  10
HETATM   10  C   UNK N   1      26.324  19.642   3.634  0.00  0.00     0.265 C 
HETATM   11  O   UNK N   1      26.743  20.692   4.091  0.00  0.00    -0.304 OA
ENDBRANCH   9  10
BRANCH   9  12
HETATM   12  O   UNK N   1      24.727  19.043   5.238  0.00  0.00    -0.386 OA
HETATM   13  H   UNK N   1      24.001  19.468   5.720  0.00  0.00     0.210 HD
ENDBRANCH   9  12
ENDBRANCH   8   9
BRANCH   8  14
HETATM   14  O   UNK N   1      24.415  20.789   2.131  0.00  0.00    -0.390 OA
HETATM   15  H   UNK N   1      23.873  21.337   1.543  0.00  0.00     0.210 HD
ENDBRANCH   8  14
ENDBRANCH   1   8
BRANCH   1  16
HETATM   16  O   UNK N   1      22.114  18.844   4.117  0.00  0.00    -0.390 OA
HETATM   17  H   UNK N   1      21.696  17.976   4.007  0.00  0.00     0.210 HD
ENDBRANCH   1  16
TORSDOF 10
ENDMDL
MODEL 9
REMARK VINA RESULT:      -4.1      1.012      4.572
REMARK  10 active torsions:
REMARK  status: ('A' for Active; 'I' for Inactive)
REMARK    1  A    between atoms: C_1  and  C_2 
REMARK    2  A    between atoms: C_1  and  O_12 
REMARK    3  A    between atoms: C_2  and  C_3 
REMARK    4  A    between atoms: C_2  and  O_11 
REMARK    5  A    between atoms: C_3  and  C_4 
REMARK    6  A    between atoms: C_3  and  O_10 
REMARK    7  A    between atoms: C_4  and  C_5 
REMARK    8  A    between atoms: C_4  and  O_9 
REMARK    9  A    between atoms: C_5  and  C_6 
REMARK   10  A    between atoms: C_5  and  O_8 
ROOT
HETATM    1  C   UNK N   1      35.864  14.985  10.989  0.00  0.00     0.180 C 
ENDROOT
BRANCH   1   2
HETATM    2  C   UNK N   1      35.836  14.311  12.376  0.00  0.00     0.173 C 
BRANCH   2   3
HETATM    3  C   UNK N   1      36.810  13.139  12.455  0.00  0.00     0.198 C 
BRANCH   3   4
HETATM    4  O   UNK N   1      37.896  13.326  11.600  0.00  0.00    -0.398 OA
HETATM    5  H   UNK N   1      38.595  12.666  11.477  0.00  0.00     0.209 HD
ENDBRANCH   3   4
ENDBRANCH   2   3
BRANCH   2   6
HETATM    6  O   UNK N   1      34.561  13.820  12.659  0.00  0.00    -0.391 OA
HETATM    7  H   UNK N   1      33.955  13.548  11.952  0.00  0.00     0.210 HD
ENDBRANCH   2   6
ENDBRANCH   1   2
BRANCH   1   8
HETATM    8  C   UNK N   1      34.613  15.849  10.717  0.00  0.00     0.184 C 
BRANCH   8   9
HETATM    9  C   UNK N   1      34.784  16.760   9.484  0.00  0.00     0.210 C 
BRANCH   9  10
HETATM   10  C   UNK N   1      33.464  17.142   8.883  0.00  0.00     0.265 C 
HETATM   11  O   UNK N   1      32.937  16.441   8.036  0.00  0.00    -0.304 OA
ENDBRANCH   9  10
BRANCH   9  12
HETATM   12  O   UNK N   1      35.453  17.935   9.830  0.00  0.00    -0.386 OA
HETATM   13  H   UNK N   1      35.169  18.805   9.508  0.00  0.00     0.210 HD
ENDBRANCH   9  12
ENDBRANCH   8   9
BRANCH   8  14
HETATM   14  O   UNK N   1      33.507  15.018  10.515  0.00  0.00    -0.390 OA
HETATM   15  H   UNK N   1      32.894  14.801  11.234  0.00  0.00     0.210 HD
ENDBRANCH   8  14
ENDBRANCH   1   8
BRANCH   1  16
HETATM   16  O   UNK N   1      37.009  15.780  10.894  0.00  0.00    -0.390 OA
HETATM   17  H   UNK N   1      37.541  15.812  10.084  0.00  0.00     0.210 HD
ENDBRANCH   1  16
TORSDOF 10
ENDMDL
