REMARK  8 active torsions:
REMARK  status: ('A' for Active; 'I' for Inactive)
REMARK    1  A    between atoms: C_16  and  C_9 
REMARK    2  A    between atoms: C_17  and  C_9 
REMARK    3  A    between atoms: N_30  and  C_16 
REMARK    4  A    between atoms: N_32  and  C_17 
REMARK    5  A    between atoms: C_26  and  C_22 
REMARK    6  A    between atoms: C_26  and  C_23 
REMARK    7  A    between atoms: N_31  and  C_26 
REMARK    8  A    between atoms: O_33  and  C_27 
ROOT
HETATM    1  C   UNK N   1      -0.965   5.906   0.627  0.00  0.00     0.147 C 
HETATM    2  C   UNK N   1      -1.457   3.605   1.456  0.00  0.00     0.147 C 
HETATM    3  C   UNK N   1      -1.693   5.520  -0.676  0.00  0.00     0.293 C 
HETATM    4  C   UNK N   1      -2.010   3.304   0.064  0.00  0.00     0.293 C 
HETATM    5  N   UNK N   1      -0.553   4.754   1.444  0.00  0.00    -0.409 N 
HETATM    6  N   UNK N   1      -2.703   4.466  -0.489  0.00  0.00     0.104 N 
ENDROOT
BRANCH   5   7
HETATM    7  C   UNK N   1       0.865   4.381   1.397  0.00  0.00     0.118 C 
BRANCH   7   8
HETATM    8  C   UNK N   1       1.473   4.358  -0.003  0.00  0.00     0.040 C 
BRANCH   8   9
HETATM    9  C   UNK N   1       0.964   3.207  -0.863  0.00  0.00     0.134 C 
BRANCH   9  10
HETATM   10  N   UNK N   1       1.479   1.909  -0.432  0.00  0.00    -0.311 N 
HETATM   11  C   UNK N   1       2.757   1.508  -0.335  0.00  0.00     0.064 A 
HETATM   12  C   UNK N   1       3.926   2.224  -0.586  0.00  0.00     0.032 A 
HETATM   13  C   UNK N   1       2.780   0.200   0.059  0.00  0.00     0.062 A 
HETATM   14  C   UNK N   1       5.149   1.547  -0.415  0.00  0.00     0.002 A 
HETATM   15  C   UNK N   1       5.170   0.190  -0.011  0.00  0.00     0.002 A 
HETATM   16  C   UNK N   1       3.967  -0.501   0.231  0.00  0.00     0.032 A 
HETATM   17  N   UNK N   1       1.523  -0.254   0.220  0.00  0.00    -0.320 N 
HETATM   18  C   UNK N   1       0.752   0.818  -0.090  0.00  0.00     0.224 A 
ATOM     19  HN  UNK N   1       1.221  -1.184   0.508  1.00  0.00     0.169 HD
BRANCH  18  20
HETATM   20  O   UNK N   1      -0.591   0.783  -0.080  0.00  0.00    -0.332 OA
HETATM   21  H   UNK N   1      -1.080   1.582  -0.072  0.00  0.00     0.221 HD
ENDBRANCH  18  20
ENDBRANCH   9  10
ENDBRANCH   8   9
ENDBRANCH   7   8
ENDBRANCH   5   7
BRANCH   6  22
HETATM   22  C   UNK N   1      -3.910   4.814   0.315  0.00  0.00     0.289 C 
BRANCH  22  23
HETATM   23  C   UNK N   1      -4.970   3.703   0.249  0.00  0.00    -0.021 A 
HETATM   24  C   UNK N   1      -4.678   2.444   0.801  0.00  0.00     0.010 A 
HETATM   25  C   UNK N   1      -5.609   1.402   0.750  0.00  0.00     0.001 A 
HETATM   26  C   UNK N   1      -6.852   1.606   0.151  0.00  0.00     0.000 A 
HETATM   27  C   UNK N   1      -7.163   2.852  -0.396  0.00  0.00     0.001 A 
HETATM   28  C   UNK N   1      -6.228   3.890  -0.348  0.00  0.00     0.010 A 
ENDBRANCH  22  23
BRANCH  22  29
HETATM   29  C   UNK N   1      -4.378   6.267   0.173  0.00  0.00    -0.021 A 
HETATM   30  C   UNK N   1      -5.574   6.620  -0.474  0.00  0.00     0.010 A 
HETATM   31  C   UNK N   1      -5.981   7.955  -0.550  0.00  0.00     0.001 A 
HETATM   32  C   UNK N   1      -5.195   8.958   0.019  0.00  0.00     0.000 A 
HETATM   33  C   UNK N   1      -4.008   8.624   0.671  0.00  0.00     0.001 A 
HETATM   34  C   UNK N   1      -3.611   7.288   0.755  0.00  0.00     0.010 A 
ENDBRANCH  22  29
ENDBRANCH   6  22
TORSDOF 8
