MODEL 1
REMARK VINA RESULT:      -8.0      0.000      0.000
REMARK  3 active torsions:
REMARK  status: ('A' for Active; 'I' for Inactive)
REMARK    1  A    between atoms: C_5  and  N_8 
REMARK       I    between atoms: N_8  and  C_9 
REMARK    2  A    between atoms: C_17  and  N_23 
REMARK    3  A    between atoms: N_23  and  C_24 
ROOT
HETATM    1  N   UNK N   1      32.754  16.352   9.253  0.00  0.00    -0.221 N 
HETATM    2  C   UNK N   1      33.950  15.609   9.087  0.00  0.00     0.678 A 
HETATM    3  N   UNK N   1      34.304  15.111   7.866  0.00  0.00    -0.200 N 
ATOM      4  HN  UNK N   1      33.688  15.258   7.067  1.00  0.00     0.183 HD
HETATM    5  C   UNK N   1      35.465  14.421   7.699  0.00  0.00     0.138 A 
HETATM    6  C   UNK N   1      36.298  14.203   8.793  0.00  0.00     0.080 A 
HETATM    7  C   UNK N   1      35.912  14.703  10.041  0.00  0.00     0.121 A 
HETATM    8  N   UNK N   1      34.753  15.401  10.162  0.00  0.00    -0.186 N 
ATOM      9  HN  UNK N   1      34.484  15.776  11.072  1.00  0.00     0.184 HD
HETATM   10  C   UNK N   1      36.727  14.460  11.146  0.00  0.00     0.136 A 
HETATM   11  N   UNK N   1      37.883  13.758  10.976  0.00  0.00    -0.337 N 
ATOM     12  HN  UNK N   1      38.482  13.577  11.781  1.00  0.00     0.168 HD
HETATM   13  C   UNK N   1      38.251  13.293   9.750  0.00  0.00     0.182 A 
HETATM   14  N   UNK N   1      37.459  13.512   8.666  0.00  0.00    -0.349 N 
ATOM     15  HN  UNK N   1      37.739  13.153   7.753  1.00  0.00     0.166 HD
HETATM   16  H   UNK N   1      32.641  16.868  10.084  0.00  0.00     0.178 HD
ENDROOT
BRANCH  10  17
HETATM   17  N   UNK N   1      36.322  14.931  12.426  0.00  0.00    -0.340 N 
HETATM   18  H   UNK N   1      36.241  15.906  12.533  0.00  0.00     0.167 HD
BRANCH  17  19
HETATM   19  C   UNK N   1      36.020  14.138  13.567  0.00  0.00     0.035 A 
HETATM   20  C   UNK N   1      36.646  14.445  14.779  0.00  0.00     0.032 A 
HETATM   21  C   UNK N   1      36.374  13.697  15.927  0.00  0.00     0.046 A 
HETATM   22  C   UNK N   1      35.473  12.631  15.869  0.00  0.00     0.138 A 
HETATM   23  C   UNK N   1      34.841  12.315  14.659  0.00  0.00     0.074 A 
HETATM   24  F   UNK N   1      35.218  11.908  16.987  0.00  0.00    -0.204 F 
HETATM   25  C   UNK N   1      35.114  13.068  13.514  0.00  0.00     0.056 A 
HETATM   26 Cl   UNK N   1      33.709  10.981  14.565  0.00  0.00    -0.081 Cl
ENDBRANCH  17  19
ENDBRANCH  10  17
BRANCH   1  27
HETATM   27  C   UNK N   1      31.692  16.399   8.276  0.00  0.00     0.102 C 
HETATM   28  C   UNK N   1      30.464  17.046   8.906  0.00  0.00     0.056 C 
HETATM   29  C   UNK N   1      29.338  17.109   7.876  0.00  0.00     0.274 C 
HETATM   30  N   UNK N   1      29.763  17.864   6.697  0.00  0.00     0.084 N 
HETATM   31  C   UNK N   1      28.667  17.822   5.748  0.00  0.00     0.309 C 
HETATM   32  C   UNK N   1      30.900  17.190   6.069  0.00  0.00     0.274 C 
HETATM   33  C   UNK N   1      32.088  17.180   7.025  0.00  0.00     0.056 C 
ENDBRANCH   1  27
TORSDOF 3
ENDMDL
MODEL 2
REMARK VINA RESULT:      -8.0      1.802      2.410
REMARK  3 active torsions:
REMARK  status: ('A' for Active; 'I' for Inactive)
REMARK    1  A    between atoms: C_5  and  N_8 
REMARK       I    between atoms: N_8  and  C_9 
REMARK    2  A    between atoms: C_17  and  N_23 
REMARK    3  A    between atoms: N_23  and  C_24 
ROOT
HETATM    1  N   UNK N   1      32.645  15.430   9.892  0.00  0.00    -0.221 N 
HETATM    2  C   UNK N   1      33.938  14.870  10.041  0.00  0.00     0.678 A 
HETATM    3  N   UNK N   1      34.934  15.152   9.151  0.00  0.00    -0.200 N 
ATOM      4  HN  UNK N   1      34.737  15.757   8.354  1.00  0.00     0.183 HD
HETATM    5  C   UNK N   1      36.183  14.638   9.308  0.00  0.00     0.138 A 
HETATM    6  C   UNK N   1      36.450  13.796  10.385  0.00  0.00     0.080 A 
HETATM    7  C   UNK N   1      35.415  13.501  11.277  0.00  0.00     0.121 A 
HETATM    8  N   UNK N   1      34.185  14.048  11.094  0.00  0.00    -0.186 N 
ATOM      9  HN  UNK N   1      33.438  13.841  11.757  1.00  0.00     0.184 HD
HETATM   10  C   UNK N   1      35.667  12.633  12.339  0.00  0.00     0.136 A 
HETATM   11  N   UNK N   1      36.918  12.110  12.486  0.00  0.00    -0.337 N 
ATOM     12  HN  UNK N   1      37.107  11.474  13.260  1.00  0.00     0.168 HD
HETATM   13  C   UNK N   1      37.918  12.423  11.616  0.00  0.00     0.182 A 
HETATM   14  N   UNK N   1      37.682  13.257  10.568  0.00  0.00    -0.349 N 
ATOM     15  HN  UNK N   1      38.435  13.479   9.917  1.00  0.00     0.166 HD
HETATM   16  H   UNK N   1      32.025  15.377  10.656  0.00  0.00     0.178 HD
ENDROOT
BRANCH  10  17
HETATM   17  N   UNK N   1      34.609  12.296  13.229  0.00  0.00    -0.340 N 
HETATM   18  H   UNK N   1      33.707  12.234  12.840  0.00  0.00     0.167 HD
BRANCH  17  19
HETATM   19  C   UNK N   1      34.720  12.038  14.622  0.00  0.00     0.035 A 
HETATM   20  C   UNK N   1      34.614  10.716  15.068  0.00  0.00     0.032 A 
HETATM   21  C   UNK N   1      34.723  10.416  16.428  0.00  0.00     0.046 A 
HETATM   22  C   UNK N   1      34.938  11.439  17.355  0.00  0.00     0.138 A 
HETATM   23  C   UNK N   1      35.045  12.765  16.917  0.00  0.00     0.074 A 
HETATM   24  F   UNK N   1      35.039  11.138  18.672  0.00  0.00    -0.204 F 
HETATM   25  C   UNK N   1      34.938  13.061  15.556  0.00  0.00     0.056 A 
HETATM   26 Cl   UNK N   1      35.313  14.064  18.064  0.00  0.00    -0.081 Cl
ENDBRANCH  17  19
ENDBRANCH  10  17
BRANCH   1  27
HETATM   27  C   UNK N   1      32.180  16.074   8.686  0.00  0.00     0.102 C 
HETATM   28  C   UNK N   1      31.938  15.014   7.617  0.00  0.00     0.056 C 
HETATM   29  C   UNK N   1      31.435  15.687   6.340  0.00  0.00     0.274 C 
HETATM   30  N   UNK N   1      30.206  16.435   6.604  0.00  0.00     0.084 N 
HETATM   31  C   UNK N   1      29.834  17.090   5.364  0.00  0.00     0.309 C 
HETATM   32  C   UNK N   1      30.476  17.489   7.582  0.00  0.00     0.274 C 
HETATM   33  C   UNK N   1      30.895  16.867   8.911  0.00  0.00     0.056 C 
ENDBRANCH   1  27
TORSDOF 3
ENDMDL
MODEL 3
REMARK VINA RESULT:      -7.7     12.714     16.566
REMARK  3 active torsions:
REMARK  status: ('A' for Active; 'I' for Inactive)
REMARK    1  A    between atoms: C_5  and  N_8 
REMARK       I    between atoms: N_8  and  C_9 
REMARK    2  A    between atoms: C_17  and  N_23 
REMARK    3  A    between atoms: N_23  and  C_24 
ROOT
HETATM    1  N   UNK N   1      20.675  13.975   7.673  0.00  0.00    -0.221 N 
HETATM    2  C   UNK N   1      20.474  13.650   6.308  0.00  0.00     0.678 A 
HETATM    3  N   UNK N   1      20.659  12.376   5.854  0.00  0.00    -0.200 N 
ATOM      4  HN  UNK N   1      20.965  11.652   6.503  1.00  0.00     0.183 HD
HETATM    5  C   UNK N   1      20.439  12.057   4.550  0.00  0.00     0.138 A 
HETATM    6  C   UNK N   1      20.038  13.048   3.658  0.00  0.00     0.080 A 
HETATM    7  C   UNK N   1      19.873  14.352   4.134  0.00  0.00     0.121 A 
HETATM    8  N   UNK N   1      20.085  14.626   5.447  0.00  0.00    -0.186 N 
ATOM      9  HN  UNK N   1      19.949  15.577   5.791  1.00  0.00     0.184 HD
HETATM   10  C   UNK N   1      19.502  15.355   3.238  0.00  0.00     0.136 A 
HETATM   11  N   UNK N   1      19.296  15.032   1.930  0.00  0.00    -0.337 N 
ATOM     12  HN  UNK N   1      19.026  15.762   1.271  1.00  0.00     0.168 HD
HETATM   13  C   UNK N   1      19.446  13.753   1.487  0.00  0.00     0.182 A 
HETATM   14  N   UNK N   1      19.819  12.768   2.347  0.00  0.00    -0.349 N 
ATOM     15  HN  UNK N   1      19.937  11.814   2.006  1.00  0.00     0.166 HD
HETATM   16  H   UNK N   1      20.332  14.839   7.999  0.00  0.00     0.178 HD
ENDROOT
BRANCH  10  17
HETATM   17  N   UNK N   1      19.371  16.692   3.706  0.00  0.00    -0.340 N 
HETATM   18  H   UNK N   1      18.580  16.891   4.258  0.00  0.00     0.167 HD
BRANCH  17  19
HETATM   19  C   UNK N   1      20.263  17.770   3.461  0.00  0.00     0.035 A 
HETATM   20  C   UNK N   1      21.407  17.886   4.257  0.00  0.00     0.032 A 
HETATM   21  C   UNK N   1      22.315  18.926   4.046  0.00  0.00     0.046 A 
HETATM   22  C   UNK N   1      22.083  19.863   3.035  0.00  0.00     0.138 A 
HETATM   23  C   UNK N   1      20.940  19.755   2.233  0.00  0.00     0.074 A 
HETATM   24  F   UNK N   1      22.968  20.871   2.840  0.00  0.00    -0.204 F 
HETATM   25  C   UNK N   1      20.036  18.712   2.446  0.00  0.00     0.056 A 
HETATM   26 Cl   UNK N   1      20.629  20.920   0.961  0.00  0.00    -0.081 Cl
ENDBRANCH  17  19
ENDBRANCH  10  17
BRANCH   1  27
HETATM   27  C   UNK N   1      21.351  13.114   8.615  0.00  0.00     0.102 C 
HETATM   28  C   UNK N   1      22.838  13.452   8.618  0.00  0.00     0.056 C 
HETATM   29  C   UNK N   1      23.560  12.553   9.621  0.00  0.00     0.274 C 
HETATM   30  N   UNK N   1      22.996  12.721  10.960  0.00  0.00     0.084 N 
HETATM   31  C   UNK N   1      23.690  11.792  11.832  0.00  0.00     0.309 C 
HETATM   32  C   UNK N   1      21.587  12.329  10.950  0.00  0.00     0.274 C 
HETATM   33  C   UNK N   1      20.798  13.257  10.031  0.00  0.00     0.056 C 
ENDBRANCH   1  27
TORSDOF 3
ENDMDL
MODEL 4
REMARK VINA RESULT:      -7.4      4.526      7.207
REMARK  3 active torsions:
REMARK  status: ('A' for Active; 'I' for Inactive)
REMARK    1  A    between atoms: C_5  and  N_8 
REMARK       I    between atoms: N_8  and  C_9 
REMARK    2  A    between atoms: C_17  and  N_23 
REMARK    3  A    between atoms: N_23  and  C_24 
ROOT
HETATM    1  N   UNK N   1      27.918  18.482   4.712  0.00  0.00    -0.221 N 
HETATM    2  C   UNK N   1      28.878  17.511   4.331  0.00  0.00     0.678 A 
HETATM    3  N   UNK N   1      28.894  16.997   3.067  0.00  0.00    -0.200 N 
ATOM      4  HN  UNK N   1      28.192  17.301   2.393  1.00  0.00     0.183 HD
HETATM    5  C   UNK N   1      29.832  16.086   2.691  0.00  0.00     0.138 A 
HETATM    6  C   UNK N   1      30.781  15.655   3.614  0.00  0.00     0.080 A 
HETATM    7  C   UNK N   1      30.739  16.176   4.911  0.00  0.00     0.121 A 
HETATM    8  N   UNK N   1      29.797  17.097   5.242  0.00  0.00    -0.186 N 
ATOM      9  HN  UNK N   1      29.781  17.484   6.186  1.00  0.00     0.184 HD
HETATM   10  C   UNK N   1      31.667  15.724   5.849  0.00  0.00     0.136 A 
HETATM   11  N   UNK N   1      32.597  14.802   5.471  0.00  0.00    -0.337 N 
ATOM     12  HN  UNK N   1      33.277  14.468   6.154  1.00  0.00     0.168 HD
HETATM   13  C   UNK N   1      32.633  14.319   4.199  0.00  0.00     0.182 A 
HETATM   14  N   UNK N   1      31.726  14.741   3.277  0.00  0.00    -0.349 N 
ATOM     15  HN  UNK N   1      31.755  14.367   2.329  1.00  0.00     0.166 HD
HETATM   16  H   UNK N   1      28.068  18.977   5.551  0.00  0.00     0.178 HD
ENDROOT
BRANCH  10  17
HETATM   17  N   UNK N   1      31.606  16.219   7.182  0.00  0.00    -0.340 N 
HETATM   18  H   UNK N   1      30.715  16.459   7.524  0.00  0.00     0.167 HD
BRANCH  17  19
HETATM   19  C   UNK N   1      32.699  16.402   8.072  0.00  0.00     0.035 A 
HETATM   20  C   UNK N   1      33.499  17.540   7.924  0.00  0.00     0.032 A 
HETATM   21  C   UNK N   1      34.579  17.763   8.780  0.00  0.00     0.046 A 
HETATM   22  C   UNK N   1      34.871  16.845   9.792  0.00  0.00     0.138 A 
HETATM   23  C   UNK N   1      34.076  15.702   9.948  0.00  0.00     0.074 A 
HETATM   24  F   UNK N   1      35.924  17.068  10.616  0.00  0.00    -0.204 F 
HETATM   25  C   UNK N   1      32.994  15.484   9.091  0.00  0.00     0.056 A 
HETATM   26 Cl   UNK N   1      34.425  14.537  11.210  0.00  0.00    -0.081 Cl
ENDBRANCH  17  19
ENDBRANCH  10  17
BRANCH   1  27
HETATM   27  C   UNK N   1      26.734  18.789   3.945  0.00  0.00     0.102 C 
HETATM   28  C   UNK N   1      25.501  18.447   4.775  0.00  0.00     0.056 C 
HETATM   29  C   UNK N   1      24.243  18.779   3.974  0.00  0.00     0.274 C 
HETATM   30  N   UNK N   1      24.230  20.193   3.602  0.00  0.00     0.084 N 
HETATM   31  C   UNK N   1      23.043  20.409   2.796  0.00  0.00     0.309 C 
HETATM   32  C   UNK N   1      25.385  20.486   2.752  0.00  0.00     0.274 C 
HETATM   33  C   UNK N   1      26.674  20.258   3.534  0.00  0.00     0.056 C 
ENDBRANCH   1  27
TORSDOF 3
ENDMDL
MODEL 5
REMARK VINA RESULT:      -7.4      2.967      4.413
REMARK  3 active torsions:
REMARK  status: ('A' for Active; 'I' for Inactive)
REMARK    1  A    between atoms: C_5  and  N_8 
REMARK       I    between atoms: N_8  and  C_9 
REMARK    2  A    between atoms: C_17  and  N_23 
REMARK    3  A    between atoms: N_23  and  C_24 
ROOT
HETATM    1  N   UNK N   1      34.570  14.207  11.472  0.00  0.00    -0.221 N 
HETATM    2  C   UNK N   1      35.352  13.029  11.576  0.00  0.00     0.678 A 
HETATM    3  N   UNK N   1      36.287  12.720  10.630  0.00  0.00    -0.200 N 
ATOM      4  HN  UNK N   1      36.409  13.335   9.826  1.00  0.00     0.183 HD
HETATM    5  C   UNK N   1      37.058  11.605  10.743  0.00  0.00     0.138 A 
HETATM    6  C   UNK N   1      36.881  10.754  11.830  0.00  0.00     0.080 A 
HETATM    7  C   UNK N   1      35.906  11.074  12.781  0.00  0.00     0.121 A 
HETATM    8  N   UNK N   1      35.169  12.206  12.641  0.00  0.00    -0.186 N 
ATOM      9  HN  UNK N   1      34.469  12.441  13.345  1.00  0.00     0.184 HD
HETATM   10  C   UNK N   1      35.702  10.208  13.855  0.00  0.00     0.136 A 
HETATM   11  N   UNK N   1      36.469   9.085  13.956  0.00  0.00    -0.337 N 
ATOM     12  HN  UNK N   1      36.323   8.449  14.740  1.00  0.00     0.168 HD
HETATM   13  C   UNK N   1      37.425   8.799  13.030  0.00  0.00     0.182 A 
HETATM   14  N   UNK N   1      37.625   9.628  11.971  0.00  0.00    -0.349 N 
ATOM     15  HN  UNK N   1      38.338   9.401  11.277  1.00  0.00     0.166 HD
HETATM   16  H   UNK N   1      34.068  14.501  12.266  0.00  0.00     0.178 HD
ENDROOT
BRANCH  10  17
HETATM   17  N   UNK N   1      34.685  10.505  14.805  0.00  0.00    -0.340 N 
HETATM   18  H   UNK N   1      33.754  10.376  14.510  0.00  0.00     0.167 HD
BRANCH  17  19
HETATM   19  C   UNK N   1      34.873  10.969  16.135  0.00  0.00     0.035 A 
HETATM   20  C   UNK N   1      34.935  10.028  17.168  0.00  0.00     0.032 A 
HETATM   21  C   UNK N   1      35.126  10.438  18.489  0.00  0.00     0.046 A 
HETATM   22  C   UNK N   1      35.254  11.797  18.788  0.00  0.00     0.138 A 
HETATM   23  C   UNK N   1      35.193  12.746  17.760  0.00  0.00     0.074 A 
HETATM   24  F   UNK N   1      35.436  12.186  20.074  0.00  0.00    -0.204 F 
HETATM   25  C   UNK N   1      35.005  12.332  16.439  0.00  0.00     0.056 A 
HETATM   26 Cl   UNK N   1      35.350  14.456  18.113  0.00  0.00    -0.081 Cl
ENDBRANCH  17  19
ENDBRANCH  10  17
BRANCH   1  27
HETATM   27  C   UNK N   1      34.466  15.002  10.271  0.00  0.00     0.102 C 
HETATM   28  C   UNK N   1      33.011  15.029   9.817  0.00  0.00     0.056 C 
HETATM   29  C   UNK N   1      32.890  15.878   8.552  0.00  0.00     0.274 C 
HETATM   30  N   UNK N   1      33.373  17.236   8.798  0.00  0.00     0.084 N 
HETATM   31  C   UNK N   1      33.284  17.952   7.539  0.00  0.00     0.309 C 
HETATM   32  C   UNK N   1      34.788  17.193   9.167  0.00  0.00     0.274 C 
HETATM   33  C   UNK N   1      34.958  16.432  10.478  0.00  0.00     0.056 C 
ENDBRANCH   1  27
TORSDOF 3
ENDMDL
MODEL 6
REMARK VINA RESULT:      -7.4     12.620     16.229
REMARK  3 active torsions:
REMARK  status: ('A' for Active; 'I' for Inactive)
REMARK    1  A    between atoms: C_5  and  N_8 
REMARK       I    between atoms: N_8  and  C_9 
REMARK    2  A    between atoms: C_17  and  N_23 
REMARK    3  A    between atoms: N_23  and  C_24 
ROOT
HETATM    1  N   UNK N   1      21.791  14.315   6.583  0.00  0.00    -0.221 N 
HETATM    2  C   UNK N   1      21.578  15.602   6.029  0.00  0.00     0.678 A 
HETATM    3  N   UNK N   1      21.999  16.726   6.680  0.00  0.00    -0.200 N 
ATOM      4  HN  UNK N   1      22.455  16.638   7.587  1.00  0.00     0.183 HD
HETATM    5  C   UNK N   1      21.820  17.960   6.136  0.00  0.00     0.138 A 
HETATM    6  C   UNK N   1      21.181  18.083   4.906  0.00  0.00     0.080 A 
HETATM    7  C   UNK N   1      20.738  16.924   4.261  0.00  0.00     0.121 A 
HETATM    8  N   UNK N   1      20.951  15.709   4.829  0.00  0.00    -0.186 N 
ATOM      9  HN  UNK N   1      20.638  14.866   4.347  1.00  0.00     0.184 HD
HETATM   10  C   UNK N   1      20.069  17.044   3.043  0.00  0.00     0.136 A 
HETATM   11  N   UNK N   1      19.881  18.284   2.509  0.00  0.00    -0.337 N 
ATOM     12  HN  UNK N   1      19.391  18.377   1.619  1.00  0.00     0.168 HD
HETATM   13  C   UNK N   1      20.335  19.400   3.143  0.00  0.00     0.182 A 
HETATM   14  N   UNK N   1      20.977  19.299   4.338  0.00  0.00    -0.349 N 
ATOM     15  HN  UNK N   1      21.306  20.141   4.810  1.00  0.00     0.166 HD
HETATM   16  H   UNK N   1      21.668  13.532   5.998  0.00  0.00     0.178 HD
ENDROOT
BRANCH  10  17
HETATM   17  N   UNK N   1      19.579  15.873   2.400  0.00  0.00    -0.340 N 
HETATM   18  H   UNK N   1      18.603  15.743   2.402  0.00  0.00     0.167 HD
BRANCH  17  19
HETATM   19  C   UNK N   1      20.353  14.871   1.755  0.00  0.00     0.035 A 
HETATM   20  C   UNK N   1      19.720  13.688   1.359  0.00  0.00     0.032 A 
HETATM   21  C   UNK N   1      20.440  12.679   0.716  0.00  0.00     0.046 A 
HETATM   22  C   UNK N   1      21.804  12.846   0.464  0.00  0.00     0.138 A 
HETATM   23  C   UNK N   1      22.447  14.027   0.856  0.00  0.00     0.074 A 
HETATM   24  F   UNK N   1      22.496  11.860  -0.159  0.00  0.00    -0.204 F 
HETATM   25  C   UNK N   1      21.722  15.035   1.497  0.00  0.00     0.056 A 
HETATM   26 Cl   UNK N   1      24.158  14.256   0.551  0.00  0.00    -0.081 Cl
ENDBRANCH  17  19
ENDBRANCH  10  17
BRANCH   1  27
HETATM   27  C   UNK N   1      22.178  14.082   7.955  0.00  0.00     0.102 C 
HETATM   28  C   UNK N   1      21.013  13.438   8.699  0.00  0.00     0.056 C 
HETATM   29  C   UNK N   1      21.418  13.178  10.149  0.00  0.00     0.274 C 
HETATM   30  N   UNK N   1      22.598  12.315  10.205  0.00  0.00     0.084 N 
HETATM   31  C   UNK N   1      22.951  12.171  11.605  0.00  0.00     0.309 C 
HETATM   32  C   UNK N   1      23.722  12.979   9.544  0.00  0.00     0.274 C 
HETATM   33  C   UNK N   1      23.407  13.182   8.066  0.00  0.00     0.056 C 
ENDBRANCH   1  27
TORSDOF 3
ENDMDL
MODEL 7
REMARK VINA RESULT:      -7.4      7.367     13.147
REMARK  3 active torsions:
REMARK  status: ('A' for Active; 'I' for Inactive)
REMARK    1  A    between atoms: C_5  and  N_8 
REMARK       I    between atoms: N_8  and  C_9 
REMARK    2  A    between atoms: C_17  and  N_23 
REMARK    3  A    between atoms: N_23  and  C_24 
ROOT
HETATM    1  N   UNK N   1      26.978  17.151   5.591  0.00  0.00    -0.221 N 
HETATM    2  C   UNK N   1      26.072  18.036   4.954  0.00  0.00     0.678 A 
HETATM    3  N   UNK N   1      26.463  19.286   4.570  0.00  0.00    -0.200 N 
ATOM      4  HN  UNK N   1      27.415  19.595   4.763  1.00  0.00     0.183 HD
HETATM    5  C   UNK N   1      25.603  20.126   3.933  0.00  0.00     0.138 A 
HETATM    6  C   UNK N   1      24.297  19.713   3.684  0.00  0.00     0.080 A 
HETATM    7  C   UNK N   1      23.905  18.437   4.102  0.00  0.00     0.121 A 
HETATM    8  N   UNK N   1      24.800  17.622   4.719  0.00  0.00    -0.186 N 
ATOM      9  HN  UNK N   1      24.513  16.687   5.008  1.00  0.00     0.184 HD
HETATM   10  C   UNK N   1      22.589  18.031   3.884  0.00  0.00     0.136 A 
HETATM   11  N   UNK N   1      21.728  18.881   3.257  0.00  0.00    -0.337 N 
ATOM     12  HN  UNK N   1      20.764  18.588   3.096  1.00  0.00     0.168 HD
HETATM   13  C   UNK N   1      22.131  20.113   2.842  0.00  0.00     0.182 A 
HETATM   14  N   UNK N   1      23.408  20.528   3.060  0.00  0.00    -0.349 N 
ATOM     15  HN  UNK N   1      23.700  21.456   2.754  1.00  0.00     0.166 HD
HETATM   16  H   UNK N   1      26.728  16.201   5.659  0.00  0.00     0.178 HD
ENDROOT
BRANCH  10  17
HETATM   17  N   UNK N   1      22.172  16.749   4.341  0.00  0.00    -0.340 N 
HETATM   18  H   UNK N   1      22.152  16.027   3.673  0.00  0.00     0.167 HD
BRANCH  17  19
HETATM   19  C   UNK N   1      21.783  16.403   5.664  0.00  0.00     0.035 A 
HETATM   20  C   UNK N   1      22.222  15.185   6.193  0.00  0.00     0.032 A 
HETATM   21  C   UNK N   1      21.870  14.809   7.491  0.00  0.00     0.046 A 
HETATM   22  C   UNK N   1      21.071  15.649   8.270  0.00  0.00     0.138 A 
HETATM   23  C   UNK N   1      20.626  16.871   7.749  0.00  0.00     0.074 A 
HETATM   24  F   UNK N   1      20.731  15.274   9.528  0.00  0.00    -0.204 F 
HETATM   25  C   UNK N   1      20.984  17.245   6.451  0.00  0.00     0.056 A 
HETATM   26 Cl   UNK N   1      19.622  17.939   8.709  0.00  0.00    -0.081 Cl
ENDBRANCH  17  19
ENDBRANCH  10  17
BRANCH   1  27
HETATM   27  C   UNK N   1      28.247  17.559   6.146  0.00  0.00     0.102 C 
HETATM   28  C   UNK N   1      28.131  17.615   7.665  0.00  0.00     0.056 C 
HETATM   29  C   UNK N   1      29.473  18.036   8.261  0.00  0.00     0.274 C 
HETATM   30  N   UNK N   1      30.527  17.102   7.864  0.00  0.00     0.084 N 
HETATM   31  C   UNK N   1      31.770  17.606   8.416  0.00  0.00     0.309 C 
HETATM   32  C   UNK N   1      30.667  17.113   6.408  0.00  0.00     0.274 C 
HETATM   33  C   UNK N   1      29.380  16.611   5.760  0.00  0.00     0.056 C 
ENDBRANCH   1  27
TORSDOF 3
ENDMDL
MODEL 8
REMARK VINA RESULT:      -7.2      7.349     13.282
REMARK  3 active torsions:
REMARK  status: ('A' for Active; 'I' for Inactive)
REMARK    1  A    between atoms: C_5  and  N_8 
REMARK       I    between atoms: N_8  and  C_9 
REMARK    2  A    between atoms: C_17  and  N_23 
REMARK    3  A    between atoms: N_23  and  C_24 
ROOT
HETATM    1  N   UNK N   1      28.184  17.356   6.499  0.00  0.00    -0.221 N 
HETATM    2  C   UNK N   1      27.452  18.169   5.597  0.00  0.00     0.678 A 
HETATM    3  N   UNK N   1      28.089  19.043   4.764  0.00  0.00    -0.200 N 
ATOM      4  HN  UNK N   1      29.105  19.125   4.805  1.00  0.00     0.183 HD
HETATM    5  C   UNK N   1      27.391  19.804   3.878  0.00  0.00     0.138 A 
HETATM    6  C   UNK N   1      26.003  19.706   3.832  0.00  0.00     0.080 A 
HETATM    7  C   UNK N   1      25.364  18.821   4.707  0.00  0.00     0.121 A 
HETATM    8  N   UNK N   1      26.099  18.066   5.564  0.00  0.00    -0.186 N 
ATOM      9  HN  UNK N   1      25.628  17.412   6.189  1.00  0.00     0.184 HD
HETATM   10  C   UNK N   1      23.972  18.742   4.687  0.00  0.00     0.136 A 
HETATM   11  N   UNK N   1      23.276  19.516   3.807  0.00  0.00    -0.337 N 
ATOM     12  HN  UNK N   1      22.258  19.463   3.790  1.00  0.00     0.168 HD
HETATM   13  C   UNK N   1      23.917  20.360   2.951  0.00  0.00     0.182 A 
HETATM   14  N   UNK N   1      25.273  20.456   2.969  0.00  0.00    -0.349 N 
ATOM     15  HN  UNK N   1      25.744  21.097   2.330  1.00  0.00     0.166 HD
HETATM   16  H   UNK N   1      27.717  16.600   6.924  0.00  0.00     0.178 HD
ENDROOT
BRANCH  10  17
HETATM   17  N   UNK N   1      23.311  17.874   5.601  0.00  0.00    -0.340 N 
HETATM   18  H   UNK N   1      23.759  17.717   6.463  0.00  0.00     0.167 HD
BRANCH  17  19
HETATM   19  C   UNK N   1      22.070  17.212   5.399  0.00  0.00     0.035 A 
HETATM   20  C   UNK N   1      21.216  17.043   6.494  0.00  0.00     0.032 A 
HETATM   21  C   UNK N   1      19.984  16.404   6.339  0.00  0.00     0.046 A 
HETATM   22  C   UNK N   1      19.597  15.926   5.085  0.00  0.00     0.138 A 
HETATM   23  C   UNK N   1      20.445  16.090   3.983  0.00  0.00     0.074 A 
HETATM   24  F   UNK N   1      18.400  15.304   4.945  0.00  0.00    -0.204 F 
HETATM   25  C   UNK N   1      21.676  16.733   4.141  0.00  0.00     0.056 A 
HETATM   26 Cl   UNK N   1      19.980  15.497   2.401  0.00  0.00    -0.081 Cl
ENDBRANCH  17  19
ENDBRANCH  10  17
BRANCH   1  27
HETATM   27  C   UNK N   1      29.573  17.569   6.831  0.00  0.00     0.102 C 
HETATM   28  C   UNK N   1      29.692  17.835   8.328  0.00  0.00     0.056 C 
HETATM   29  C   UNK N   1      31.160  18.051   8.690  0.00  0.00     0.274 C 
HETATM   30  N   UNK N   1      31.958  16.884   8.315  0.00  0.00     0.084 N 
HETATM   31  C   UNK N   1      33.339  17.194   8.633  0.00  0.00     0.309 C 
HETATM   32  C   UNK N   1      31.884  16.685   6.868  0.00  0.00     0.274 C 
HETATM   33  C   UNK N   1      30.448  16.373   6.460  0.00  0.00     0.056 C 
ENDBRANCH   1  27
TORSDOF 3
ENDMDL
MODEL 9
REMARK VINA RESULT:      -7.2      2.650      3.588
REMARK  3 active torsions:
REMARK  status: ('A' for Active; 'I' for Inactive)
REMARK    1  A    between atoms: C_5  and  N_8 
REMARK       I    between atoms: N_8  and  C_9 
REMARK    2  A    between atoms: C_17  and  N_23 
REMARK    3  A    between atoms: N_23  and  C_24 
ROOT
HETATM    1  N   UNK N   1      33.710  14.928  10.906  0.00  0.00    -0.221 N 
HETATM    2  C   UNK N   1      34.694  13.912  10.990  0.00  0.00     0.678 A 
HETATM    3  N   UNK N   1      35.622  13.750  10.002  0.00  0.00    -0.200 N 
ATOM      4  HN  UNK N   1      35.594  14.356   9.183  1.00  0.00     0.183 HD
HETATM    5  C   UNK N   1      36.585  12.793  10.094  0.00  0.00     0.138 A 
HETATM    6  C   UNK N   1      36.616  11.953  11.203  0.00  0.00     0.080 A 
HETATM    7  C   UNK N   1      35.646  12.118  12.197  0.00  0.00     0.121 A 
HETATM    8  N   UNK N   1      34.712  13.097  12.076  0.00  0.00    -0.186 N 
ATOM      9  HN  UNK N   1      34.016  13.222  12.811  1.00  0.00     0.184 HD
HETATM   10  C   UNK N   1      35.652  11.258  13.294  0.00  0.00     0.136 A 
HETATM   11  N   UNK N   1      36.611  10.293  13.376  0.00  0.00    -0.337 N 
ATOM     12  HN  UNK N   1      36.619   9.661  14.176  1.00  0.00     0.168 HD
HETATM   13  C   UNK N   1      37.558  10.158  12.406  0.00  0.00     0.182 A 
HETATM   14  N   UNK N   1      37.556  10.981  11.324  0.00  0.00    -0.349 N 
ATOM     15  HN  UNK N   1      38.264  10.867  10.598  1.00  0.00     0.166 HD
HETATM   16  H   UNK N   1      33.201  15.149  11.720  0.00  0.00     0.178 HD
ENDROOT
BRANCH  10  17
HETATM   17  N   UNK N   1      34.644  11.394  14.291  0.00  0.00    -0.340 N 
HETATM   18  H   UNK N   1      33.716  11.240  14.003  0.00  0.00     0.167 HD
BRANCH  17  19
HETATM   19  C   UNK N   1      34.841  11.728  15.658  0.00  0.00     0.035 A 
HETATM   20  C   UNK N   1      34.786  13.074  16.032  0.00  0.00     0.032 A 
HETATM   21  C   UNK N   1      34.966  13.447  17.366  0.00  0.00     0.046 A 
HETATM   22  C   UNK N   1      35.206  12.473  18.338  0.00  0.00     0.138 A 
HETATM   23  C   UNK N   1      35.263  11.122  17.973  0.00  0.00     0.074 A 
HETATM   24  F   UNK N   1      35.383  12.845  19.629  0.00  0.00    -0.204 F 
HETATM   25  C   UNK N   1      35.079  10.753  16.638  0.00  0.00     0.056 A 
HETATM   26 Cl   UNK N   1      35.564   9.884  19.177  0.00  0.00    -0.081 Cl
ENDBRANCH  17  19
ENDBRANCH  10  17
BRANCH   1  27
HETATM   27  C   UNK N   1      33.407  15.661   9.699  0.00  0.00     0.102 C 
HETATM   28  C   UNK N   1      34.530  16.655   9.426  0.00  0.00     0.056 C 
HETATM   29  C   UNK N   1      34.224  17.427   8.143  0.00  0.00     0.274 C 
HETATM   30  N   UNK N   1      34.070  16.508   7.015  0.00  0.00     0.084 N 
HETATM   31  C   UNK N   1      33.720  17.311   5.859  0.00  0.00     0.309 C 
HETATM   32  C   UNK N   1      32.946  15.607   7.268  0.00  0.00     0.274 C 
HETATM   33  C   UNK N   1      33.240  14.743   8.491  0.00  0.00     0.056 C 
ENDBRANCH   1  27
TORSDOF 3
ENDMDL
