MODEL 1
REMARK VINA RESULT:      -7.6      0.000      0.000
REMARK  7 active torsions:
REMARK  status: ('A' for Active; 'I' for Inactive)
REMARK    1  A    between atoms: C_2  and  C_3 
REMARK    2  A    between atoms: C_2  and  N_11 
REMARK    3  A    between atoms: C_3  and  C_4 
REMARK    4  A    between atoms: C_3  and  O_10 
REMARK    5  A    between atoms: N_11  and  C_12 
REMARK    6  A    between atoms: C_12  and  C_13 
REMARK    7  A    between atoms: C_13  and  N_14 
ROOT
HETATM    1  C   UNK N   1      35.525  13.509  11.502  0.00  0.00     0.149 C 
ENDROOT
BRANCH   1   2
HETATM    2  C   UNK N   1      36.836  13.437  12.268  0.00  0.00     0.134 C 
BRANCH   2   3
HETATM    3  N   UNK N   1      36.555  13.685  13.680  0.00  0.00    -0.413 N 
HETATM    4  H   UNK N   1      36.232  14.585  14.033  0.00  0.00     0.153 HD
BRANCH   3   5
HETATM    5  C   UNK N   1      36.779  12.516  14.549  0.00  0.00     0.105 C 
HETATM    6  C   UNK N   1      37.710  11.446  13.963  0.00  0.00     0.035 C 
BRANCH   5   7
HETATM    7  C   UNK N   1      35.462  11.954  15.101  0.00  0.00     0.173 C 
BRANCH   7   8
HETATM    8  C   UNK N   1      35.384  12.173  16.594  0.00  0.00    -0.028 A 
HETATM    9  C   UNK N   1      35.494  11.082  17.469  0.00  0.00     0.010 A 
HETATM   10  C   UNK N   1      35.460  11.276  18.852  0.00  0.00     0.001 A 
HETATM   11  C   UNK N   1      35.317  12.564  19.373  0.00  0.00     0.000 A 
HETATM   12  C   UNK N   1      35.197  13.657  18.510  0.00  0.00     0.001 A 
HETATM   13  C   UNK N   1      35.227  13.464  17.127  0.00  0.00     0.010 A 
ENDBRANCH   7   8
BRANCH   7  14
HETATM   14  O   UNK N   1      34.393  12.591  14.460  0.00  0.00    -0.389 OA
HETATM   15  H   UNK N   1      34.252  13.543  14.581  0.00  0.00     0.210 HD
ENDBRANCH   7  14
ENDBRANCH   5   7
ENDBRANCH   3   5
ENDBRANCH   2   3
ENDBRANCH   1   2
BRANCH   1  16
HETATM   16  N   UNK N   1      35.334  14.800  10.864  0.00  0.00    -0.334 N 
HETATM   17  C   UNK N   1      35.206  15.987  11.504  0.00  0.00     0.185 A 
HETATM   18  N   UNK N   1      34.968  16.997  10.624  0.00  0.00    -0.336 N 
HETATM   19  C   UNK N   1      34.944  16.391   9.422  0.00  0.00     0.145 A 
ATOM     20  HN  UNK N   1      34.836  17.988  10.829  1.00  0.00     0.168 HD
HETATM   21  C   UNK N   1      35.170  15.069   9.560  0.00  0.00     0.149 A 
HETATM   22  N   UNK N   1      34.711  16.969   8.218  0.00  0.00    -0.287 N 
HETATM   23  C   UNK N   1      35.182  14.232   8.451  0.00  0.00     0.282 A 
HETATM   24  O   UNK N   1      35.384  13.034   8.571  0.00  0.00    -0.265 OA
HETATM   25  N   UNK N   1      34.955  14.795   7.210  0.00  0.00    -0.269 N 
HETATM   26  C   UNK N   1      34.714  16.162   7.090  0.00  0.00     0.332 A 
HETATM   27  C   UNK N   1      34.960  13.949   6.018  0.00  0.00     0.164 C 
HETATM   28  O   UNK N   1      34.501  16.651   5.992  0.00  0.00    -0.246 OA
HETATM   29  C   UNK N   1      34.451  18.401   8.124  0.00  0.00     0.163 C 
ENDBRANCH   1  16
TORSDOF 7
ENDMDL
MODEL 2
REMARK VINA RESULT:      -7.5     14.154     15.809
REMARK  7 active torsions:
REMARK  status: ('A' for Active; 'I' for Inactive)
REMARK    1  A    between atoms: C_2  and  C_3 
REMARK    2  A    between atoms: C_2  and  N_11 
REMARK    3  A    between atoms: C_3  and  C_4 
REMARK    4  A    between atoms: C_3  and  O_10 
REMARK    5  A    between atoms: N_11  and  C_12 
REMARK    6  A    between atoms: C_12  and  C_13 
REMARK    7  A    between atoms: C_13  and  N_14 
ROOT
HETATM    1  C   UNK N   1      20.407  17.016   6.186  0.00  0.00     0.149 C 
ENDROOT
BRANCH   1   2
HETATM    2  C   UNK N   1      21.734  16.413   6.618  0.00  0.00     0.134 C 
BRANCH   2   3
HETATM    3  N   UNK N   1      21.477  15.483   7.716  0.00  0.00    -0.413 N 
HETATM    4  H   UNK N   1      20.912  15.726   8.529  0.00  0.00     0.153 HD
BRANCH   3   5
HETATM    5  C   UNK N   1      22.108  14.162   7.542  0.00  0.00     0.105 C 
HETATM    6  C   UNK N   1      22.325  13.739   6.083  0.00  0.00     0.035 C 
BRANCH   5   7
HETATM    7  C   UNK N   1      21.430  13.088   8.403  0.00  0.00     0.173 C 
BRANCH   7   8
HETATM    8  C   UNK N   1      22.338  12.677   9.539  0.00  0.00    -0.028 A 
HETATM    9  C   UNK N   1      23.729  12.671   9.357  0.00  0.00     0.010 A 
HETATM   10  C   UNK N   1      24.581  12.329  10.409  0.00  0.00     0.001 A 
HETATM   11  C   UNK N   1      24.048  11.990  11.656  0.00  0.00     0.000 A 
HETATM   12  C   UNK N   1      22.664  11.984  11.845  0.00  0.00     0.001 A 
HETATM   13  C   UNK N   1      21.811  12.323  10.792  0.00  0.00     0.010 A 
ENDBRANCH   7   8
BRANCH   7  14
HETATM   14  O   UNK N   1      20.227  13.600   8.903  0.00  0.00    -0.389 OA
HETATM   15  H   UNK N   1      19.644  13.036   9.436  0.00  0.00     0.210 HD
ENDBRANCH   7  14
ENDBRANCH   5   7
ENDBRANCH   3   5
ENDBRANCH   2   3
ENDBRANCH   1   2
BRANCH   1  16
HETATM   16  N   UNK N   1      20.135  16.787   4.778  0.00  0.00    -0.334 N 
HETATM   17  C   UNK N   1      19.719  15.619   4.234  0.00  0.00     0.185 A 
HETATM   18  N   UNK N   1      19.626  15.713   2.879  0.00  0.00    -0.336 N 
HETATM   19  C   UNK N   1      20.007  16.976   2.608  0.00  0.00     0.145 A 
ATOM     20  HN  UNK N   1      19.334  14.991   2.220  1.00  0.00     0.168 HD
HETATM   21  C   UNK N   1      20.309  17.628   3.749  0.00  0.00     0.149 A 
HETATM   22  N   UNK N   1      20.113  17.554   1.386  0.00  0.00    -0.287 N 
HETATM   23  C   UNK N   1      20.741  18.949   3.717  0.00  0.00     0.282 A 
HETATM   24  O   UNK N   1      21.018  19.544   4.746  0.00  0.00    -0.265 OA
HETATM   25  N   UNK N   1      20.850  19.567   2.485  0.00  0.00    -0.269 N 
HETATM   26  C   UNK N   1      20.542  18.871   1.318  0.00  0.00     0.332 A 
HETATM   27  C   UNK N   1      21.300  20.955   2.409  0.00  0.00     0.164 C 
HETATM   28  O   UNK N   1      20.654  19.419   0.233  0.00  0.00    -0.246 OA
HETATM   29  C   UNK N   1      19.794  16.799   0.181  0.00  0.00     0.163 C 
ENDBRANCH   1  16
TORSDOF 7
ENDMDL
MODEL 3
REMARK VINA RESULT:      -7.0      1.434      2.507
REMARK  7 active torsions:
REMARK  status: ('A' for Active; 'I' for Inactive)
REMARK    1  A    between atoms: C_2  and  C_3 
REMARK    2  A    between atoms: C_2  and  N_11 
REMARK    3  A    between atoms: C_3  and  C_4 
REMARK    4  A    between atoms: C_3  and  O_10 
REMARK    5  A    between atoms: N_11  and  C_12 
REMARK    6  A    between atoms: C_12  and  C_13 
REMARK    7  A    between atoms: C_13  and  N_14 
ROOT
HETATM    1  C   UNK N   1      35.784  14.610  11.853  0.00  0.00     0.149 C 
ENDROOT
BRANCH   1   2
HETATM    2  C   UNK N   1      36.138  13.387  12.685  0.00  0.00     0.134 C 
BRANCH   2   3
HETATM    3  N   UNK N   1      34.902  12.832  13.233  0.00  0.00    -0.413 N 
HETATM    4  H   UNK N   1      33.989  13.262  13.089  0.00  0.00     0.153 HD
BRANCH   3   5
HETATM    5  C   UNK N   1      35.094  11.595  14.011  0.00  0.00     0.105 C 
HETATM    6  C   UNK N   1      33.826  11.059  14.689  0.00  0.00     0.035 C 
BRANCH   5   7
HETATM    7  C   UNK N   1      36.303  11.693  14.950  0.00  0.00     0.173 C 
BRANCH   7   8
HETATM    8  C   UNK N   1      35.860  12.103  16.335  0.00  0.00    -0.028 A 
HETATM    9  C   UNK N   1      35.734  11.136  17.345  0.00  0.00     0.010 A 
HETATM   10  C   UNK N   1      35.361  11.508  18.638  0.00  0.00     0.001 A 
HETATM   11  C   UNK N   1      35.112  12.850  18.935  0.00  0.00     0.000 A 
HETATM   12  C   UNK N   1      35.226  13.819  17.935  0.00  0.00     0.001 A 
HETATM   13  C   UNK N   1      35.596  13.448  16.640  0.00  0.00     0.010 A 
ENDBRANCH   7   8
BRANCH   7  14
HETATM   14  O   UNK N   1      36.946  10.449  14.993  0.00  0.00    -0.389 OA
HETATM   15  H   UNK N   1      36.423   9.634  15.057  0.00  0.00     0.210 HD
ENDBRANCH   7  14
ENDBRANCH   5   7
ENDBRANCH   3   5
ENDBRANCH   2   3
ENDBRANCH   1   2
BRANCH   1  16
HETATM   16  N   UNK N   1      35.571  14.277  10.456  0.00  0.00    -0.334 N 
HETATM   17  C   UNK N   1      35.753  13.057   9.897  0.00  0.00     0.185 A 
HETATM   18  N   UNK N   1      35.539  13.094   8.554  0.00  0.00    -0.336 N 
HETATM   19  C   UNK N   1      35.228  14.380   8.303  0.00  0.00     0.145 A 
ATOM     20  HN  UNK N   1      35.601  12.323   7.888  1.00  0.00     0.168 HD
HETATM   21  C   UNK N   1      35.241  15.096   9.446  0.00  0.00     0.149 A 
HETATM   22  N   UNK N   1      34.956  14.936   7.097  0.00  0.00    -0.287 N 
HETATM   23  C   UNK N   1      34.960  16.456   9.434  0.00  0.00     0.282 A 
HETATM   24  O   UNK N   1      34.972  17.109  10.465  0.00  0.00    -0.265 OA
HETATM   25  N   UNK N   1      34.670  17.049   8.219  0.00  0.00    -0.269 N 
HETATM   26  C   UNK N   1      34.673  16.293   7.049  0.00  0.00     0.332 A 
HETATM   27  C   UNK N   1      34.370  18.478   8.164  0.00  0.00     0.164 C 
HETATM   28  O   UNK N   1      34.429  16.826   5.978  0.00  0.00    -0.246 OA
HETATM   29  C   UNK N   1      34.976  14.123   5.887  0.00  0.00     0.163 C 
ENDBRANCH   1  16
TORSDOF 7
ENDMDL
MODEL 4
REMARK VINA RESULT:      -7.0      6.366     10.132
REMARK  7 active torsions:
REMARK  status: ('A' for Active; 'I' for Inactive)
REMARK    1  A    between atoms: C_2  and  C_3 
REMARK    2  A    between atoms: C_2  and  N_11 
REMARK    3  A    between atoms: C_3  and  C_4 
REMARK    4  A    between atoms: C_3  and  O_10 
REMARK    5  A    between atoms: N_11  and  C_12 
REMARK    6  A    between atoms: C_12  and  C_13 
REMARK    7  A    between atoms: C_13  and  N_14 
ROOT
HETATM    1  C   UNK N   1      30.421  17.220   7.492  0.00  0.00     0.149 C 
ENDROOT
BRANCH   1   2
HETATM    2  C   UNK N   1      30.977  17.898   8.735  0.00  0.00     0.134 C 
BRANCH   2   3
HETATM    3  N   UNK N   1      32.435  17.891   8.646  0.00  0.00    -0.413 N 
HETATM    4  H   UNK N   1      33.015  18.666   8.965  0.00  0.00     0.153 HD
BRANCH   3   5
HETATM    5  C   UNK N   1      32.994  16.661   8.054  0.00  0.00     0.105 C 
HETATM    6  C   UNK N   1      33.263  15.530   9.055  0.00  0.00     0.035 C 
BRANCH   5   7
HETATM    7  C   UNK N   1      34.177  16.961   7.126  0.00  0.00     0.173 C 
BRANCH   7   8
HETATM    8  C   UNK N   1      33.800  16.686   5.689  0.00  0.00    -0.028 A 
HETATM    9  C   UNK N   1      34.163  15.471   5.089  0.00  0.00     0.010 A 
HETATM   10  C   UNK N   1      33.788  15.190   3.774  0.00  0.00     0.001 A 
HETATM   11  C   UNK N   1      33.045  16.122   3.046  0.00  0.00     0.000 A 
HETATM   12  C   UNK N   1      32.685  17.339   3.630  0.00  0.00     0.001 A 
HETATM   13  C   UNK N   1      33.063  17.623   4.945  0.00  0.00     0.010 A 
ENDBRANCH   7   8
BRANCH   7  14
HETATM   14  O   UNK N   1      34.549  18.302   7.283  0.00  0.00    -0.389 OA
HETATM   15  H   UNK N   1      35.473  18.531   7.470  0.00  0.00     0.210 HD
ENDBRANCH   7  14
ENDBRANCH   5   7
ENDBRANCH   3   5
ENDBRANCH   2   3
ENDBRANCH   1   2
BRANCH   1  16
HETATM   16  N   UNK N   1      29.207  17.860   7.018  0.00  0.00    -0.334 N 
HETATM   17  C   UNK N   1      28.512  18.821   7.673  0.00  0.00     0.185 A 
HETATM   18  N   UNK N   1      27.382  19.160   6.995  0.00  0.00    -0.336 N 
HETATM   19  C   UNK N   1      27.399  18.368   5.905  0.00  0.00     0.145 A 
ATOM     20  HN  UNK N   1      26.681  19.854   7.254  1.00  0.00     0.168 HD
HETATM   21  C   UNK N   1      28.499  17.588   5.912  0.00  0.00     0.149 A 
HETATM   22  N   UNK N   1      26.466  18.305   4.925  0.00  0.00    -0.287 N 
HETATM   23  C   UNK N   1      28.728  16.677   4.888  0.00  0.00     0.282 A 
HETATM   24  O   UNK N   1      29.721  15.967   4.890  0.00  0.00    -0.265 OA
HETATM   25  N   UNK N   1      27.797  16.596   3.870  0.00  0.00    -0.269 N 
HETATM   26  C   UNK N   1      26.662  17.405   3.888  0.00  0.00     0.332 A 
HETATM   27  C   UNK N   1      28.001  15.651   2.775  0.00  0.00     0.164 C 
HETATM   28  O   UNK N   1      25.837  17.319   2.992  0.00  0.00    -0.246 OA
HETATM   29  C   UNK N   1      25.283  19.156   4.974  0.00  0.00     0.163 C 
ENDBRANCH   1  16
TORSDOF 7
ENDMDL
MODEL 5
REMARK VINA RESULT:      -6.9      4.779     10.334
REMARK  7 active torsions:
REMARK  status: ('A' for Active; 'I' for Inactive)
REMARK    1  A    between atoms: C_2  and  C_3 
REMARK    2  A    between atoms: C_2  and  N_11 
REMARK    3  A    between atoms: C_3  and  C_4 
REMARK    4  A    between atoms: C_3  and  O_10 
REMARK    5  A    between atoms: N_11  and  C_12 
REMARK    6  A    between atoms: C_12  and  C_13 
REMARK    7  A    between atoms: C_13  and  N_14 
ROOT
HETATM    1  C   UNK N   1      33.084  15.255   4.636  0.00  0.00     0.149 C 
ENDROOT
BRANCH   1   2
HETATM    2  C   UNK N   1      31.601  15.535   4.450  0.00  0.00     0.134 C 
BRANCH   2   3
HETATM    3  N   UNK N   1      31.388  16.975   4.579  0.00  0.00    -0.413 N 
HETATM    4  H   UNK N   1      31.950  17.666   4.084  0.00  0.00     0.153 HD
BRANCH   3   5
HETATM    5  C   UNK N   1      30.285  17.339   5.488  0.00  0.00     0.105 C 
HETATM    6  C   UNK N   1      30.234  16.533   6.792  0.00  0.00     0.035 C 
BRANCH   5   7
HETATM    7  C   UNK N   1      28.941  17.413   4.754  0.00  0.00     0.173 C 
BRANCH   7   8
HETATM    8  C   UNK N   1      28.193  18.663   5.155  0.00  0.00    -0.028 A 
HETATM    9  C   UNK N   1      28.106  19.023   6.508  0.00  0.00     0.010 A 
HETATM   10  C   UNK N   1      27.449  20.196   6.888  0.00  0.00     0.001 A 
HETATM   11  C   UNK N   1      26.874  21.020   5.918  0.00  0.00     0.000 A 
HETATM   12  C   UNK N   1      26.947  20.666   4.568  0.00  0.00     0.001 A 
HETATM   13  C   UNK N   1      27.600  19.491   4.187  0.00  0.00     0.010 A 
ENDBRANCH   7   8
BRANCH   7  14
HETATM   14  O   UNK N   1      29.176  17.409   3.373  0.00  0.00    -0.389 OA
HETATM   15  H   UNK N   1      28.451  17.218   2.758  0.00  0.00     0.210 HD
ENDBRANCH   7  14
ENDBRANCH   5   7
ENDBRANCH   3   5
ENDBRANCH   2   3
ENDBRANCH   1   2
BRANCH   1  16
HETATM   16  N   UNK N   1      33.397  14.848   5.994  0.00  0.00    -0.334 N 
HETATM   17  C   UNK N   1      33.224  13.606   6.507  0.00  0.00     0.185 A 
HETATM   18  N   UNK N   1      33.545  13.570   7.829  0.00  0.00    -0.336 N 
HETATM   19  C   UNK N   1      33.912  14.834   8.115  0.00  0.00     0.145 A 
ATOM     20  HN  UNK N   1      33.513  12.769   8.459  1.00  0.00     0.168 HD
HETATM   21  C   UNK N   1      33.831  15.606   7.012  0.00  0.00     0.149 A 
HETATM   22  N   UNK N   1      34.296  15.322   9.320  0.00  0.00    -0.287 N 
HETATM   23  C   UNK N   1      34.151  16.956   7.067  0.00  0.00     0.282 A 
HETATM   24  O   UNK N   1      34.077  17.660   6.073  0.00  0.00    -0.265 OA
HETATM   25  N   UNK N   1      34.554  17.480   8.281  0.00  0.00    -0.269 N 
HETATM   26  C   UNK N   1      34.622  16.667   9.411  0.00  0.00     0.332 A 
HETATM   27  C   UNK N   1      34.901  18.896   8.381  0.00  0.00     0.164 C 
HETATM   28  O   UNK N   1      34.966  17.138  10.483  0.00  0.00    -0.246 OA
HETATM   29  C   UNK N   1      34.349  14.450  10.487  0.00  0.00     0.163 C 
ENDBRANCH   1  16
TORSDOF 7
ENDMDL
MODEL 6
REMARK VINA RESULT:      -6.9      4.760      9.910
REMARK  7 active torsions:
REMARK  status: ('A' for Active; 'I' for Inactive)
REMARK    1  A    between atoms: C_2  and  C_3 
REMARK    2  A    between atoms: C_2  and  N_11 
REMARK    3  A    between atoms: C_3  and  C_4 
REMARK    4  A    between atoms: C_3  and  O_10 
REMARK    5  A    between atoms: N_11  and  C_12 
REMARK    6  A    between atoms: C_12  and  C_13 
REMARK    7  A    between atoms: C_13  and  N_14 
ROOT
HETATM    1  C   UNK N   1      32.137  15.844   7.199  0.00  0.00     0.149 C 
ENDROOT
BRANCH   1   2
HETATM    2  C   UNK N   1      31.314  17.096   6.940  0.00  0.00     0.134 C 
BRANCH   2   3
HETATM    3  N   UNK N   1      30.057  16.978   7.675  0.00  0.00    -0.413 N 
HETATM    4  H   UNK N   1      29.576  16.090   7.813  0.00  0.00     0.153 HD
BRANCH   3   5
HETATM    5  C   UNK N   1      29.546  18.258   8.199  0.00  0.00     0.105 C 
HETATM    6  C   UNK N   1      29.997  18.594   9.627  0.00  0.00     0.035 C 
BRANCH   5   7
HETATM    7  C   UNK N   1      28.035  18.403   7.977  0.00  0.00     0.173 C 
BRANCH   7   8
HETATM    8  C   UNK N   1      27.763  19.064   6.645  0.00  0.00    -0.028 A 
HETATM    9  C   UNK N   1      27.775  18.300   5.469  0.00  0.00     0.010 A 
HETATM   10  C   UNK N   1      27.488  18.891   4.236  0.00  0.00     0.001 A 
HETATM   11  C   UNK N   1      27.185  20.253   4.170  0.00  0.00     0.000 A 
HETATM   12  C   UNK N   1      27.179  21.025   5.334  0.00  0.00     0.001 A 
HETATM   13  C   UNK N   1      27.469  20.435   6.567  0.00  0.00     0.010 A 
ENDBRANCH   7   8
BRANCH   7  14
HETATM   14  O   UNK N   1      27.445  17.134   8.019  0.00  0.00    -0.389 OA
HETATM   15  H   UNK N   1      27.046  16.812   8.843  0.00  0.00     0.210 HD
ENDBRANCH   7  14
ENDBRANCH   5   7
ENDBRANCH   3   5
ENDBRANCH   2   3
ENDBRANCH   1   2
BRANCH   1  16
HETATM   16  N   UNK N   1      32.990  15.982   8.365  0.00  0.00    -0.334 N 
HETATM   17  C   UNK N   1      33.442  17.151   8.880  0.00  0.00     0.185 A 
HETATM   18  N   UNK N   1      34.280  16.935   9.930  0.00  0.00    -0.336 N 
HETATM   19  C   UNK N   1      34.336  15.594  10.039  0.00  0.00     0.145 A 
ATOM     20  HN  UNK N   1      34.757  17.631  10.504  1.00  0.00     0.168 HD
HETATM   21  C   UNK N   1      33.557  15.016   9.102  0.00  0.00     0.149 A 
HETATM   22  N   UNK N   1      35.068  14.875  10.925  0.00  0.00    -0.287 N 
HETATM   23  C   UNK N   1      33.465  13.633   9.012  0.00  0.00     0.282 A 
HETATM   24  O   UNK N   1      32.763  13.104   8.165  0.00  0.00    -0.265 OA
HETATM   25  N   UNK N   1      34.194  12.873   9.908  0.00  0.00    -0.269 N 
HETATM   26  C   UNK N   1      35.000  13.491  10.862  0.00  0.00     0.332 A 
HETATM   27  C   UNK N   1      34.124  11.415   9.847  0.00  0.00     0.164 C 
HETATM   28  O   UNK N   1      35.651  12.814  11.641  0.00  0.00    -0.246 OA
HETATM   29  C   UNK N   1      35.911  15.548  11.905  0.00  0.00     0.163 C 
ENDBRANCH   1  16
TORSDOF 7
ENDMDL
MODEL 7
REMARK VINA RESULT:      -6.9     12.671     14.414
REMARK  7 active torsions:
REMARK  status: ('A' for Active; 'I' for Inactive)
REMARK    1  A    between atoms: C_2  and  C_3 
REMARK    2  A    between atoms: C_2  and  N_11 
REMARK    3  A    between atoms: C_3  and  C_4 
REMARK    4  A    between atoms: C_3  and  O_10 
REMARK    5  A    between atoms: N_11  and  C_12 
REMARK    6  A    between atoms: C_12  and  C_13 
REMARK    7  A    between atoms: C_13  and  N_14 
ROOT
HETATM    1  C   UNK N   1      21.947  15.530   5.288  0.00  0.00     0.149 C 
ENDROOT
BRANCH   1   2
HETATM    2  C   UNK N   1      21.125  15.860   6.524  0.00  0.00     0.134 C 
BRANCH   2   3
HETATM    3  N   UNK N   1      20.394  14.659   6.920  0.00  0.00    -0.413 N 
HETATM    4  H   UNK N   1      19.390  14.548   6.780  0.00  0.00     0.153 HD
BRANCH   3   5
HETATM    5  C   UNK N   1      21.237  13.621   7.541  0.00  0.00     0.105 C 
HETATM    6  C   UNK N   1      21.212  12.262   6.830  0.00  0.00     0.035 C 
BRANCH   5   7
HETATM    7  C   UNK N   1      21.010  13.531   9.055  0.00  0.00     0.173 C 
BRANCH   7   8
HETATM    8  C   UNK N   1      22.254  13.019   9.743  0.00  0.00    -0.028 A 
HETATM    9  C   UNK N   1      23.520  13.340   9.230  0.00  0.00     0.010 A 
HETATM   10  C   UNK N   1      24.678  12.903   9.877  0.00  0.00     0.001 A 
HETATM   11  C   UNK N   1      24.580  12.142  11.045  0.00  0.00     0.000 A 
HETATM   12  C   UNK N   1      23.325  11.809  11.558  0.00  0.00     0.001 A 
HETATM   13  C   UNK N   1      22.165  12.242  10.910  0.00  0.00     0.010 A 
ENDBRANCH   7   8
BRANCH   7  14
HETATM   14  O   UNK N   1      20.674  14.801   9.541  0.00  0.00    -0.389 OA
HETATM   15  H   UNK N   1      20.818  15.585   8.988  0.00  0.00     0.210 HD
ENDBRANCH   7  14
ENDBRANCH   5   7
ENDBRANCH   3   5
ENDBRANCH   2   3
ENDBRANCH   1   2
BRANCH   1  16
HETATM   16  N   UNK N   1      22.994  16.508   5.051  0.00  0.00    -0.334 N 
HETATM   17  C   UNK N   1      24.257  16.446   5.536  0.00  0.00     0.185 A 
HETATM   18  N   UNK N   1      24.971  17.552   5.192  0.00  0.00    -0.336 N 
HETATM   19  C   UNK N   1      24.102  18.302   4.488  0.00  0.00     0.145 A 
ATOM     20  HN  UNK N   1      25.943  17.765   5.418  1.00  0.00     0.168 HD
HETATM   21  C   UNK N   1      22.912  17.674   4.395  0.00  0.00     0.149 A 
HETATM   22  N   UNK N   1      24.327  19.524   3.947  0.00  0.00    -0.287 N 
HETATM   23  C   UNK N   1      21.851  18.264   3.719  0.00  0.00     0.282 A 
HETATM   24  O   UNK N   1      20.771  17.702   3.634  0.00  0.00    -0.265 OA
HETATM   25  N   UNK N   1      22.053  19.507   3.150  0.00  0.00    -0.269 N 
HETATM   26  C   UNK N   1      23.288  20.142   3.266  0.00  0.00     0.332 A 
HETATM   27  C   UNK N   1      20.963  20.161   2.431  0.00  0.00     0.164 C 
HETATM   28  O   UNK N   1      23.457  21.245   2.772  0.00  0.00    -0.246 OA
HETATM   29  C   UNK N   1      25.626  20.169   4.092  0.00  0.00     0.163 C 
ENDBRANCH   1  16
TORSDOF 7
ENDMDL
MODEL 8
REMARK VINA RESULT:      -6.8      2.325      8.484
REMARK  7 active torsions:
REMARK  status: ('A' for Active; 'I' for Inactive)
REMARK    1  A    between atoms: C_2  and  C_3 
REMARK    2  A    between atoms: C_2  and  N_11 
REMARK    3  A    between atoms: C_3  and  C_4 
REMARK    4  A    between atoms: C_3  and  O_10 
REMARK    5  A    between atoms: N_11  and  C_12 
REMARK    6  A    between atoms: C_12  and  C_13 
REMARK    7  A    between atoms: C_13  and  N_14 
ROOT
HETATM    1  C   UNK N   1      35.168  13.763   9.661  0.00  0.00     0.149 C 
ENDROOT
BRANCH   1   2
HETATM    2  C   UNK N   1      34.157  14.754   9.106  0.00  0.00     0.134 C 
BRANCH   2   3
HETATM    3  N   UNK N   1      34.867  15.698   8.247  0.00  0.00    -0.413 N 
HETATM    4  H   UNK N   1      35.682  16.226   8.555  0.00  0.00     0.153 HD
BRANCH   3   5
HETATM    5  C   UNK N   1      34.298  15.819   6.891  0.00  0.00     0.105 C 
HETATM    6  C   UNK N   1      35.166  15.224   5.774  0.00  0.00     0.035 C 
BRANCH   5   7
HETATM    7  C   UNK N   1      33.809  17.244   6.603  0.00  0.00     0.173 C 
BRANCH   7   8
HETATM    8  C   UNK N   1      32.390  17.420   7.093  0.00  0.00    -0.028 A 
HETATM    9  C   UNK N   1      31.319  16.941   6.325  0.00  0.00     0.010 A 
HETATM   10  C   UNK N   1      30.006  17.065   6.784  0.00  0.00     0.001 A 
HETATM   11  C   UNK N   1      29.753  17.669   8.018  0.00  0.00     0.000 A 
HETATM   12  C   UNK N   1      30.812  18.158   8.787  0.00  0.00     0.001 A 
HETATM   13  C   UNK N   1      32.125  18.037   8.327  0.00  0.00     0.010 A 
ENDBRANCH   7   8
BRANCH   7  14
HETATM   14  O   UNK N   1      34.660  18.154   7.240  0.00  0.00    -0.389 OA
HETATM   15  H   UNK N   1      35.404  18.545   6.754  0.00  0.00     0.210 HD
ENDBRANCH   7  14
ENDBRANCH   5   7
ENDBRANCH   3   5
ENDBRANCH   2   3
ENDBRANCH   1   2
BRANCH   1  16
HETATM   16  N   UNK N   1      35.560  14.085  11.021  0.00  0.00    -0.334 N 
HETATM   17  C   UNK N   1      36.151  15.236  11.422  0.00  0.00     0.185 A 
HETATM   18  N   UNK N   1      36.455  15.196  12.748  0.00  0.00    -0.336 N 
HETATM   19  C   UNK N   1      36.041  13.979  13.148  0.00  0.00     0.145 A 
ATOM     20  HN  UNK N   1      36.898  15.923  13.311  1.00  0.00     0.168 HD
HETATM   21  C   UNK N   1      35.495  13.308  12.113  0.00  0.00     0.149 A 
HETATM   22  N   UNK N   1      36.149  13.444  14.388  0.00  0.00    -0.287 N 
HETATM   23  C   UNK N   1      35.005  12.019  12.283  0.00  0.00     0.282 A 
HETATM   24  O   UNK N   1      34.512  11.406  11.350  0.00  0.00    -0.265 OA
HETATM   25  N   UNK N   1      35.095  11.450  13.540  0.00  0.00    -0.269 N 
HETATM   26  C   UNK N   1      35.671  12.158  14.593  0.00  0.00     0.332 A 
HETATM   27  C   UNK N   1      34.590  10.097  13.760  0.00  0.00     0.164 C 
HETATM   28  O   UNK N   1      35.759  11.645  15.697  0.00  0.00    -0.246 OA
HETATM   29  C   UNK N   1      36.766  14.203  15.469  0.00  0.00     0.163 C 
ENDBRANCH   1  16
TORSDOF 7
ENDMDL
MODEL 9
REMARK VINA RESULT:      -6.7      2.285      2.997
REMARK  7 active torsions:
REMARK  status: ('A' for Active; 'I' for Inactive)
REMARK    1  A    between atoms: C_2  and  C_3 
REMARK    2  A    between atoms: C_2  and  N_11 
REMARK    3  A    between atoms: C_3  and  C_4 
REMARK    4  A    between atoms: C_3  and  O_10 
REMARK    5  A    between atoms: N_11  and  C_12 
REMARK    6  A    between atoms: C_12  and  C_13 
REMARK    7  A    between atoms: C_13  and  N_14 
ROOT
HETATM    1  C   UNK N   1      36.031  14.579   8.356  0.00  0.00     0.149 C 
ENDROOT
BRANCH   1   2
HETATM    2  C   UNK N   1      36.697  14.171   9.661  0.00  0.00     0.134 C 
BRANCH   2   3
HETATM    3  N   UNK N   1      35.948  13.050  10.225  0.00  0.00    -0.413 N 
HETATM    4  H   UNK N   1      35.277  12.503   9.686  0.00  0.00     0.153 HD
BRANCH   3   5
HETATM    5  C   UNK N   1      36.250  12.780  11.642  0.00  0.00     0.105 C 
HETATM    6  C   UNK N   1      37.030  11.484  11.899  0.00  0.00     0.035 C 
BRANCH   5   7
HETATM    7  C   UNK N   1      35.010  12.942  12.531  0.00  0.00     0.173 C 
BRANCH   7   8
HETATM    8  C   UNK N   1      35.419  13.281  13.946  0.00  0.00    -0.028 A 
HETATM    9  C   UNK N   1      34.772  12.665  15.028  0.00  0.00     0.010 A 
HETATM   10  C   UNK N   1      35.166  12.941  16.339  0.00  0.00     0.001 A 
HETATM   11  C   UNK N   1      36.212  13.836  16.580  0.00  0.00     0.000 A 
HETATM   12  C   UNK N   1      36.857  14.461  15.510  0.00  0.00     0.001 A 
HETATM   13  C   UNK N   1      36.462  14.188  14.198  0.00  0.00     0.010 A 
ENDBRANCH   7   8
BRANCH   7  14
HETATM   14  O   UNK N   1      34.202  13.957  12.003  0.00  0.00    -0.389 OA
HETATM   15  H   UNK N   1      34.284  14.206  11.069  0.00  0.00     0.210 HD
ENDBRANCH   7  14
ENDBRANCH   5   7
ENDBRANCH   3   5
ENDBRANCH   2   3
ENDBRANCH   1   2
BRANCH   1  16
HETATM   16  N   UNK N   1      34.972  15.550   8.563  0.00  0.00    -0.334 N 
HETATM   17  C   UNK N   1      34.985  16.553   9.473  0.00  0.00     0.185 A 
HETATM   18  N   UNK N   1      33.811  17.241   9.464  0.00  0.00    -0.336 N 
HETATM   19  C   UNK N   1      33.071  16.622   8.525  0.00  0.00     0.145 A 
ATOM     20  HN  UNK N   1      33.551  18.043  10.039  1.00  0.00     0.168 HD
HETATM   21  C   UNK N   1      33.768  15.607   7.975  0.00  0.00     0.149 A 
HETATM   22  N   UNK N   1      31.800  16.917   8.159  0.00  0.00    -0.287 N 
HETATM   23  C   UNK N   1      33.201  14.813   6.986  0.00  0.00     0.282 A 
HETATM   24  O   UNK N   1      33.826  13.891   6.486  0.00  0.00    -0.265 OA
HETATM   25  N   UNK N   1      31.908  15.096   6.586  0.00  0.00    -0.269 N 
HETATM   26  C   UNK N   1      31.203  16.144   7.174  0.00  0.00     0.332 A 
HETATM   27  C   UNK N   1      31.277  14.285   5.548  0.00  0.00     0.164 C 
HETATM   28  O   UNK N   1      30.057  16.380   6.826  0.00  0.00    -0.246 OA
HETATM   29  C   UNK N   1      31.082  18.013   8.799  0.00  0.00     0.163 C 
ENDBRANCH   1  16
TORSDOF 7
ENDMDL
