MODEL 1
REMARK VINA RESULT:      -7.3      0.000      0.000
REMARK  6 active torsions:
REMARK  status: ('A' for Active; 'I' for Inactive)
REMARK    1  A    between atoms: C_2  and  S_3 
REMARK    2  A    between atoms: S_3  and  N_6 
REMARK    3  A    between atoms: C_7  and  N_6 
REMARK    4  A    between atoms: C_10  and  C_13 
REMARK       I    between atoms: C_13  and  N_15 
REMARK    5  A    between atoms: N_15  and  C_16 
REMARK    6  A    between atoms: C_20  and  C_23 
ROOT
HETATM    1  C   UNK N   1      36.507  12.716  11.948  0.00  0.00     0.093 C 
HETATM    2  C   UNK N   1      35.095  12.853  11.343  0.00  0.00     0.026 C 
HETATM    3  C   UNK N   1      35.035  13.634  10.008  0.00  0.00     0.016 C 
HETATM    4  C   UNK N   1      36.081  14.757   9.913  0.00  0.00     0.078 C 
HETATM    5  C   UNK N   1      37.507  14.252  10.183  0.00  0.00     0.016 C 
HETATM    6  C   UNK N   1      37.555  12.873  10.847  0.00  0.00     0.026 C 
ENDROOT
BRANCH   4   7
HETATM    7  C   UNK N   1      35.686  15.934  10.779  0.00  0.00     0.227 C 
HETATM    8  O   UNK N   1      36.291  16.163  11.808  0.00  0.00    -0.273 OA
HETATM    9  N   UNK N   1      34.598  16.685  10.481  0.00  0.00    -0.313 N 
HETATM   10  H   UNK N   1      34.224  17.252  11.192  0.00  0.00     0.170 HD
BRANCH   9  11
HETATM   11  C   UNK N   1      33.967  16.706   9.218  0.00  0.00     0.107 A 
HETATM   12  N   UNK N   1      32.752  16.114   9.062  0.00  0.00    -0.351 N 
HETATM   13  C   UNK N   1      32.055  16.213   7.900  0.00  0.00     0.106 A 
ATOM     14  HN  UNK N   1      32.354  15.582   9.836  1.00  0.00     0.166 HD
HETATM   15  C   UNK N   1      32.554  16.979   6.840  0.00  0.00     0.063 A 
HETATM   16  C   UNK N   1      33.796  17.607   6.983  0.00  0.00     0.021 A 
HETATM   17  C   UNK N   1      34.511  17.466   8.172  0.00  0.00     0.049 A 
BRANCH  15  18
HETATM   18  C   UNK N   1      31.743  17.143   5.589  0.00  0.00     0.418 C 
HETATM   19  F   UNK N   1      30.509  17.683   5.902  0.00  0.00    -0.166 F 
HETATM   20  F   UNK N   1      31.553  15.926   4.954  0.00  0.00    -0.166 F 
HETATM   21  F   UNK N   1      32.405  17.995   4.722  0.00  0.00    -0.166 F 
ENDBRANCH  15  18
ENDBRANCH   9  11
ENDBRANCH   4   7
BRANCH   1  22
HETATM   22  N   UNK N   1      36.639  13.676  13.048  0.00  0.00    -0.314 N 
HETATM   23  H   UNK N   1      36.678  14.680  12.869  0.00  0.00     0.172 HD
BRANCH  22  24
HETATM   24  S   UNK N   1      36.729  13.032  14.713  0.00  0.00     0.234 S 
HETATM   25  O   UNK N   1      37.934  12.080  14.677  0.00  0.00    -0.205 OA
HETATM   26  O   UNK N   1      37.384  14.196  15.471  0.00  0.00    -0.205 OA
BRANCH  24  27
HETATM   27  C   UNK N   1      35.413  12.339  15.785  0.00  0.00     0.072 C 
HETATM   28  C   UNK N   1      35.968  11.119  16.493  0.00  0.00     0.033 C 
HETATM   29  C   UNK N   1      34.204  11.881  14.997  0.00  0.00     0.033 C 
HETATM   30  C   UNK N   1      34.998  13.357  16.824  0.00  0.00     0.033 C 
ENDBRANCH  24  27
ENDBRANCH  22  24
ENDBRANCH   1  22
TORSDOF 6
ENDMDL
MODEL 2
REMARK VINA RESULT:      -7.1      3.644      5.964
REMARK  6 active torsions:
REMARK  status: ('A' for Active; 'I' for Inactive)
REMARK    1  A    between atoms: C_2  and  S_3 
REMARK    2  A    between atoms: S_3  and  N_6 
REMARK    3  A    between atoms: C_7  and  N_6 
REMARK    4  A    between atoms: C_10  and  C_13 
REMARK       I    between atoms: C_13  and  N_15 
REMARK    5  A    between atoms: N_15  and  C_16 
REMARK    6  A    between atoms: C_20  and  C_23 
ROOT
HETATM    1  C   UNK N   1      34.775  16.547   7.936  0.00  0.00     0.093 C 
HETATM    2  C   UNK N   1      34.556  16.024   6.501  0.00  0.00     0.026 C 
HETATM    3  C   UNK N   1      33.468  16.776   5.697  0.00  0.00     0.016 C 
HETATM    4  C   UNK N   1      32.310  17.285   6.570  0.00  0.00     0.078 C 
HETATM    5  C   UNK N   1      32.799  18.138   7.750  0.00  0.00     0.016 C 
HETATM    6  C   UNK N   1      34.296  17.994   8.034  0.00  0.00     0.026 C 
ENDROOT
BRANCH   4   7
HETATM    7  C   UNK N   1      31.409  16.142   6.986  0.00  0.00     0.227 C 
HETATM    8  O   UNK N   1      31.889  15.073   7.305  0.00  0.00    -0.273 OA
HETATM    9  N   UNK N   1      30.060  16.255   6.914  0.00  0.00    -0.313 N 
HETATM   10  H   UNK N   1      29.529  15.427   6.930  0.00  0.00     0.170 HD
BRANCH   9  11
HETATM   11  C   UNK N   1      29.368  17.482   6.817  0.00  0.00     0.107 A 
HETATM   12  N   UNK N   1      28.916  17.906   5.605  0.00  0.00    -0.351 N 
HETATM   13  C   UNK N   1      28.144  19.017   5.482  0.00  0.00     0.106 A 
ATOM     14  HN  UNK N   1      29.163  17.378   4.769  1.00  0.00     0.166 HD
HETATM   15  C   UNK N   1      27.747  19.732   6.619  0.00  0.00     0.063 A 
HETATM   16  C   UNK N   1      28.191  19.306   7.875  0.00  0.00     0.021 A 
HETATM   17  C   UNK N   1      29.010  18.183   7.977  0.00  0.00     0.049 A 
BRANCH  15  18
HETATM   18  C   UNK N   1      26.834  20.913   6.478  0.00  0.00     0.418 C 
HETATM   19  F   UNK N   1      27.584  22.061   6.299  0.00  0.00    -0.166 F 
HETATM   20  F   UNK N   1      26.039  21.066   7.602  0.00  0.00    -0.166 F 
HETATM   21  F   UNK N   1      26.014  20.730   5.379  0.00  0.00    -0.166 F 
ENDBRANCH  15  18
ENDBRANCH   9  11
ENDBRANCH   4   7
BRANCH   1  22
HETATM   22  N   UNK N   1      34.117  15.628   8.871  0.00  0.00    -0.314 N 
HETATM   23  H   UNK N   1      33.180  15.270   8.686  0.00  0.00     0.172 HD
BRANCH  22  24
HETATM   24  S   UNK N   1      35.010  15.158  10.346  0.00  0.00     0.234 S 
HETATM   25  O   UNK N   1      35.440  16.497  10.963  0.00  0.00    -0.205 OA
HETATM   26  O   UNK N   1      33.868  14.818  11.316  0.00  0.00    -0.205 OA
BRANCH  24  27
HETATM   27  C   UNK N   1      36.331  13.907  10.580  0.00  0.00     0.072 C 
HETATM   28  C   UNK N   1      35.856  12.597   9.983  0.00  0.00     0.033 C 
HETATM   29  C   UNK N   1      36.631  13.645  12.039  0.00  0.00     0.033 C 
HETATM   30  C   UNK N   1      37.590  14.340   9.862  0.00  0.00     0.033 C 
ENDBRANCH  24  27
ENDBRANCH  22  24
ENDBRANCH   1  22
TORSDOF 6
ENDMDL
MODEL 3
REMARK VINA RESULT:      -7.1      1.217      1.877
REMARK  6 active torsions:
REMARK  status: ('A' for Active; 'I' for Inactive)
REMARK    1  A    between atoms: C_2  and  S_3 
REMARK    2  A    between atoms: S_3  and  N_6 
REMARK    3  A    between atoms: C_7  and  N_6 
REMARK    4  A    between atoms: C_10  and  C_13 
REMARK       I    between atoms: C_13  and  N_15 
REMARK    5  A    between atoms: N_15  and  C_16 
REMARK    6  A    between atoms: C_20  and  C_23 
ROOT
HETATM    1  C   UNK N   1      36.400  12.763  11.386  0.00  0.00     0.093 C 
HETATM    2  C   UNK N   1      34.947  12.908  10.890  0.00  0.00     0.026 C 
HETATM    3  C   UNK N   1      34.781  13.775   9.618  0.00  0.00     0.016 C 
HETATM    4  C   UNK N   1      35.798  14.925   9.529  0.00  0.00     0.078 C 
HETATM    5  C   UNK N   1      37.247  14.435   9.665  0.00  0.00     0.016 C 
HETATM    6  C   UNK N   1      37.365  13.016  10.229  0.00  0.00     0.026 C 
ENDROOT
BRANCH   4   7
HETATM    7  C   UNK N   1      35.443  16.032  10.497  0.00  0.00     0.227 C 
HETATM    8  O   UNK N   1      36.031  16.126  11.556  0.00  0.00    -0.273 OA
HETATM    9  N   UNK N   1      34.405  16.868  10.251  0.00  0.00    -0.313 N 
HETATM   10  H   UNK N   1      34.043  17.384  11.007  0.00  0.00     0.170 HD
BRANCH   9  11
HETATM   11  C   UNK N   1      33.810  17.047   8.983  0.00  0.00     0.107 A 
HETATM   12  N   UNK N   1      34.507  17.669   7.994  0.00  0.00    -0.351 N 
HETATM   13  C   UNK N   1      34.021  17.755   6.728  0.00  0.00     0.106 A 
ATOM     14  HN  UNK N   1      35.415  18.081   8.207  1.00  0.00     0.166 HD
HETATM   15  C   UNK N   1      32.801  17.155   6.395  0.00  0.00     0.063 A 
HETATM   16  C   UNK N   1      32.074  16.500   7.396  0.00  0.00     0.021 A 
HETATM   17  C   UNK N   1      32.574  16.451   8.696  0.00  0.00     0.049 A 
BRANCH  15  18
HETATM   18  C   UNK N   1      32.310  17.193   4.979  0.00  0.00     0.418 C 
HETATM   19  F   UNK N   1      33.106  18.044   4.234  0.00  0.00    -0.166 F 
HETATM   20  F   UNK N   1      30.998  17.634   4.916  0.00  0.00    -0.166 F 
HETATM   21  F   UNK N   1      32.374  15.921   4.438  0.00  0.00    -0.166 F 
ENDBRANCH  15  18
ENDBRANCH   9  11
ENDBRANCH   4   7
BRANCH   1  22
HETATM   22  N   UNK N   1      36.591  13.650  12.537  0.00  0.00    -0.314 N 
HETATM   23  H   UNK N   1      36.894  14.617  12.412  0.00  0.00     0.172 HD
BRANCH  22  24
HETATM   24  S   UNK N   1      36.278  12.985  14.166  0.00  0.00     0.234 S 
HETATM   25  O   UNK N   1      36.920  14.008  15.115  0.00  0.00    -0.205 OA
HETATM   26  O   UNK N   1      34.806  13.363  14.388  0.00  0.00    -0.205 OA
BRANCH  24  27
HETATM   27  C   UNK N   1      36.522  11.287  14.816  0.00  0.00     0.072 C 
HETATM   28  C   UNK N   1      35.518  10.372  14.145  0.00  0.00     0.033 C 
HETATM   29  C   UNK N   1      36.277  11.196  16.306  0.00  0.00     0.033 C 
HETATM   30  C   UNK N   1      37.917  10.800  14.489  0.00  0.00     0.033 C 
ENDBRANCH  24  27
ENDBRANCH  22  24
ENDBRANCH   1  22
TORSDOF 6
ENDMDL
MODEL 4
REMARK VINA RESULT:      -6.9      1.516      2.011
REMARK  6 active torsions:
REMARK  status: ('A' for Active; 'I' for Inactive)
REMARK    1  A    between atoms: C_2  and  S_3 
REMARK    2  A    between atoms: S_3  and  N_6 
REMARK    3  A    between atoms: C_7  and  N_6 
REMARK    4  A    between atoms: C_10  and  C_13 
REMARK       I    between atoms: C_13  and  N_15 
REMARK    5  A    between atoms: N_15  and  C_16 
REMARK    6  A    between atoms: C_20  and  C_23 
ROOT
HETATM    1  C   UNK N   1      35.524  12.694  10.782  0.00  0.00     0.093 C 
HETATM    2  C   UNK N   1      34.287  13.072   9.943  0.00  0.00     0.026 C 
HETATM    3  C   UNK N   1      34.551  14.123   8.838  0.00  0.00     0.016 C 
HETATM    4  C   UNK N   1      35.628  15.151   9.222  0.00  0.00     0.078 C 
HETATM    5  C   UNK N   1      36.941  14.485   9.661  0.00  0.00     0.016 C 
HETATM    6  C   UNK N   1      36.795  12.997   9.990  0.00  0.00     0.026 C 
ENDROOT
BRANCH   4   7
HETATM    7  C   UNK N   1      35.089  16.143  10.229  0.00  0.00     0.227 C 
HETATM    8  O   UNK N   1      35.590  16.223  11.333  0.00  0.00    -0.273 OA
HETATM    9  N   UNK N   1      33.984  16.881   9.960  0.00  0.00    -0.313 N 
HETATM   10  H   UNK N   1      33.517  17.300  10.718  0.00  0.00     0.170 HD
BRANCH   9  11
HETATM   11  C   UNK N   1      33.460  17.086   8.665  0.00  0.00     0.107 A 
HETATM   12  N   UNK N   1      34.274  17.536   7.672  0.00  0.00    -0.351 N 
HETATM   13  C   UNK N   1      33.843  17.632   6.387  0.00  0.00     0.106 A 
ATOM     14  HN  UNK N   1      35.230  17.808   7.897  1.00  0.00     0.166 HD
HETATM   15  C   UNK N   1      32.552  17.217   6.041  0.00  0.00     0.063 A 
HETATM   16  C   UNK N   1      31.702  16.740   7.045  0.00  0.00     0.021 A 
HETATM   17  C   UNK N   1      32.152  16.679   8.363  0.00  0.00     0.049 A 
BRANCH  15  18
HETATM   18  C   UNK N   1      32.111  17.259   4.608  0.00  0.00     0.418 C 
HETATM   19  F   UNK N   1      31.778  15.984   4.187  0.00  0.00    -0.166 F 
HETATM   20  F   UNK N   1      33.115  17.754   3.791  0.00  0.00    -0.166 F 
HETATM   21  F   UNK N   1      31.003  18.079   4.493  0.00  0.00    -0.166 F 
ENDBRANCH  15  18
ENDBRANCH   9  11
ENDBRANCH   4   7
BRANCH   1  22
HETATM   22  N   UNK N   1      35.439  13.382  12.075  0.00  0.00    -0.314 N 
HETATM   23  H   UNK N   1      35.413  14.401  12.127  0.00  0.00     0.172 HD
BRANCH  22  24
HETATM   24  S   UNK N   1      35.384  12.380  13.553  0.00  0.00     0.234 S 
HETATM   25  O   UNK N   1      36.793  12.517  14.148  0.00  0.00    -0.205 OA
HETATM   26  O   UNK N   1      34.635  13.296  14.533  0.00  0.00    -0.205 OA
BRANCH  24  27
HETATM   27  C   UNK N   1      34.762  10.672  13.800  0.00  0.00     0.072 C 
HETATM   28  C   UNK N   1      35.945   9.725  13.760  0.00  0.00     0.033 C 
HETATM   29  C   UNK N   1      33.810  10.238  12.708  0.00  0.00     0.033 C 
HETATM   30  C   UNK N   1      34.090  10.553  15.151  0.00  0.00     0.033 C 
ENDBRANCH  24  27
ENDBRANCH  22  24
ENDBRANCH   1  22
TORSDOF 6
ENDMDL
MODEL 5
REMARK VINA RESULT:      -6.8      7.362     10.520
REMARK  6 active torsions:
REMARK  status: ('A' for Active; 'I' for Inactive)
REMARK    1  A    between atoms: C_2  and  S_3 
REMARK    2  A    between atoms: S_3  and  N_6 
REMARK    3  A    between atoms: C_7  and  N_6 
REMARK    4  A    between atoms: C_10  and  C_13 
REMARK       I    between atoms: C_13  and  N_15 
REMARK    5  A    between atoms: N_15  and  C_16 
REMARK    6  A    between atoms: C_20  and  C_23 
ROOT
HETATM    1  C   UNK N   1      29.295  15.535   5.416  0.00  0.00     0.093 C 
HETATM    2  C   UNK N   1      27.788  15.388   5.712  0.00  0.00     0.026 C 
HETATM    3  C   UNK N   1      26.861  16.171   4.752  0.00  0.00     0.016 C 
HETATM    4  C   UNK N   1      27.475  17.491   4.256  0.00  0.00     0.078 C 
HETATM    5  C   UNK N   1      28.861  17.289   3.625  0.00  0.00     0.016 C 
HETATM    6  C   UNK N   1      29.495  15.935   3.956  0.00  0.00     0.026 C 
ENDROOT
BRANCH   4   7
HETATM    7  C   UNK N   1      27.457  18.536   5.349  0.00  0.00     0.227 C 
HETATM    8  O   UNK N   1      28.457  18.750   6.004  0.00  0.00    -0.273 OA
HETATM    9  N   UNK N   1      26.309  19.176   5.684  0.00  0.00    -0.313 N 
HETATM   10  H   UNK N   1      26.277  19.634   6.554  0.00  0.00     0.170 HD
BRANCH   9  11
HETATM   11  C   UNK N   1      25.158  19.226   4.867  0.00  0.00     0.107 A 
HETATM   12  N   UNK N   1      24.067  18.483   5.195  0.00  0.00    -0.351 N 
HETATM   13  C   UNK N   1      22.899  18.592   4.509  0.00  0.00     0.106 A 
ATOM     14  HN  UNK N   1      24.126  17.828   5.974  1.00  0.00     0.166 HD
HETATM   15  C   UNK N   1      22.775  19.519   3.467  0.00  0.00     0.063 A 
HETATM   16  C   UNK N   1      23.882  20.302   3.122  0.00  0.00     0.021 A 
HETATM   17  C   UNK N   1      25.080  20.153   3.817  0.00  0.00     0.049 A 
BRANCH  15  18
HETATM   18  C   UNK N   1      21.460  19.683   2.765  0.00  0.00     0.418 C 
HETATM   19  F   UNK N   1      20.598  20.419   3.558  0.00  0.00    -0.166 F 
HETATM   20  F   UNK N   1      20.882  18.454   2.493  0.00  0.00    -0.166 F 
HETATM   21  F   UNK N   1      21.659  20.351   1.570  0.00  0.00    -0.166 F 
ENDBRANCH  15  18
ENDBRANCH   9  11
ENDBRANCH   4   7
BRANCH   1  22
HETATM   22  N   UNK N   1      29.870  16.474   6.385  0.00  0.00    -0.314 N 
HETATM   23  H   UNK N   1      29.347  17.292   6.699  0.00  0.00     0.172 HD
BRANCH  22  24
HETATM   24  S   UNK N   1      31.517  16.141   6.995  0.00  0.00     0.234 S 
HETATM   25  O   UNK N   1      31.377  16.254   8.520  0.00  0.00    -0.205 OA
HETATM   26  O   UNK N   1      31.594  14.610   6.888  0.00  0.00    -0.205 OA
BRANCH  24  27
HETATM   27  C   UNK N   1      33.135  16.819   6.461  0.00  0.00     0.072 C 
HETATM   28  C   UNK N   1      34.153  15.697   6.484  0.00  0.00     0.033 C 
HETATM   29  C   UNK N   1      33.645  17.900   7.388  0.00  0.00     0.033 C 
HETATM   30  C   UNK N   1      33.034  17.354   5.049  0.00  0.00     0.033 C 
ENDBRANCH  24  27
ENDBRANCH  22  24
ENDBRANCH   1  22
TORSDOF 6
ENDMDL
MODEL 6
REMARK VINA RESULT:      -6.6      5.328      8.939
REMARK  6 active torsions:
REMARK  status: ('A' for Active; 'I' for Inactive)
REMARK    1  A    between atoms: C_2  and  S_3 
REMARK    2  A    between atoms: S_3  and  N_6 
REMARK    3  A    between atoms: C_7  and  N_6 
REMARK    4  A    between atoms: C_10  and  C_13 
REMARK       I    between atoms: C_13  and  N_15 
REMARK    5  A    between atoms: N_15  and  C_16 
REMARK    6  A    between atoms: C_20  and  C_23 
ROOT
HETATM    1  C   UNK N   1      32.758  15.527   8.014  0.00  0.00     0.093 C 
HETATM    2  C   UNK N   1      32.397  14.732   9.285  0.00  0.00     0.026 C 
HETATM    3  C   UNK N   1      33.279  15.046  10.518  0.00  0.00     0.016 C 
HETATM    4  C   UNK N   1      34.732  15.395  10.152  0.00  0.00     0.078 C 
HETATM    5  C   UNK N   1      34.818  16.529   9.120  0.00  0.00     0.016 C 
HETATM    6  C   UNK N   1      33.496  16.808   8.401  0.00  0.00     0.026 C 
ENDROOT
BRANCH   4   7
HETATM    7  C   UNK N   1      35.497  14.154   9.748  0.00  0.00     0.227 C 
HETATM    8  O   UNK N   1      35.864  14.012   8.598  0.00  0.00    -0.273 OA
HETATM    9  N   UNK N   1      35.695  13.139  10.625  0.00  0.00    -0.313 N 
HETATM   10  H   UNK N   1      35.948  12.261  10.261  0.00  0.00     0.170 HD
BRANCH   9  11
HETATM   11  C   UNK N   1      35.561  13.260  12.025  0.00  0.00     0.107 A 
HETATM   12  N   UNK N   1      34.706  12.439  12.694  0.00  0.00    -0.351 N 
HETATM   13  C   UNK N   1      34.635  12.439  14.051  0.00  0.00     0.106 A 
ATOM     14  HN  UNK N   1      34.104  11.809  12.164  1.00  0.00     0.166 HD
HETATM   15  C   UNK N   1      35.485  13.256  14.804  0.00  0.00     0.063 A 
HETATM   16  C   UNK N   1      36.380  14.100  14.137  0.00  0.00     0.021 A 
HETATM   17  C   UNK N   1      36.415  14.109  12.743  0.00  0.00     0.049 A 
BRANCH  15  18
HETATM   18  C   UNK N   1      35.449  13.194  16.302  0.00  0.00     0.418 C 
HETATM   19  F   UNK N   1      36.007  12.003  16.731  0.00  0.00    -0.166 F 
HETATM   20  F   UNK N   1      34.150  13.278  16.775  0.00  0.00    -0.166 F 
HETATM   21  F   UNK N   1      36.177  14.250  16.822  0.00  0.00    -0.166 F 
ENDBRANCH  15  18
ENDBRANCH   9  11
ENDBRANCH   4   7
BRANCH   1  22
HETATM   22  N   UNK N   1      33.507  14.648   7.111  0.00  0.00    -0.314 N 
HETATM   23  H   UNK N   1      33.802  13.716   7.408  0.00  0.00     0.172 HD
BRANCH  22  24
HETATM   24  S   UNK N   1      33.890  15.259   5.476  0.00  0.00     0.234 S 
HETATM   25  O   UNK N   1      35.286  15.881   5.629  0.00  0.00    -0.205 OA
HETATM   26  O   UNK N   1      34.295  13.973   4.740  0.00  0.00    -0.205 OA
BRANCH  24  27
HETATM   27  C   UNK N   1      32.878  16.265   4.324  0.00  0.00     0.072 C 
HETATM   28  C   UNK N   1      33.068  17.727   4.676  0.00  0.00     0.033 C 
HETATM   29  C   UNK N   1      31.399  15.970   4.442  0.00  0.00     0.033 C 
HETATM   30  C   UNK N   1      33.337  16.045   2.899  0.00  0.00     0.033 C 
ENDBRANCH  24  27
ENDBRANCH  22  24
ENDBRANCH   1  22
TORSDOF 6
ENDMDL
MODEL 7
REMARK VINA RESULT:      -6.5      5.650      9.017
REMARK  6 active torsions:
REMARK  status: ('A' for Active; 'I' for Inactive)
REMARK    1  A    between atoms: C_2  and  S_3 
REMARK    2  A    between atoms: S_3  and  N_6 
REMARK    3  A    between atoms: C_7  and  N_6 
REMARK    4  A    between atoms: C_10  and  C_13 
REMARK       I    between atoms: C_13  and  N_15 
REMARK    5  A    between atoms: N_15  and  C_16 
REMARK    6  A    between atoms: C_20  and  C_23 
ROOT
HETATM    1  C   UNK N   1      36.021  15.229   9.995  0.00  0.00     0.093 C 
HETATM    2  C   UNK N   1      35.378  15.430  11.382  0.00  0.00     0.026 C 
HETATM    3  C   UNK N   1      35.902  14.477  12.483  0.00  0.00     0.016 C 
HETATM    4  C   UNK N   1      36.288  13.087  11.950  0.00  0.00     0.078 C 
HETATM    5  C   UNK N   1      37.282  13.164  10.782  0.00  0.00     0.016 C 
HETATM    6  C   UNK N   1      37.383  14.556  10.152  0.00  0.00     0.026 C 
ENDROOT
BRANCH   4   7
HETATM    7  C   UNK N   1      35.053  12.270  11.638  0.00  0.00     0.227 C 
HETATM    8  O   UNK N   1      34.690  12.131  10.487  0.00  0.00    -0.273 OA
HETATM    9  N   UNK N   1      34.279  11.769  12.631  0.00  0.00    -0.313 N 
HETATM   10  H   UNK N   1      33.365  11.486  12.401  0.00  0.00     0.170 HD
BRANCH   9  11
HETATM   11  C   UNK N   1      34.697  11.626  13.972  0.00  0.00     0.107 A 
HETATM   12  N   UNK N   1      34.504  12.648  14.850  0.00  0.00    -0.351 N 
HETATM   13  C   UNK N   1      34.780  12.511  16.173  0.00  0.00     0.106 A 
ATOM     14  HN  UNK N   1      34.144  13.538  14.507  1.00  0.00     0.166 HD
HETATM   15  C   UNK N   1      35.227  11.285  16.679  0.00  0.00     0.063 A 
HETATM   16  C   UNK N   1      35.420  10.218  15.796  0.00  0.00     0.021 A 
HETATM   17  C   UNK N   1      35.162  10.388  14.437  0.00  0.00     0.049 A 
BRANCH  15  18
HETATM   18  C   UNK N   1      35.457  11.123  18.152  0.00  0.00     0.418 C 
HETATM   19  F   UNK N   1      34.462  10.331  18.695  0.00  0.00    -0.166 F 
HETATM   20  F   UNK N   1      35.457  12.350  18.796  0.00  0.00    -0.166 F 
HETATM   21  F   UNK N   1      36.684  10.517  18.360  0.00  0.00    -0.166 F 
ENDBRANCH  15  18
ENDBRANCH   9  11
ENDBRANCH   4   7
BRANCH   1  22
HETATM   22  N   UNK N   1      35.078  14.493   9.146  0.00  0.00    -0.314 N 
HETATM   23  H   UNK N   1      35.197  13.494   8.971  0.00  0.00     0.172 HD
BRANCH  22  24
HETATM   24  S   UNK N   1      33.717  15.400   8.427  0.00  0.00     0.234 S 
HETATM   25  O   UNK N   1      33.248  14.509   7.268  0.00  0.00    -0.205 OA
HETATM   26  O   UNK N   1      32.578  15.104   9.414  0.00  0.00    -0.205 OA
BRANCH  24  27
HETATM   27  C   UNK N   1      33.595  17.167   7.949  0.00  0.00     0.072 C 
HETATM   28  C   UNK N   1      33.744  17.264   6.444  0.00  0.00     0.033 C 
HETATM   29  C   UNK N   1      34.695  18.009   8.557  0.00  0.00     0.033 C 
HETATM   30  C   UNK N   1      32.243  17.720   8.341  0.00  0.00     0.033 C 
ENDBRANCH  24  27
ENDBRANCH  22  24
ENDBRANCH   1  22
TORSDOF 6
ENDMDL
MODEL 8
REMARK VINA RESULT:      -6.4     16.527     19.805
REMARK  6 active torsions:
REMARK  status: ('A' for Active; 'I' for Inactive)
REMARK    1  A    between atoms: C_2  and  S_3 
REMARK    2  A    between atoms: S_3  and  N_6 
REMARK    3  A    between atoms: C_7  and  N_6 
REMARK    4  A    between atoms: C_10  and  C_13 
REMARK       I    between atoms: C_13  and  N_15 
REMARK    5  A    between atoms: N_15  and  C_16 
REMARK    6  A    between atoms: C_20  and  C_23 
ROOT
HETATM    1  C   UNK N   1      29.635  26.924  -4.306  0.00  0.00     0.093 C 
HETATM    2  C   UNK N   1      30.838  26.313  -3.557  0.00  0.00     0.026 C 
HETATM    3  C   UNK N   1      31.405  25.020  -4.191  0.00  0.00     0.016 C 
HETATM    4  C   UNK N   1      30.331  24.151  -4.866  0.00  0.00     0.078 C 
HETATM    5  C   UNK N   1      29.502  24.939  -5.892  0.00  0.00     0.016 C 
HETATM    6  C   UNK N   1      29.645  26.458  -5.760  0.00  0.00     0.026 C 
ENDROOT
BRANCH   4   7
HETATM    7  C   UNK N   1      29.487  23.439  -3.831  0.00  0.00     0.227 C 
HETATM    8  O   UNK N   1      28.398  23.881  -3.524  0.00  0.00    -0.273 OA
HETATM    9  N   UNK N   1      29.968  22.365  -3.157  0.00  0.00    -0.313 N 
HETATM   10  H   UNK N   1      29.513  22.104  -2.325  0.00  0.00     0.170 HD
BRANCH   9  11
HETATM   11  C   UNK N   1      31.079  21.598  -3.572  0.00  0.00     0.107 A 
HETATM   12  N   UNK N   1      32.201  21.568  -2.803  0.00  0.00    -0.351 N 
HETATM   13  C   UNK N   1      33.246  20.752  -3.100  0.00  0.00     0.106 A 
ATOM     14  HN  UNK N   1      32.261  22.173  -1.984  1.00  0.00     0.166 HD
HETATM   15  C   UNK N   1      33.171  19.874  -4.188  0.00  0.00     0.063 A 
HETATM   16  C   UNK N   1      32.020  19.880  -4.984  0.00  0.00     0.021 A 
HETATM   17  C   UNK N   1      30.973  20.749  -4.682  0.00  0.00     0.049 A 
BRANCH  15  18
HETATM   18  C   UNK N   1      34.299  18.925  -4.463  0.00  0.00     0.418 C 
HETATM   19  F   UNK N   1      34.210  17.838  -3.612  0.00  0.00    -0.166 F 
HETATM   20  F   UNK N   1      35.526  19.541  -4.279  0.00  0.00    -0.166 F 
HETATM   21  F   UNK N   1      34.218  18.484  -5.772  0.00  0.00    -0.166 F 
ENDBRANCH  15  18
ENDBRANCH   9  11
ENDBRANCH   4   7
BRANCH   1  22
HETATM   22  N   UNK N   1      28.410  26.590  -3.572  0.00  0.00    -0.314 N 
HETATM   23  H   UNK N   1      28.442  26.016  -2.729  0.00  0.00     0.172 HD
BRANCH  22  24
HETATM   24  S   UNK N   1      26.861  27.218  -4.203  0.00  0.00     0.234 S 
HETATM   25  O   UNK N   1      26.014  27.451  -2.944  0.00  0.00    -0.205 OA
HETATM   26  O   UNK N   1      27.212  28.681  -4.513  0.00  0.00    -0.205 OA
BRANCH  24  27
HETATM   27  C   UNK N   1      25.801  26.598  -5.566  0.00  0.00     0.072 C 
HETATM   28  C   UNK N   1      26.463  26.953  -6.882  0.00  0.00     0.033 C 
HETATM   29  C   UNK N   1      24.431  27.239  -5.572  0.00  0.00     0.033 C 
HETATM   30  C   UNK N   1      25.669  25.094  -5.479  0.00  0.00     0.033 C 
ENDBRANCH  24  27
ENDBRANCH  22  24
ENDBRANCH   1  22
TORSDOF 6
ENDMDL
MODEL 9
REMARK VINA RESULT:      -6.1      9.311     12.864
REMARK  6 active torsions:
REMARK  status: ('A' for Active; 'I' for Inactive)
REMARK    1  A    between atoms: C_2  and  S_3 
REMARK    2  A    between atoms: S_3  and  N_6 
REMARK    3  A    between atoms: C_7  and  N_6 
REMARK    4  A    between atoms: C_10  and  C_13 
REMARK       I    between atoms: C_13  and  N_15 
REMARK    5  A    between atoms: N_15  and  C_16 
REMARK    6  A    between atoms: C_20  and  C_23 
ROOT
HETATM    1  C   UNK N   1      23.357  15.909   5.268  0.00  0.00     0.093 C 
HETATM    2  C   UNK N   1      23.673  16.250   3.797  0.00  0.00     0.026 C 
HETATM    3  C   UNK N   1      25.181  16.386   3.474  0.00  0.00     0.016 C 
HETATM    4  C   UNK N   1      26.005  16.950   4.644  0.00  0.00     0.078 C 
HETATM    5  C   UNK N   1      25.798  16.155   5.942  0.00  0.00     0.016 C 
HETATM    6  C   UNK N   1      24.569  15.241   5.913  0.00  0.00     0.026 C 
ENDROOT
BRANCH   4   7
HETATM    7  C   UNK N   1      25.764  18.435   4.803  0.00  0.00     0.227 C 
HETATM    8  O   UNK N   1      24.746  18.938   4.367  0.00  0.00    -0.273 OA
HETATM    9  N   UNK N   1      26.713  19.244   5.336  0.00  0.00    -0.313 N 
HETATM   10  H   UNK N   1      26.633  20.211   5.176  0.00  0.00     0.170 HD
BRANCH   9  11
HETATM   11  C   UNK N   1      27.807  18.788   6.103  0.00  0.00     0.107 A 
HETATM   12  N   UNK N   1      27.745  18.838   7.461  0.00  0.00    -0.351 N 
HETATM   13  C   UNK N   1      28.722  18.302   8.239  0.00  0.00     0.106 A 
ATOM     14  HN  UNK N   1      26.947  19.291   7.907  1.00  0.00     0.166 HD
HETATM   15  C   UNK N   1      29.802  17.631   7.654  0.00  0.00     0.063 A 
HETATM   16  C   UNK N   1      29.879  17.556   6.259  0.00  0.00     0.021 A 
HETATM   17  C   UNK N   1      28.884  18.142   5.479  0.00  0.00     0.049 A 
BRANCH  15  18
HETATM   18  C   UNK N   1      30.835  16.978   8.523  0.00  0.00     0.418 C 
HETATM   19  F   UNK N   1      31.354  15.871   7.877  0.00  0.00    -0.166 F 
HETATM   20  F   UNK N   1      30.291  16.578   9.733  0.00  0.00    -0.166 F 
HETATM   21  F   UNK N   1      31.857  17.877   8.775  0.00  0.00    -0.166 F 
ENDBRANCH  15  18
ENDBRANCH   9  11
ENDBRANCH   4   7
BRANCH   1  22
HETATM   22  N   UNK N   1      22.909  17.131   5.944  0.00  0.00    -0.314 N 
HETATM   23  H   UNK N   1      23.579  17.835   6.256  0.00  0.00     0.172 HD
BRANCH  22  24
HETATM   24  S   UNK N   1      21.154  17.347   6.205  0.00  0.00     0.234 S 
HETATM   25  O   UNK N   1      21.056  18.653   7.007  0.00  0.00    -0.205 OA
HETATM   26  O   UNK N   1      20.692  17.884   4.842  0.00  0.00    -0.205 OA
BRANCH  24  27
HETATM   27  C   UNK N   1      19.891  16.154   6.791  0.00  0.00     0.072 C 
HETATM   28  C   UNK N   1      19.222  16.735   8.021  0.00  0.00     0.033 C 
HETATM   29  C   UNK N   1      20.493  14.827   7.201  0.00  0.00     0.033 C 
HETATM   30  C   UNK N   1      18.842  15.939   5.723  0.00  0.00     0.033 C 
ENDBRANCH  24  27
ENDBRANCH  22  24
ENDBRANCH   1  22
TORSDOF 6
ENDMDL
