REMARK  9 active torsions:
REMARK  status: ('A' for Active; 'I' for Inactive)
REMARK    1  A    between atoms: C_1  and  C_2 
REMARK    2  A    between atoms: C_2  and  C_3 
REMARK    3  A    between atoms: C_2  and  O_11 
REMARK    4  A    between atoms: C_3  and  C_4 
REMARK    5  A    between atoms: C_3  and  O_10 
REMARK    6  A    between atoms: C_4  and  C_5 
REMARK    7  A    between atoms: C_4  and  O_9 
REMARK    8  A    between atoms: C_5  and  C_6 
REMARK    9  A    between atoms: C_5  and  O_8 
ROOT
HETATM    1  C   UNK N   1       2.854   1.794   0.303  0.00  0.00     0.178 C 
ENDROOT
BRANCH   1   2
HETATM    2  C   UNK N   1       1.730   0.906  -0.272  0.00  0.00     0.159 C 
BRANCH   2   3
HETATM    3  C   UNK N   1       0.391   1.191   0.402  0.00  0.00     0.119 C 
HETATM    4 Br   UNK N   1      -0.462   2.802  -0.261  0.00  0.00    -0.094 Br
ENDBRANCH   2   3
BRANCH   2   5
HETATM    5  O   UNK N   1       2.019  -0.443  -0.073  0.00  0.00    -0.392 OA
HETATM    6  H   UNK N   1       1.307  -1.087   0.065  0.00  0.00     0.210 HD
ENDBRANCH   2   5
ENDBRANCH   1   2
BRANCH   1   7
HETATM    7  C   UNK N   1       4.240   1.478  -0.302  0.00  0.00     0.178 C 
BRANCH   7   8
HETATM    8  C   UNK N   1       5.364   2.364   0.274  0.00  0.00     0.159 C 
BRANCH   8   9
HETATM    9  C   UNK N   1       6.704   2.081  -0.401  0.00  0.00     0.119 C 
HETATM   10 Br   UNK N   1       7.553   0.462   0.250  0.00  0.00    -0.094 Br
ENDBRANCH   8   9
BRANCH   8  11
HETATM   11  O   UNK N   1       5.075   3.714   0.080  0.00  0.00    -0.392 OA
HETATM   12  H   UNK N   1       5.788   4.358  -0.056  0.00  0.00     0.210 HD
ENDBRANCH   8  11
ENDBRANCH   7   8
BRANCH   7  13
HETATM   13  O   UNK N   1       4.556   0.139  -0.070  0.00  0.00    -0.390 OA
HETATM   14  H   UNK N   1       3.860  -0.517   0.092  0.00  0.00     0.210 HD
ENDBRANCH   7  13
ENDBRANCH   1   7
BRANCH   1  15
HETATM   15  O   UNK N   1       2.537   3.132   0.069  0.00  0.00    -0.390 OA
HETATM   16  H   UNK N   1       3.233   3.788  -0.093  0.00  0.00     0.210 HD
ENDBRANCH   1  15
TORSDOF 9
