MODEL 1
REMARK VINA RESULT:      -6.0      0.000      0.000
REMARK  4 active torsions:
REMARK  status: ('A' for Active; 'I' for Inactive)
REMARK    1  A    between atoms: C_11  and  C_6 
REMARK    2  A    between atoms: C_12  and  C_6 
REMARK    3  A    between atoms: N_19  and  C_11 
REMARK    4  A    between atoms: N_20  and  C_12 
ROOT
HETATM    1  C   UNK N   1      28.160  18.225   8.982  0.00  0.00     0.002 A 
HETATM    2  C   UNK N   1      29.262  18.016   9.804  0.00  0.00     0.002 A 
HETATM    3  C   UNK N   1      33.078  16.748   3.356  0.00  0.00     0.018 A 
HETATM    4  C   UNK N   1      28.287  18.084   7.601  0.00  0.00     0.031 A 
HETATM    5  C   UNK N   1      30.486  17.666   9.241  0.00  0.00     0.021 A 
HETATM    6  C   UNK N   1      33.158  16.783   4.743  0.00  0.00     0.024 A 
HETATM    7  C   UNK N   1      31.855  16.988   2.745  0.00  0.00     0.090 A 
HETATM    8  C   UNK N   1      29.517  17.731   7.007  0.00  0.00     0.053 A 
HETATM    9  C   UNK N   1      30.630  17.522   7.855  0.00  0.00     0.032 A 
HETATM   10  C   UNK N   1      32.027  17.062   5.517  0.00  0.00     0.050 A 
HETATM   11  C   UNK N   1      30.798  17.308   4.868  0.00  0.00     0.125 A 
HETATM   12  N   UNK N   1      30.761  17.256   3.503  0.00  0.00    -0.351 N 
ATOM     13  HN  UNK N   1      29.872  17.427   3.033  1.00  0.00     0.166 HD
HETATM   14  N   UNK N   1      29.592  17.614   5.580  0.00  0.00    -0.331 N 
HETATM   15  S   UNK N   1      32.258  17.064   7.285  0.00  0.00    -0.084 SA
ENDROOT
BRANCH  14  16
HETATM   16  C   UNK N   1      28.379  17.834   4.802  0.00  0.00     0.133 C 
BRANCH  16  17
HETATM   17  C   UNK N   1      28.146  19.325   4.602  0.00  0.00     0.050 C 
BRANCH  17  18
HETATM   18  C   UNK N   1      26.922  19.614   3.732  0.00  0.00     0.273 C 
BRANCH  18  19
HETATM   19  N   UNK N   1      25.829  20.232   4.480  0.00  0.00     0.080 N 
HETATM   20  C   UNK N   1      24.892  19.168   4.792  0.00  0.00     0.309 C 
HETATM   21  C   UNK N   1      26.323  20.720   5.759  0.00  0.00     0.309 C 
ENDBRANCH  18  19
ENDBRANCH  17  18
ENDBRANCH  16  17
ENDBRANCH  14  16
TORSDOF 4
ENDMDL
MODEL 2
REMARK VINA RESULT:      -5.9      3.152      7.198
REMARK  4 active torsions:
REMARK  status: ('A' for Active; 'I' for Inactive)
REMARK    1  A    between atoms: C_11  and  C_6 
REMARK    2  A    between atoms: C_12  and  C_6 
REMARK    3  A    between atoms: N_19  and  C_11 
REMARK    4  A    between atoms: N_20  and  C_12 
ROOT
HETATM    1  C   UNK N   1      33.412  16.220   4.002  0.00  0.00     0.002 A 
HETATM    2  C   UNK N   1      32.294  15.816   3.279  0.00  0.00     0.002 A 
HETATM    3  C   UNK N   1      28.302  18.058   9.344  0.00  0.00     0.018 A 
HETATM    4  C   UNK N   1      33.259  16.725   5.293  0.00  0.00     0.031 A 
HETATM    5  C   UNK N   1      31.029  15.917   3.851  0.00  0.00     0.021 A 
HETATM    6  C   UNK N   1      28.235  17.485   8.080  0.00  0.00     0.024 A 
HETATM    7  C   UNK N   1      29.544  18.381   9.873  0.00  0.00     0.090 A 
HETATM    8  C   UNK N   1      31.987  16.838   5.893  0.00  0.00     0.053 A 
HETATM    9  C   UNK N   1      30.858  16.423   5.146  0.00  0.00     0.032 A 
HETATM   10  C   UNK N   1      29.398  17.238   7.344  0.00  0.00     0.050 A 
HETATM   11  C   UNK N   1      30.647  17.582   7.904  0.00  0.00     0.125 A 
HETATM   12  N   UNK N   1      30.670  18.137   9.153  0.00  0.00    -0.351 N 
ATOM     13  HN  UNK N   1      31.572  18.380   9.562  1.00  0.00     0.166 HD
HETATM   14  N   UNK N   1      31.889  17.378   7.218  0.00  0.00    -0.331 N 
HETATM   15  S   UNK N   1      29.178  16.487   5.743  0.00  0.00    -0.084 SA
ENDROOT
BRANCH  14  16
HETATM   16  C   UNK N   1      33.117  17.758   7.904  0.00  0.00     0.133 C 
BRANCH  16  17
HETATM   17  C   UNK N   1      33.672  16.574   8.683  0.00  0.00     0.050 C 
BRANCH  17  18
HETATM   18  C   UNK N   1      34.763  16.984   9.672  0.00  0.00     0.273 C 
BRANCH  18  19
HETATM   19  N   UNK N   1      35.056  15.945  10.657  0.00  0.00     0.080 N 
HETATM   20  C   UNK N   1      33.989  14.966  10.551  0.00  0.00     0.309 C 
HETATM   21  C   UNK N   1      36.278  15.247  10.286  0.00  0.00     0.309 C 
ENDBRANCH  18  19
ENDBRANCH  17  18
ENDBRANCH  16  17
ENDBRANCH  14  16
TORSDOF 4
ENDMDL
MODEL 3
REMARK VINA RESULT:      -5.8      7.202      8.868
REMARK  4 active torsions:
REMARK  status: ('A' for Active; 'I' for Inactive)
REMARK    1  A    between atoms: C_11  and  C_6 
REMARK    2  A    between atoms: C_12  and  C_6 
REMARK    3  A    between atoms: N_19  and  C_11 
REMARK    4  A    between atoms: N_20  and  C_12 
ROOT
HETATM    1  C   UNK N   1      21.521  12.295  11.259  0.00  0.00     0.002 A 
HETATM    2  C   UNK N   1      22.822  11.857  11.484  0.00  0.00     0.002 A 
HETATM    3  C   UNK N   1      24.625  15.924   5.324  0.00  0.00     0.018 A 
HETATM    4  C   UNK N   1      21.243  13.110  10.161  0.00  0.00     0.031 A 
HETATM    5  C   UNK N   1      23.838  12.234  10.611  0.00  0.00     0.021 A 
HETATM    6  C   UNK N   1      25.105  15.075   6.313  0.00  0.00     0.024 A 
HETATM    7  C   UNK N   1      23.270  16.223   5.292  0.00  0.00     0.090 A 
HETATM    8  C   UNK N   1      22.256  13.505   9.263  0.00  0.00     0.053 A 
HETATM    9  C   UNK N   1      23.576  13.052   9.505  0.00  0.00     0.032 A 
HETATM   10  C   UNK N   1      24.241  14.530   7.269  0.00  0.00     0.050 A 
HETATM   11  C   UNK N   1      22.869  14.856   7.216  0.00  0.00     0.125 A 
HETATM   12  N   UNK N   1      22.437  15.689   6.222  0.00  0.00    -0.351 N 
ATOM     13  HN  UNK N   1      21.444  15.920   6.178  1.00  0.00     0.166 HD
HETATM   14  N   UNK N   1      21.915  14.355   8.160  0.00  0.00    -0.331 N 
HETATM   15  S   UNK N   1      24.979  13.445   8.476  0.00  0.00    -0.084 SA
ENDROOT
BRANCH  14  16
HETATM   16  C   UNK N   1      20.521  14.749   7.994  0.00  0.00     0.133 C 
BRANCH  16  17
HETATM   17  C   UNK N   1      20.248  16.044   8.745  0.00  0.00     0.050 C 
BRANCH  17  18
HETATM   18  C   UNK N   1      18.756  16.279   8.982  0.00  0.00     0.273 C 
BRANCH  18  19
HETATM   19  N   UNK N   1      18.403  17.697   9.017  0.00  0.00     0.080 N 
HETATM   20  C   UNK N   1      17.504  17.869  10.143  0.00  0.00     0.309 C 
HETATM   21  C   UNK N   1      19.586  18.490   9.323  0.00  0.00     0.309 C 
ENDBRANCH  18  19
ENDBRANCH  17  18
ENDBRANCH  16  17
ENDBRANCH  14  16
TORSDOF 4
ENDMDL
MODEL 4
REMARK VINA RESULT:      -5.6      8.656     11.337
REMARK  4 active torsions:
REMARK  status: ('A' for Active; 'I' for Inactive)
REMARK    1  A    between atoms: C_11  and  C_6 
REMARK    2  A    between atoms: C_12  and  C_6 
REMARK    3  A    between atoms: N_19  and  C_11 
REMARK    4  A    between atoms: N_20  and  C_12 
ROOT
HETATM    1  C   UNK N   1      34.291  10.745  11.464  0.00  0.00     0.002 A 
HETATM    2  C   UNK N   1      33.677  10.056  12.504  0.00  0.00     0.002 A 
HETATM    3  C   UNK N   1      36.874  15.252  17.035  0.00  0.00     0.018 A 
HETATM    4  C   UNK N   1      35.090  11.854  11.741  0.00  0.00     0.031 A 
HETATM    5  C   UNK N   1      33.865  10.478  13.818  0.00  0.00     0.021 A 
HETATM    6  C   UNK N   1      36.091  14.105  16.987  0.00  0.00     0.024 A 
HETATM    7  C   UNK N   1      37.390  15.766  15.854  0.00  0.00     0.090 A 
HETATM    8  C   UNK N   1      35.295  12.301  13.063  0.00  0.00     0.053 A 
HETATM    9  C   UNK N   1      34.664  11.591  14.112  0.00  0.00     0.032 A 
HETATM   10  C   UNK N   1      35.819  13.476  15.767  0.00  0.00     0.050 A 
HETATM   11  C   UNK N   1      36.352  14.025  14.581  0.00  0.00     0.125 A 
HETATM   12  N   UNK N   1      37.124  15.150  14.674  0.00  0.00    -0.351 N 
ATOM     13  HN  UNK N   1      37.516  15.543  13.818  1.00  0.00     0.166 HD
HETATM   14  N   UNK N   1      36.115  13.456  13.287  0.00  0.00    -0.331 N 
HETATM   15  S   UNK N   1      34.813  12.006  15.841  0.00  0.00    -0.084 SA
ENDROOT
BRANCH  14  16
HETATM   16  C   UNK N   1      36.732  14.102  12.135  0.00  0.00     0.133 C 
BRANCH  16  17
HETATM   17  C   UNK N   1      35.842  15.224  11.622  0.00  0.00     0.050 C 
BRANCH  17  18
HETATM   18  C   UNK N   1      35.956  15.416  10.110  0.00  0.00     0.273 C 
BRANCH  18  19
HETATM   19  N   UNK N   1      34.920  14.702   9.367  0.00  0.00     0.080 N 
HETATM   20  C   UNK N   1      33.674  14.932  10.076  0.00  0.00     0.309 C 
HETATM   21  C   UNK N   1      34.752  15.306   8.054  0.00  0.00     0.309 C 
ENDBRANCH  18  19
ENDBRANCH  17  18
ENDBRANCH  16  17
ENDBRANCH  14  16
TORSDOF 4
ENDMDL
MODEL 5
REMARK VINA RESULT:      -5.6      3.012      5.751
REMARK  4 active torsions:
REMARK  status: ('A' for Active; 'I' for Inactive)
REMARK    1  A    between atoms: C_11  and  C_6 
REMARK    2  A    between atoms: C_12  and  C_6 
REMARK    3  A    between atoms: N_19  and  C_11 
REMARK    4  A    between atoms: N_20  and  C_12 
ROOT
HETATM    1  C   UNK N   1      29.396  18.267   9.796  0.00  0.00     0.002 A 
HETATM    2  C   UNK N   1      28.170  18.023   9.188  0.00  0.00     0.002 A 
HETATM    3  C   UNK N   1      32.256  16.102   3.076  0.00  0.00     0.018 A 
HETATM    4  C   UNK N   1      30.576  18.094   9.073  0.00  0.00     0.031 A 
HETATM    5  C   UNK N   1      28.128  17.609   7.859  0.00  0.00     0.021 A 
HETATM    6  C   UNK N   1      30.975  16.262   3.590  0.00  0.00     0.024 A 
HETATM    7  C   UNK N   1      33.347  16.415   3.875  0.00  0.00     0.090 A 
HETATM    8  C   UNK N   1      30.560  17.674   7.727  0.00  0.00     0.053 A 
HETATM    9  C   UNK N   1      29.305  17.429   7.120  0.00  0.00     0.032 A 
HETATM   10  C   UNK N   1      30.781  16.726   4.895  0.00  0.00     0.050 A 
HETATM   11  C   UNK N   1      31.909  17.030   5.687  0.00  0.00     0.125 A 
HETATM   12  N   UNK N   1      33.151  16.866   5.141  0.00  0.00    -0.351 N 
ATOM     13  HN  UNK N   1      33.967  17.093   5.710  1.00  0.00     0.166 HD
HETATM   14  N   UNK N   1      31.805  17.498   7.038  0.00  0.00    -0.331 N 
HETATM   15  S   UNK N   1      29.090  16.899   5.430  0.00  0.00    -0.084 SA
ENDROOT
BRANCH  14  16
HETATM   16  C   UNK N   1      33.041  17.795   7.752  0.00  0.00     0.133 C 
BRANCH  16  17
HETATM   17  C   UNK N   1      33.608  16.526   8.372  0.00  0.00     0.050 C 
BRANCH  17  18
HETATM   18  C   UNK N   1      34.845  16.797   9.229  0.00  0.00     0.273 C 
BRANCH  18  19
HETATM   19  N   UNK N   1      34.732  16.244  10.577  0.00  0.00     0.080 N 
HETATM   20  C   UNK N   1      34.009  14.991  10.448  0.00  0.00     0.309 C 
HETATM   21  C   UNK N   1      36.054  15.895  11.076  0.00  0.00     0.309 C 
ENDBRANCH  18  19
ENDBRANCH  17  18
ENDBRANCH  16  17
ENDBRANCH  14  16
TORSDOF 4
ENDMDL
MODEL 6
REMARK VINA RESULT:      -5.5     10.762     13.128
REMARK  4 active torsions:
REMARK  status: ('A' for Active; 'I' for Inactive)
REMARK    1  A    between atoms: C_11  and  C_6 
REMARK    2  A    between atoms: C_12  and  C_6 
REMARK    3  A    between atoms: N_19  and  C_11 
REMARK    4  A    between atoms: N_20  and  C_12 
ROOT
HETATM    1  C   UNK N   1      35.142  13.516  18.712  0.00  0.00     0.002 A 
HETATM    2  C   UNK N   1      35.351  12.481  19.617  0.00  0.00     0.002 A 
HETATM    3  C   UNK N   1      35.768   8.009  13.486  0.00  0.00     0.018 A 
HETATM    4  C   UNK N   1      35.089  13.244  17.345  0.00  0.00     0.031 A 
HETATM    5  C   UNK N   1      35.506  11.178  19.151  0.00  0.00     0.021 A 
HETATM    6  C   UNK N   1      35.802   8.051  14.875  0.00  0.00     0.024 A 
HETATM    7  C   UNK N   1      35.537   9.183  12.782  0.00  0.00     0.090 A 
HETATM    8  C   UNK N   1      35.243  11.933  16.850  0.00  0.00     0.053 A 
HETATM    9  C   UNK N   1      35.456  10.889  17.781  0.00  0.00     0.032 A 
HETATM   10  C   UNK N   1      35.612   9.256  15.559  0.00  0.00     0.050 A 
HETATM   11  C   UNK N   1      35.386  10.435  14.817  0.00  0.00     0.125 A 
HETATM   12  N   UNK N   1      35.352  10.349  13.453  0.00  0.00    -0.351 N 
ATOM     13  HN  UNK N   1      35.181  11.199  12.916  1.00  0.00     0.166 HD
HETATM   14  N   UNK N   1      35.194  11.715  15.433  0.00  0.00    -0.331 N 
HETATM   15  S   UNK N   1      35.666   9.173  17.339  0.00  0.00    -0.084 SA
ENDROOT
BRANCH  14  16
HETATM   16  C   UNK N   1      34.951  12.860  14.564  0.00  0.00     0.133 C 
BRANCH  16  17
HETATM   17  C   UNK N   1      36.272  13.470  14.118  0.00  0.00     0.050 C 
BRANCH  17  18
HETATM   18  C   UNK N   1      36.124  14.331  12.863  0.00  0.00     0.273 C 
BRANCH  18  19
HETATM   19  N   UNK N   1      35.148  13.793  11.918  0.00  0.00     0.080 N 
HETATM   20  C   UNK N   1      34.559  14.934  11.241  0.00  0.00     0.309 C 
HETATM   21  C   UNK N   1      35.832  13.025  10.888  0.00  0.00     0.309 C 
ENDBRANCH  18  19
ENDBRANCH  17  18
ENDBRANCH  16  17
ENDBRANCH  14  16
TORSDOF 4
ENDMDL
MODEL 7
REMARK VINA RESULT:      -5.4      4.814      8.202
REMARK  4 active torsions:
REMARK  status: ('A' for Active; 'I' for Inactive)
REMARK    1  A    between atoms: C_11  and  C_6 
REMARK    2  A    between atoms: C_12  and  C_6 
REMARK    3  A    between atoms: N_19  and  C_11 
REMARK    4  A    between atoms: N_20  and  C_12 
ROOT
HETATM    1  C   UNK N   1      19.849  18.948   2.899  0.00  0.00     0.002 A 
HETATM    2  C   UNK N   1      20.235  20.111   2.241  0.00  0.00     0.002 A 
HETATM    3  C   UNK N   1      27.188  18.606   4.911  0.00  0.00     0.018 A 
HETATM    4  C   UNK N   1      20.787  18.222   3.633  0.00  0.00     0.031 A 
HETATM    5  C   UNK N   1      21.555  20.544   2.321  0.00  0.00     0.021 A 
HETATM    6  C   UNK N   1      26.414  19.497   4.178  0.00  0.00     0.024 A 
HETATM    7  C   UNK N   1      26.579  17.500   5.488  0.00  0.00     0.090 A 
HETATM    8  C   UNK N   1      22.130  18.640   3.728  0.00  0.00     0.053 A 
HETATM    9  C   UNK N   1      22.509  19.825   3.053  0.00  0.00     0.032 A 
HETATM   10  C   UNK N   1      25.041  19.285   4.016  0.00  0.00     0.050 A 
HETATM   11  C   UNK N   1      24.450  18.149   4.609  0.00  0.00     0.125 A 
HETATM   12  N   UNK N   1      25.245  17.301   5.328  0.00  0.00    -0.351 N 
ATOM     13  HN  UNK N   1      24.818  16.484   5.762  1.00  0.00     0.166 HD
HETATM   14  N   UNK N   1      23.054  17.846   4.484  0.00  0.00    -0.331 N 
HETATM   15  S   UNK N   1      24.157  20.508   3.066  0.00  0.00    -0.084 SA
ENDROOT
BRANCH  14  16
HETATM   16  C   UNK N   1      22.554  16.652   5.154  0.00  0.00     0.133 C 
BRANCH  16  17
HETATM   17  C   UNK N   1      21.955  17.019   6.504  0.00  0.00     0.050 C 
BRANCH  17  18
HETATM   18  C   UNK N   1      21.128  15.881   7.105  0.00  0.00     0.273 C 
BRANCH  18  19
HETATM   19  N   UNK N   1      20.810  16.095   8.516  0.00  0.00     0.080 N 
HETATM   20  C   UNK N   1      19.424  16.526   8.563  0.00  0.00     0.309 C 
HETATM   21  C   UNK N   1      20.861  14.827   9.229  0.00  0.00     0.309 C 
ENDBRANCH  18  19
ENDBRANCH  17  18
ENDBRANCH  16  17
ENDBRANCH  14  16
TORSDOF 4
ENDMDL
MODEL 8
REMARK VINA RESULT:      -5.4      1.763      2.188
REMARK  4 active torsions:
REMARK  status: ('A' for Active; 'I' for Inactive)
REMARK    1  A    between atoms: C_11  and  C_6 
REMARK    2  A    between atoms: C_12  and  C_6 
REMARK    3  A    between atoms: N_19  and  C_11 
REMARK    4  A    between atoms: N_20  and  C_12 
ROOT
HETATM    1  C   UNK N   1      28.187  18.316   8.959  0.00  0.00     0.002 A 
HETATM    2  C   UNK N   1      29.293  18.122   9.780  0.00  0.00     0.002 A 
HETATM    3  C   UNK N   1      33.059  16.642   3.348  0.00  0.00     0.018 A 
HETATM    4  C   UNK N   1      28.305  18.135   7.582  0.00  0.00     0.031 A 
HETATM    5  C   UNK N   1      30.511  17.746   9.220  0.00  0.00     0.021 A 
HETATM    6  C   UNK N   1      33.148  16.716   4.733  0.00  0.00     0.024 A 
HETATM    7  C   UNK N   1      31.835  16.875   2.737  0.00  0.00     0.090 A 
HETATM    8  C   UNK N   1      29.528  17.756   6.991  0.00  0.00     0.053 A 
HETATM    9  C   UNK N   1      30.645  17.561   7.838  0.00  0.00     0.032 A 
HETATM   10  C   UNK N   1      32.023  17.025   5.506  0.00  0.00     0.050 A 
HETATM   11  C   UNK N   1      30.793  17.263   4.857  0.00  0.00     0.125 A 
HETATM   12  N   UNK N   1      30.747  17.173   3.494  0.00  0.00    -0.351 N 
ATOM     13  HN  UNK N   1      29.856  17.338   3.025  1.00  0.00     0.166 HD
HETATM   14  N   UNK N   1      29.593  17.598   5.567  0.00  0.00    -0.331 N 
HETATM   15  S   UNK N   1      32.265  17.076   7.271  0.00  0.00    -0.084 SA
ENDROOT
BRANCH  14  16
HETATM   16  C   UNK N   1      28.377  17.806   4.790  0.00  0.00     0.133 C 
BRANCH  16  17
HETATM   17  C   UNK N   1      27.600  16.503   4.673  0.00  0.00     0.050 C 
BRANCH  17  18
HETATM   18  C   UNK N   1      26.096  16.700   4.869  0.00  0.00     0.273 C 
BRANCH  18  19
HETATM   19  N   UNK N   1      25.455  15.558   5.520  0.00  0.00     0.080 N 
HETATM   20  C   UNK N   1      25.764  14.396   4.707  0.00  0.00     0.309 C 
HETATM   21  C   UNK N   1      26.076  15.319   6.814  0.00  0.00     0.309 C 
ENDBRANCH  18  19
ENDBRANCH  17  18
ENDBRANCH  16  17
ENDBRANCH  14  16
TORSDOF 4
ENDMDL
MODEL 9
REMARK VINA RESULT:      -5.4      8.437     10.455
REMARK  4 active torsions:
REMARK  status: ('A' for Active; 'I' for Inactive)
REMARK    1  A    between atoms: C_11  and  C_6 
REMARK    2  A    between atoms: C_12  and  C_6 
REMARK    3  A    between atoms: N_19  and  C_11 
REMARK    4  A    between atoms: N_20  and  C_12 
ROOT
HETATM    1  C   UNK N   1      34.126  11.799  15.138  0.00  0.00     0.002 A 
HETATM    2  C   UNK N   1      34.285  10.429  14.964  0.00  0.00     0.002 A 
HETATM    3  C   UNK N   1      39.074  12.297   9.367  0.00  0.00     0.018 A 
HETATM    4  C   UNK N   1      34.799  12.688  14.300  0.00  0.00     0.031 A 
HETATM    5  C   UNK N   1      35.116   9.953  13.953  0.00  0.00     0.021 A 
HETATM    6  C   UNK N   1      38.464  11.250  10.047  0.00  0.00     0.024 A 
HETATM    7  C   UNK N   1      38.755  13.603   9.714  0.00  0.00     0.090 A 
HETATM    8  C   UNK N   1      35.646  12.230  13.270  0.00  0.00     0.053 A 
HETATM    9  C   UNK N   1      35.800  10.833  13.104  0.00  0.00     0.032 A 
HETATM   10  C   UNK N   1      37.544  11.502  11.070  0.00  0.00     0.050 A 
HETATM   11  C   UNK N   1      37.243  12.839  11.406  0.00  0.00     0.125 A 
HETATM   12  N   UNK N   1      37.860  13.840  10.708  0.00  0.00    -0.351 N 
ATOM     13  HN  UNK N   1      37.638  14.807  10.944  1.00  0.00     0.166 HD
HETATM   14  N   UNK N   1      36.324  13.191  12.448  0.00  0.00    -0.331 N 
HETATM   15  S   UNK N   1      36.821  10.073  11.855  0.00  0.00    -0.084 SA
ENDROOT
BRANCH  14  16
HETATM   16  C   UNK N   1      36.081  14.607  12.693  0.00  0.00     0.133 C 
BRANCH  16  17
HETATM   17  C   UNK N   1      34.954  15.108  11.802  0.00  0.00     0.050 C 
BRANCH  17  18
HETATM   18  C   UNK N   1      35.331  16.381  11.044  0.00  0.00     0.273 C 
BRANCH  18  19
HETATM   19  N   UNK N   1      35.315  16.203   9.593  0.00  0.00     0.080 N 
HETATM   20  C   UNK N   1      34.582  14.977   9.338  0.00  0.00     0.309 C 
HETATM   21  C   UNK N   1      34.542  17.271   8.976  0.00  0.00     0.309 C 
ENDBRANCH  18  19
ENDBRANCH  17  18
ENDBRANCH  16  17
ENDBRANCH  14  16
TORSDOF 4
ENDMDL
