MODEL 1
REMARK VINA RESULT:      -6.9      0.000      0.000
REMARK  2 active torsions:
REMARK  status: ('A' for Active; 'I' for Inactive)
REMARK    1  A    between atoms: C_7  and  S_8 
REMARK    2  A    between atoms: S_8  and  C_9 
REMARK       I    between atoms: C_19  and  N_22 
ROOT
HETATM    1  C   UNK N   1      29.648  16.424   2.933  0.00  0.00     0.049 C 
HETATM    2  C   UNK N   1      30.725  16.689   3.929  0.00  0.00    -0.044 A 
HETATM    3  C   UNK N   1      32.025  16.827   3.447  0.00  0.00     0.010 A 
HETATM    4  C   UNK N   1      33.067  17.160   4.301  0.00  0.00     0.032 A 
HETATM    5  C   UNK N   1      32.827  17.365   5.655  0.00  0.00     0.066 A 
HETATM    6  C   UNK N   1      31.523  17.207   6.192  0.00  0.00     0.077 A 
HETATM    7  C   UNK N   1      30.446  16.853   5.309  0.00  0.00     0.029 A 
HETATM    8  C   UNK N   1      31.371  17.449   7.582  0.00  0.00     0.273 A 
HETATM    9  O   UNK N   1      30.294  17.328   8.136  0.00  0.00    -0.267 OA
HETATM   10  N   UNK N   1      32.454  17.838   8.328  0.00  0.00    -0.156 N 
HETATM   11  C   UNK N   1      33.678  17.995   7.769  0.00  0.00     0.679 A 
HETATM   12  N   UNK N   1      33.859  17.752   6.450  0.00  0.00    -0.191 N 
ATOM     13  HN  UNK N   1      34.788  17.861   6.045  1.00  0.00     0.184 HD
HETATM   14  N   UNK N   1      34.762  18.426   8.559  0.00  0.00    -0.234 N 
HETATM   15  H   UNK N   1      32.339  18.008   9.291  0.00  0.00     0.187 HD
HETATM   16  H   UNK N   1      35.646  18.621   8.172  0.00  0.00     0.174 HD
HETATM   17  H   UNK N   1      34.632  18.535   9.529  0.00  0.00     0.174 HD
ENDROOT
BRANCH   7  18
HETATM   18  S   UNK N   1      28.713  16.771   5.884  0.00  0.00    -0.089 SA
BRANCH  18  19
HETATM   19  C   UNK N   1      28.097  18.465   5.709  0.00  0.00     0.008 A 
HETATM   20  C   UNK N   1      27.857  19.298   6.807  0.00  0.00     0.036 A 
HETATM   21  C   UNK N   1      27.263  20.549   6.610  0.00  0.00     0.089 A 
HETATM   22  N   UNK N   1      26.910  20.949   5.359  0.00  0.00    -0.375 N 
HETATM   23  C   UNK N   1      27.132  20.158   4.276  0.00  0.00     0.089 A 
ATOM     24  HN  UNK N   1      26.471  21.861   5.231  1.00  0.00     0.164 HD
HETATM   25  C   UNK N   1      27.722  18.902   4.434  0.00  0.00     0.036 A 
ENDBRANCH  18  19
ENDBRANCH   7  18
TORSDOF 2
ENDMDL
MODEL 2
REMARK VINA RESULT:      -6.7      8.652      9.868
REMARK  2 active torsions:
REMARK  status: ('A' for Active; 'I' for Inactive)
REMARK    1  A    between atoms: C_7  and  S_8 
REMARK    2  A    between atoms: S_8  and  C_9 
REMARK       I    between atoms: C_19  and  N_22 
ROOT
HETATM    1  C   UNK N   1      24.082  14.665   6.049  0.00  0.00     0.049 C 
HETATM    2  C   UNK N   1      24.000  13.977   7.369  0.00  0.00    -0.044 A 
HETATM    3  C   UNK N   1      25.192  13.757   8.055  0.00  0.00     0.010 A 
HETATM    4  C   UNK N   1      25.189  13.200   9.326  0.00  0.00     0.032 A 
HETATM    5  C   UNK N   1      23.989  12.856   9.939  0.00  0.00     0.066 A 
HETATM    6  C   UNK N   1      22.754  13.037   9.264  0.00  0.00     0.077 A 
HETATM    7  C   UNK N   1      22.758  13.603   7.944  0.00  0.00     0.029 A 
HETATM    8  C   UNK N   1      21.580  12.668   9.971  0.00  0.00     0.273 A 
HETATM    9  O   UNK N   1      20.475  12.774   9.472  0.00  0.00    -0.267 OA
HETATM   10  N   UNK N   1      21.679  12.187  11.252  0.00  0.00    -0.156 N 
HETATM   11  C   UNK N   1      22.880  12.049  11.865  0.00  0.00     0.679 A 
HETATM   12  N   UNK N   1      24.018  12.373  11.208  0.00  0.00    -0.191 N 
ATOM     13  HN  UNK N   1      24.916  12.252  11.675  1.00  0.00     0.184 HD
HETATM   14  N   UNK N   1      22.943  11.581  13.192  0.00  0.00    -0.234 N 
HETATM   15  H   UNK N   1      20.860  11.937  11.738  0.00  0.00     0.187 HD
HETATM   16  H   UNK N   1      23.791  11.539  13.691  0.00  0.00     0.174 HD
HETATM   17  H   UNK N   1      22.114  11.287  13.634  0.00  0.00     0.174 HD
ENDROOT
BRANCH   7  18
HETATM   18  S   UNK N   1      21.210  14.007   7.060  0.00  0.00    -0.089 SA
BRANCH  18  19
HETATM   19  C   UNK N   1      20.850  15.716   7.533  0.00  0.00     0.008 A 
HETATM   20  C   UNK N   1      20.054  16.043   8.636  0.00  0.00     0.036 A 
HETATM   21  C   UNK N   1      19.712  17.378   8.872  0.00  0.00     0.089 A 
HETATM   22  N   UNK N   1      20.141  18.354   8.028  0.00  0.00    -0.375 N 
HETATM   23  C   UNK N   1      20.916  18.063   6.949  0.00  0.00     0.089 A 
ATOM     24  HN  UNK N   1      19.878  19.323   8.208  1.00  0.00     0.164 HD
HETATM   25  C   UNK N   1      21.276  16.740   6.681  0.00  0.00     0.036 A 
ENDBRANCH  18  19
ENDBRANCH   7  18
TORSDOF 2
ENDMDL
MODEL 3
REMARK VINA RESULT:      -6.6      8.295     10.621
REMARK  2 active torsions:
REMARK  status: ('A' for Active; 'I' for Inactive)
REMARK    1  A    between atoms: C_7  and  S_8 
REMARK    2  A    between atoms: S_8  and  C_9 
REMARK       I    between atoms: C_19  and  N_22 
ROOT
HETATM    1  C   UNK N   1      34.736  10.691  11.364  0.00  0.00     0.049 C 
HETATM    2  C   UNK N   1      34.670  11.223  12.756  0.00  0.00    -0.044 A 
HETATM    3  C   UNK N   1      33.876  10.534  13.669  0.00  0.00     0.010 A 
HETATM    4  C   UNK N   1      33.831  10.917  15.003  0.00  0.00     0.032 A 
HETATM    5  C   UNK N   1      34.585  11.996  15.448  0.00  0.00     0.066 A 
HETATM    6  C   UNK N   1      35.385  12.743  14.545  0.00  0.00     0.077 A 
HETATM    7  C   UNK N   1      35.423  12.353  13.163  0.00  0.00     0.029 A 
HETATM    8  C   UNK N   1      36.129  13.821  15.092  0.00  0.00     0.273 A 
HETATM    9  O   UNK N   1      36.834  14.527  14.396  0.00  0.00    -0.267 OA
HETATM   10  N   UNK N   1      36.067  14.077  16.438  0.00  0.00    -0.156 N 
HETATM   11  C   UNK N   1      35.303  13.326  17.267  0.00  0.00     0.679 A 
HETATM   12  N   UNK N   1      34.567  12.304  16.771  0.00  0.00    -0.191 N 
ATOM     13  HN  UNK N   1      33.986  11.754  17.404  1.00  0.00     0.184 HD
HETATM   14  N   UNK N   1      35.288  13.598  18.649  0.00  0.00    -0.234 N 
HETATM   15  H   UNK N   1      36.590  14.825  16.811  0.00  0.00     0.187 HD
HETATM   16  H   UNK N   1      34.803  13.027  19.289  0.00  0.00     0.174 HD
HETATM   17  H   UNK N   1      35.776  14.384  18.986  0.00  0.00     0.174 HD
ENDROOT
BRANCH   7  18
HETATM   18  S   UNK N   1      36.535  13.164  11.960  0.00  0.00    -0.089 SA
BRANCH  18  19
HETATM   19  C   UNK N   1      35.523  14.465  11.212  0.00  0.00     0.008 A 
HETATM   20  C   UNK N   1      34.364  14.191  10.477  0.00  0.00     0.036 A 
HETATM   21  C   UNK N   1      33.699  15.231   9.820  0.00  0.00     0.089 A 
HETATM   22  N   UNK N   1      34.182  16.501   9.886  0.00  0.00    -0.375 N 
HETATM   23  C   UNK N   1      35.306  16.793  10.592  0.00  0.00     0.089 A 
ATOM     24  HN  UNK N   1      33.691  17.249   9.396  1.00  0.00     0.164 HD
HETATM   25  C   UNK N   1      35.997  15.779  11.260  0.00  0.00     0.036 A 
ENDBRANCH  18  19
ENDBRANCH   7  18
TORSDOF 2
ENDMDL
MODEL 4
REMARK VINA RESULT:      -6.5      2.889      5.172
REMARK  2 active torsions:
REMARK  status: ('A' for Active; 'I' for Inactive)
REMARK    1  A    between atoms: C_7  and  S_8 
REMARK    2  A    between atoms: S_8  and  C_9 
REMARK       I    between atoms: C_19  and  N_22 
ROOT
HETATM    1  C   UNK N   1      29.046  17.100   4.687  0.00  0.00     0.049 C 
HETATM    2  C   UNK N   1      30.010  17.200   5.819  0.00  0.00    -0.044 A 
HETATM    3  C   UNK N   1      29.498  17.092   7.110  0.00  0.00     0.010 A 
HETATM    4  C   UNK N   1      30.342  17.089   8.212  0.00  0.00     0.032 A 
HETATM    5  C   UNK N   1      31.718  17.190   8.042  0.00  0.00     0.066 A 
HETATM    6  C   UNK N   1      32.279  17.331   6.746  0.00  0.00     0.077 A 
HETATM    7  C   UNK N   1      31.405  17.345   5.607  0.00  0.00     0.029 A 
HETATM    8  C   UNK N   1      33.694  17.416   6.668  0.00  0.00     0.273 A 
HETATM    9  O   UNK N   1      34.267  17.551   5.603  0.00  0.00    -0.267 OA
HETATM   10  N   UNK N   1      34.445  17.337   7.813  0.00  0.00    -0.156 N 
HETATM   11  C   UNK N   1      33.867  17.184   9.029  0.00  0.00     0.679 A 
HETATM   12  N   UNK N   1      32.519  17.120   9.137  0.00  0.00    -0.191 N 
ATOM     13  HN  UNK N   1      32.096  17.017  10.059  1.00  0.00     0.184 HD
HETATM   14  N   UNK N   1      34.670  17.075  10.182  0.00  0.00    -0.234 N 
HETATM   15  H   UNK N   1      35.426  17.393   7.751  0.00  0.00     0.187 HD
HETATM   16  H   UNK N   1      34.287  16.889  11.069  0.00  0.00     0.174 HD
HETATM   17  H   UNK N   1      35.644  17.189  10.096  0.00  0.00     0.174 HD
ENDROOT
BRANCH   7  18
HETATM   18  S   UNK N   1      32.046  17.375   3.895  0.00  0.00    -0.089 SA
BRANCH  18  19
HETATM   19  C   UNK N   1      32.506  15.658   3.553  0.00  0.00     0.008 A 
HETATM   20  C   UNK N   1      31.857  14.569   4.147  0.00  0.00     0.036 A 
HETATM   21  C   UNK N   1      32.343  13.275   3.937  0.00  0.00     0.089 A 
HETATM   22  N   UNK N   1      33.447  13.075   3.169  0.00  0.00    -0.375 N 
HETATM   23  C   UNK N   1      34.097  14.115   2.582  0.00  0.00     0.089 A 
ATOM     24  HN  UNK N   1      33.795  12.126   3.031  1.00  0.00     0.164 HD
HETATM   25  C   UNK N   1      33.641  15.422   2.771  0.00  0.00     0.036 A 
ENDBRANCH  18  19
ENDBRANCH   7  18
TORSDOF 2
ENDMDL
MODEL 5
REMARK VINA RESULT:      -6.3      7.292     10.764
REMARK  2 active torsions:
REMARK  status: ('A' for Active; 'I' for Inactive)
REMARK    1  A    between atoms: C_7  and  S_8 
REMARK    2  A    between atoms: S_8  and  C_9 
REMARK       I    between atoms: C_19  and  N_22 
ROOT
HETATM    1  C   UNK N   1      20.276  14.284   3.901  0.00  0.00     0.049 C 
HETATM    2  C   UNK N   1      20.388  15.573   3.161  0.00  0.00    -0.044 A 
HETATM    3  C   UNK N   1      20.180  15.543   1.784  0.00  0.00     0.010 A 
HETATM    4  C   UNK N   1      20.183  16.714   1.039  0.00  0.00     0.032 A 
HETATM    5  C   UNK N   1      20.392  17.940   1.660  0.00  0.00     0.066 A 
HETATM    6  C   UNK N   1      20.637  18.013   3.056  0.00  0.00     0.077 A 
HETATM    7  C   UNK N   1      20.644  16.799   3.825  0.00  0.00     0.029 A 
HETATM    8  C   UNK N   1      20.827  19.308   3.604  0.00  0.00     0.273 A 
HETATM    9  O   UNK N   1      21.056  19.471   4.788  0.00  0.00    -0.267 OA
HETATM   10  N   UNK N   1      20.746  20.410   2.792  0.00  0.00    -0.156 N 
HETATM   11  C   UNK N   1      20.491  20.295   1.466  0.00  0.00     0.679 A 
HETATM   12  N   UNK N   1      20.325  19.072   0.911  0.00  0.00    -0.191 N 
ATOM     13  HN  UNK N   1      20.146  18.998  -0.090  1.00  0.00     0.184 HD
HETATM   14  N   UNK N   1      20.383  21.450   0.667  0.00  0.00    -0.234 N 
HETATM   15  H   UNK N   1      20.875  21.306   3.181  0.00  0.00     0.187 HD
HETATM   16  H   UNK N   1      20.127  21.407  -0.282  0.00  0.00     0.174 HD
HETATM   17  H   UNK N   1      20.571  22.328   1.071  0.00  0.00     0.174 HD
ENDROOT
BRANCH   7  18
HETATM   18  S   UNK N   1      20.805  16.810   5.645  0.00  0.00    -0.089 SA
BRANCH  18  19
HETATM   19  C   UNK N   1      22.514  16.298   5.953  0.00  0.00     0.008 A 
HETATM   20  C   UNK N   1      23.604  16.863   5.281  0.00  0.00     0.036 A 
HETATM   21  C   UNK N   1      24.884  16.335   5.473  0.00  0.00     0.089 A 
HETATM   22  N   UNK N   1      25.069  15.271   6.300  0.00  0.00    -0.375 N 
HETATM   23  C   UNK N   1      24.026  14.703   6.963  0.00  0.00     0.089 A 
ATOM     24  HN  UNK N   1      26.007  14.891   6.425  1.00  0.00     0.164 HD
HETATM   25  C   UNK N   1      22.733  15.203   6.795  0.00  0.00     0.036 A 
ENDBRANCH  18  19
ENDBRANCH   7  18
TORSDOF 2
ENDMDL
MODEL 6
REMARK VINA RESULT:      -6.3      8.207     10.586
REMARK  2 active torsions:
REMARK  status: ('A' for Active; 'I' for Inactive)
REMARK    1  A    between atoms: C_7  and  S_8 
REMARK    2  A    between atoms: S_8  and  C_9 
REMARK       I    between atoms: C_19  and  N_22 
ROOT
HETATM    1  C   UNK N   1      19.776  14.177   9.887  0.00  0.00     0.049 C 
HETATM    2  C   UNK N   1      20.309  15.018   8.778  0.00  0.00    -0.044 A 
HETATM    3  C   UNK N   1      19.949  16.364   8.763  0.00  0.00     0.010 A 
HETATM    4  C   UNK N   1      20.473  17.229   7.813  0.00  0.00     0.032 A 
HETATM    5  C   UNK N   1      21.372  16.764   6.859  0.00  0.00     0.066 A 
HETATM    6  C   UNK N   1      21.742  15.395   6.821  0.00  0.00     0.077 A 
HETATM    7  C   UNK N   1      21.192  14.497   7.799  0.00  0.00     0.029 A 
HETATM    8  C   UNK N   1      22.674  15.013   5.821  0.00  0.00     0.273 A 
HETATM    9  O   UNK N   1      23.044  13.860   5.701  0.00  0.00    -0.267 OA
HETATM   10  N   UNK N   1      23.184  15.959   4.969  0.00  0.00    -0.156 N 
HETATM   11  C   UNK N   1      22.816  17.261   5.054  0.00  0.00     0.679 A 
HETATM   12  N   UNK N   1      21.913  17.651   5.984  0.00  0.00    -0.191 N 
ATOM     13  HN  UNK N   1      21.635  18.630   6.030  1.00  0.00     0.184 HD
HETATM   14  N   UNK N   1      23.383  18.211   4.183  0.00  0.00    -0.234 N 
HETATM   15  H   UNK N   1      23.834  15.687   4.280  0.00  0.00     0.187 HD
HETATM   16  H   UNK N   1      23.194  19.174   4.265  0.00  0.00     0.174 HD
HETATM   17  H   UNK N   1      23.987  17.903   3.469  0.00  0.00     0.174 HD
ENDROOT
BRANCH   7  18
HETATM   18  S   UNK N   1      21.724  12.753   7.917  0.00  0.00    -0.089 SA
BRANCH  18  19
HETATM   19  C   UNK N   1      23.006  12.755   9.194  0.00  0.00     0.008 A 
HETATM   20  C   UNK N   1      24.270  13.322   8.995  0.00  0.00     0.036 A 
HETATM   21  C   UNK N   1      25.256  13.178   9.976  0.00  0.00     0.089 A 
HETATM   22  N   UNK N   1      24.992  12.483  11.115  0.00  0.00    -0.375 N 
HETATM   23  C   UNK N   1      23.772  11.922  11.332  0.00  0.00     0.089 A 
ATOM     24  HN  UNK N   1      25.722  12.379  11.819  1.00  0.00     0.164 HD
HETATM   25  C   UNK N   1      22.764  12.043  10.373  0.00  0.00     0.036 A 
ENDBRANCH  18  19
ENDBRANCH   7  18
TORSDOF 2
ENDMDL
MODEL 7
REMARK VINA RESULT:      -6.2     11.687     14.447
REMARK  2 active torsions:
REMARK  status: ('A' for Active; 'I' for Inactive)
REMARK    1  A    between atoms: C_7  and  S_8 
REMARK    2  A    between atoms: S_8  and  C_9 
REMARK       I    between atoms: C_19  and  N_22 
ROOT
HETATM    1  C   UNK N   1      27.633  24.593  -7.532  0.00  0.00     0.049 C 
HETATM    2  C   UNK N   1      27.509  25.883  -6.795  0.00  0.00    -0.044 A 
HETATM    3  C   UNK N   1      27.760  27.055  -7.505  0.00  0.00     0.010 A 
HETATM    4  C   UNK N   1      27.581  28.297  -6.912  0.00  0.00     0.032 A 
HETATM    5  C   UNK N   1      27.145  28.390  -5.595  0.00  0.00     0.066 A 
HETATM    6  C   UNK N   1      26.906  27.221  -4.827  0.00  0.00     0.077 A 
HETATM    7  C   UNK N   1      27.100  25.936  -5.438  0.00  0.00     0.029 A 
HETATM    8  C   UNK N   1      26.451  27.413  -3.497  0.00  0.00     0.273 A 
HETATM    9  O   UNK N   1      26.230  26.473  -2.757  0.00  0.00    -0.267 OA
HETATM   10  N   UNK N   1      26.243  28.684  -3.025  0.00  0.00    -0.156 N 
HETATM   11  C   UNK N   1      26.466  29.773  -3.801  0.00  0.00     0.679 A 
HETATM   12  N   UNK N   1      26.920  29.621  -5.067  0.00  0.00    -0.191 N 
ATOM     13  HN  UNK N   1      27.096  30.449  -5.636  1.00  0.00     0.184 HD
HETATM   14  N   UNK N   1      26.212  31.062  -3.294  0.00  0.00    -0.234 N 
HETATM   15  H   UNK N   1      25.923  28.809  -2.102  0.00  0.00     0.187 HD
HETATM   16  H   UNK N   1      26.293  31.869  -3.853  0.00  0.00     0.174 HD
HETATM   17  H   UNK N   1      25.946  31.160  -2.351  0.00  0.00     0.174 HD
ENDROOT
BRANCH   7  18
HETATM   18  S   UNK N   1      26.678  24.381  -4.574  0.00  0.00    -0.089 SA
BRANCH  18  19
HETATM   19  C   UNK N   1      28.221  23.872  -3.777  0.00  0.00     0.008 A 
HETATM   20  C   UNK N   1      28.255  23.269  -2.514  0.00  0.00     0.036 A 
HETATM   21  C   UNK N   1      29.486  23.016  -1.901  0.00  0.00     0.089 A 
HETATM   22  N   UNK N   1      30.645  23.361  -2.524  0.00  0.00    -0.375 N 
HETATM   23  C   UNK N   1      30.639  23.948  -3.751  0.00  0.00     0.089 A 
ATOM     24  HN  UNK N   1      31.535  23.177  -2.063  1.00  0.00     0.164 HD
HETATM   25  C   UNK N   1      29.428  24.218  -4.393  0.00  0.00     0.036 A 
ENDBRANCH  18  19
ENDBRANCH   7  18
TORSDOF 2
ENDMDL
MODEL 8
REMARK VINA RESULT:      -6.2      8.066     10.237
REMARK  2 active torsions:
REMARK  status: ('A' for Active; 'I' for Inactive)
REMARK    1  A    between atoms: C_7  and  S_8 
REMARK    2  A    between atoms: S_8  and  C_9 
REMARK       I    between atoms: C_19  and  N_22 
ROOT
HETATM    1  C   UNK N   1      24.650  16.782   5.402  0.00  0.00     0.049 C 
HETATM    2  C   UNK N   1      23.854  17.774   4.625  0.00  0.00    -0.044 A 
HETATM    3  C   UNK N   1      24.478  18.972   4.283  0.00  0.00     0.010 A 
HETATM    4  C   UNK N   1      23.831  19.908   3.488  0.00  0.00     0.032 A 
HETATM    5  C   UNK N   1      22.547  19.661   3.016  0.00  0.00     0.066 A 
HETATM    6  C   UNK N   1      21.864  18.466   3.365  0.00  0.00     0.077 A 
HETATM    7  C   UNK N   1      22.530  17.502   4.196  0.00  0.00     0.029 A 
HETATM    8  C   UNK N   1      20.562  18.295   2.828  0.00  0.00     0.273 A 
HETATM    9  O   UNK N   1      19.893  17.310   3.079  0.00  0.00    -0.267 OA
HETATM   10  N   UNK N   1      20.037  19.252   1.997  0.00  0.00    -0.156 N 
HETATM   11  C   UNK N   1      20.732  20.369   1.675  0.00  0.00     0.679 A 
HETATM   12  N   UNK N   1      21.969  20.570   2.189  0.00  0.00    -0.191 N 
ATOM     13  HN  UNK N   1      22.477  21.421   1.949  1.00  0.00     0.184 HD
HETATM   14  N   UNK N   1      20.175  21.317   0.794  0.00  0.00    -0.234 N 
HETATM   15  H   UNK N   1      19.134  19.124   1.625  0.00  0.00     0.187 HD
HETATM   16  H   UNK N   1      20.681  22.101   0.482  0.00  0.00     0.174 HD
HETATM   17  H   UNK N   1      19.250  21.190   0.481  0.00  0.00     0.174 HD
ENDROOT
BRANCH   7  18
HETATM   18  S   UNK N   1      21.787  15.876   4.574  0.00  0.00    -0.089 SA
BRANCH  18  19
HETATM   19  C   UNK N   1      21.317  15.987   6.319  0.00  0.00     0.008 A 
HETATM   20  C   UNK N   1      21.492  14.928   7.217  0.00  0.00     0.036 A 
HETATM   21  C   UNK N   1      20.993  15.034   8.519  0.00  0.00     0.089 A 
HETATM   22  N   UNK N   1      20.332  16.157   8.908  0.00  0.00    -0.375 N 
HETATM   23  C   UNK N   1      20.148  17.200   8.055  0.00  0.00     0.089 A 
ATOM     24  HN  UNK N   1      19.966  16.218   9.859  1.00  0.00     0.164 HD
HETATM   25  C   UNK N   1      20.631  17.128   6.747  0.00  0.00     0.036 A 
ENDBRANCH  18  19
ENDBRANCH   7  18
TORSDOF 2
ENDMDL
MODEL 9
REMARK VINA RESULT:      -6.1      1.927      5.602
REMARK  2 active torsions:
REMARK  status: ('A' for Active; 'I' for Inactive)
REMARK    1  A    between atoms: C_7  and  S_8 
REMARK    2  A    between atoms: S_8  and  C_9 
REMARK       I    between atoms: C_19  and  N_22 
ROOT
HETATM    1  C   UNK N   1      31.477  15.152   5.424  0.00  0.00     0.049 C 
HETATM    2  C   UNK N   1      30.553  16.304   5.633  0.00  0.00    -0.044 A 
HETATM    3  C   UNK N   1      29.957  16.862   4.505  0.00  0.00     0.010 A 
HETATM    4  C   UNK N   1      29.021  17.880   4.626  0.00  0.00     0.032 A 
HETATM    5  C   UNK N   1      28.661  18.357   5.881  0.00  0.00     0.066 A 
HETATM    6  C   UNK N   1      29.265  17.835   7.055  0.00  0.00     0.077 A 
HETATM    7  C   UNK N   1      30.242  16.789   6.929  0.00  0.00     0.029 A 
HETATM    8  C   UNK N   1      28.827  18.374   8.292  0.00  0.00     0.273 A 
HETATM    9  O   UNK N   1      29.294  18.001   9.352  0.00  0.00    -0.267 OA
HETATM   10  N   UNK N   1      27.846  19.334   8.308  0.00  0.00    -0.156 N 
HETATM   11  C   UNK N   1      27.283  19.789   7.162  0.00  0.00     0.679 A 
HETATM   12  N   UNK N   1      27.696  19.309   5.966  0.00  0.00    -0.191 N 
ATOM     13  HN  UNK N   1      27.273  19.669   5.111  1.00  0.00     0.184 HD
HETATM   14  N   UNK N   1      26.257  20.752   7.217  0.00  0.00    -0.234 N 
HETATM   15  H   UNK N   1      27.544  19.700   9.171  0.00  0.00     0.187 HD
HETATM   16  H   UNK N   1      25.776  21.050   6.411  0.00  0.00     0.174 HD
HETATM   17  H   UNK N   1      26.013  21.141   8.089  0.00  0.00     0.174 HD
ENDROOT
BRANCH   7  18
HETATM   18  S   UNK N   1      30.962  15.959   8.389  0.00  0.00    -0.089 SA
BRANCH  18  19
HETATM   19  C   UNK N   1      32.609  16.693   8.561  0.00  0.00     0.008 A 
HETATM   20  C   UNK N   1      33.597  16.145   9.386  0.00  0.00     0.036 A 
HETATM   21  C   UNK N   1      34.802  16.829   9.572  0.00  0.00     0.089 A 
HETATM   22  N   UNK N   1      35.009  18.027   8.961  0.00  0.00    -0.375 N 
HETATM   23  C   UNK N   1      34.065  18.581   8.155  0.00  0.00     0.089 A 
ATOM     24  HN  UNK N   1      35.890  18.519   9.111  1.00  0.00     0.164 HD
HETATM   25  C   UNK N   1      32.848  17.927   7.948  0.00  0.00     0.036 A 
ENDBRANCH  18  19
ENDBRANCH   7  18
TORSDOF 2
ENDMDL
