MODEL 1
REMARK VINA RESULT:      -8.2      0.000      0.000
REMARK  5 active torsions:
REMARK  status: ('A' for Active; 'I' for Inactive)
REMARK    1  A    between atoms: O_2  and  C_3 
REMARK    2  A    between atoms: C_5  and  N_10 
REMARK       I    between atoms: N_13  and  C_16 
REMARK    3  A    between atoms: C_16  and  C_18 
REMARK    4  A    between atoms: C_18  and  N_19 
REMARK    5  A    between atoms: C_27  and  C_30 
ROOT
HETATM    1  N   UNK N   1      32.222  17.070   7.786  0.00  0.00    -0.266 N 
HETATM    2  C   UNK N   1      31.040  17.510   8.253  0.00  0.00     0.135 A 
HETATM    3  C   UNK N   1      30.084  17.333   7.303  0.00  0.00     0.041 A 
HETATM    4  C   UNK N   1      28.771  17.731   7.528  0.00  0.00     0.019 A 
HETATM    5  C   UNK N   1      28.480  18.314   8.776  0.00  0.00     0.018 A 
HETATM    6  C   UNK N   1      29.507  18.479   9.735  0.00  0.00     0.090 A 
HETATM    7  N   UNK N   1      30.782  18.077   9.456  0.00  0.00    -0.350 N 
ATOM      8  HN  UNK N   1      31.528  18.201  10.140  1.00  0.00     0.166 HD
HETATM    9  C   UNK N   1      30.741  16.767   6.227  0.00  0.00     0.106 A 
HETATM   10  N   UNK N   1      32.048  16.614   6.552  0.00  0.00    -0.292 N 
ATOM     11  HN  UNK N   1      32.771  16.217   5.954  1.00  0.00     0.187 HD
ENDROOT
BRANCH   1  12
HETATM   12  C   UNK N   1      33.536  17.151   8.400  0.00  0.00     0.253 C 
BRANCH  12  13
HETATM   13  C   UNK N   1      34.431  15.979   8.126  0.00  0.00     0.239 C 
HETATM   14  N   UNK N   1      35.342  15.592   9.055  0.00  0.00    -0.348 N 
HETATM   15  C   UNK N   1      35.428  16.289  10.311  0.00  0.00     0.145 C 
HETATM   16  C   UNK N   1      35.924  14.277   8.990  0.00  0.00     0.145 C 
HETATM   17  C   UNK N   1      34.557  15.499  11.268  0.00  0.00     0.143 C 
HETATM   18  N   UNK N   1      34.976  14.108  11.239  0.00  0.00    -0.378 N 
HETATM   19  C   UNK N   1      35.114  13.418   9.961  0.00  0.00     0.143 C 
HETATM   20  O   UNK N   1      34.235  15.293   7.135  0.00  0.00    -0.271 OA
BRANCH  18  21
HETATM   21  C   UNK N   1      35.296  13.450  12.452  0.00  0.00     0.033 A 
HETATM   22  C   UNK N   1      36.054  14.111  13.428  0.00  0.00     0.067 A 
HETATM   23  C   UNK N   1      36.391  13.474  14.628  0.00  0.00     0.092 A 
HETATM   24  C   UNK N   1      35.966  12.152  14.842  0.00  0.00     0.067 A 
HETATM   25  C   UNK N   1      35.201  11.493  13.874  0.00  0.00     0.029 A 
HETATM   26 Cl   UNK N   1      36.384  11.305  16.316  0.00  0.00    -0.081 Cl
HETATM   27  C   UNK N   1      34.863  12.140  12.688  0.00  0.00     0.031 A 
BRANCH  23  28
HETATM   28  O   UNK N   1      37.115  14.112  15.580  0.00  0.00    -0.354 OA
HETATM   29  C   UNK N   1      37.282  15.479  15.608  0.00  0.00     0.210 C 
ENDBRANCH  23  28
ENDBRANCH  18  21
ENDBRANCH  12  13
ENDBRANCH   1  12
BRANCH   9  30
HETATM   30  C   UNK N   1      30.195  16.433   4.910  0.00  0.00     0.134 A 
HETATM   31  N   UNK N   1      30.196  15.186   4.406  0.00  0.00    -0.349 N 
HETATM   32  C   UNK N   1      29.663  15.302   3.177  0.00  0.00     0.107 A 
HETATM   33  H   UNK N   1      30.517  14.365   4.844  0.00  0.00     0.167 HD
HETATM   34  C   UNK N   1      29.353  16.631   2.958  0.00  0.00     0.107 A 
HETATM   35  N   UNK N   1      29.691  17.336   4.053  0.00  0.00    -0.349 N 
ATOM     36  HN  UNK N   1      29.587  18.340   4.201  1.00  0.00     0.167 HD
ENDBRANCH   9  30
TORSDOF 5
ENDMDL
MODEL 2
REMARK VINA RESULT:      -7.9      0.989      1.827
REMARK  5 active torsions:
REMARK  status: ('A' for Active; 'I' for Inactive)
REMARK    1  A    between atoms: O_2  and  C_3 
REMARK    2  A    between atoms: C_5  and  N_10 
REMARK       I    between atoms: N_13  and  C_16 
REMARK    3  A    between atoms: C_16  and  C_18 
REMARK    4  A    between atoms: C_18  and  N_19 
REMARK    5  A    between atoms: C_27  and  C_30 
ROOT
HETATM    1  N   UNK N   1      32.116  17.110   7.703  0.00  0.00    -0.266 N 
HETATM    2  C   UNK N   1      30.955  17.531   8.236  0.00  0.00     0.135 A 
HETATM    3  C   UNK N   1      29.947  17.316   7.350  0.00  0.00     0.041 A 
HETATM    4  C   UNK N   1      28.642  17.688   7.649  0.00  0.00     0.019 A 
HETATM    5  C   UNK N   1      28.414  18.286   8.903  0.00  0.00     0.018 A 
HETATM    6  C   UNK N   1      29.494  18.491   9.794  0.00  0.00     0.090 A 
HETATM    7  N   UNK N   1      30.759  18.113   9.443  0.00  0.00    -0.350 N 
ATOM      8  HN  UNK N   1      31.543  18.267  10.077  1.00  0.00     0.166 HD
HETATM    9  C   UNK N   1      30.550  16.747   6.245  0.00  0.00     0.106 A 
HETATM   10  N   UNK N   1      31.878  16.629   6.490  0.00  0.00    -0.292 N 
ATOM     11  HN  UNK N   1      32.572  16.238   5.855  1.00  0.00     0.187 HD
ENDROOT
BRANCH   1  12
HETATM   12  C   UNK N   1      33.464  17.232   8.233  0.00  0.00     0.253 C 
BRANCH  12  13
HETATM   13  C   UNK N   1      34.352  16.054   7.967  0.00  0.00     0.239 C 
HETATM   14  N   UNK N   1      35.271  15.676   8.892  0.00  0.00    -0.348 N 
HETATM   15  C   UNK N   1      35.371  16.389  10.138  0.00  0.00     0.145 C 
HETATM   16  C   UNK N   1      35.849  14.358   8.838  0.00  0.00     0.145 C 
HETATM   17  C   UNK N   1      34.506  15.613  11.113  0.00  0.00     0.143 C 
HETATM   18  N   UNK N   1      34.920  14.220  11.098  0.00  0.00    -0.378 N 
HETATM   19  C   UNK N   1      35.046  13.514   9.828  0.00  0.00     0.143 C 
HETATM   20  O   UNK N   1      34.145  15.356   6.986  0.00  0.00    -0.271 OA
BRANCH  18  21
HETATM   21  C   UNK N   1      35.250  13.578  12.316  0.00  0.00     0.033 A 
HETATM   22  C   UNK N   1      34.774  12.286  12.578  0.00  0.00     0.067 A 
HETATM   23  C   UNK N   1      35.080  11.639  13.781  0.00  0.00     0.092 A 
HETATM   24  C   UNK N   1      35.867  12.306  14.734  0.00  0.00     0.067 A 
HETATM   25  C   UNK N   1      36.353  13.590  14.471  0.00  0.00     0.029 A 
HETATM   26 Cl   UNK N   1      36.255  11.547  16.263  0.00  0.00    -0.081 Cl
HETATM   27  C   UNK N   1      36.051  14.221  13.266  0.00  0.00     0.031 A 
BRANCH  23  28
HETATM   28  O   UNK N   1      34.631  10.386  14.035  0.00  0.00    -0.354 OA
HETATM   29  C   UNK N   1      35.277   9.251  13.598  0.00  0.00     0.210 C 
ENDBRANCH  23  28
ENDBRANCH  18  21
ENDBRANCH  12  13
ENDBRANCH   1  12
BRANCH   9  30
HETATM   30  C   UNK N   1      29.932  16.377   4.970  0.00  0.00     0.134 A 
HETATM   31  N   UNK N   1      30.003  17.143   3.866  0.00  0.00    -0.349 N 
HETATM   32  C   UNK N   1      29.280  16.491   2.938  0.00  0.00     0.107 A 
HETATM   33  H   UNK N   1      30.483  17.996   3.761  0.00  0.00     0.167 HD
HETATM   34  C   UNK N   1      28.775  15.337   3.506  0.00  0.00     0.107 A 
HETATM   35  N   UNK N   1      29.191  15.272   4.784  0.00  0.00    -0.349 N 
ATOM     36  HN  UNK N   1      28.986  14.542   5.467  1.00  0.00     0.167 HD
ENDBRANCH   9  30
TORSDOF 5
ENDMDL
MODEL 3
REMARK VINA RESULT:      -7.9      6.845     12.502
REMARK  5 active torsions:
REMARK  status: ('A' for Active; 'I' for Inactive)
REMARK    1  A    between atoms: O_2  and  C_3 
REMARK    2  A    between atoms: C_5  and  N_10 
REMARK       I    between atoms: N_13  and  C_16 
REMARK    3  A    between atoms: C_16  and  C_18 
REMARK    4  A    between atoms: C_18  and  N_19 
REMARK    5  A    between atoms: C_27  and  C_30 
ROOT
HETATM    1  N   UNK N   1      29.848  17.486   5.982  0.00  0.00    -0.266 N 
HETATM    2  C   UNK N   1      30.642  17.153   4.948  0.00  0.00     0.135 A 
HETATM    3  C   UNK N   1      31.919  17.002   5.388  0.00  0.00     0.041 A 
HETATM    4  C   UNK N   1      32.945  16.680   4.507  0.00  0.00     0.019 A 
HETATM    5  C   UNK N   1      32.601  16.513   3.153  0.00  0.00     0.018 A 
HETATM    6  C   UNK N   1      31.258  16.682   2.739  0.00  0.00     0.090 A 
HETATM    7  N   UNK N   1      30.292  17.007   3.648  0.00  0.00    -0.350 N 
ATOM      8  HN  UNK N   1      29.325  17.138   3.354  1.00  0.00     0.166 HD
HETATM    9  C   UNK N   1      31.869  17.264   6.744  0.00  0.00     0.106 A 
HETATM   10  N   UNK N   1      30.588  17.555   7.080  0.00  0.00    -0.292 N 
ATOM     11  HN  UNK N   1      30.252  17.784   8.015  1.00  0.00     0.187 HD
ENDROOT
BRANCH   1  12
HETATM   12  C   UNK N   1      28.442  17.850   5.976  0.00  0.00     0.253 C 
BRANCH  12  13
HETATM   13  C   UNK N   1      28.102  19.033   5.121  0.00  0.00     0.239 C 
HETATM   14  N   UNK N   1      27.183  18.910   4.129  0.00  0.00    -0.348 N 
HETATM   15  C   UNK N   1      26.517  17.652   3.918  0.00  0.00     0.145 C 
HETATM   16  C   UNK N   1      26.568  20.084   3.566  0.00  0.00     0.145 C 
HETATM   17  C   UNK N   1      25.222  17.749   4.701  0.00  0.00     0.143 C 
HETATM   18  N   UNK N   1      24.523  18.957   4.299  0.00  0.00    -0.378 N 
HETATM   19  C   UNK N   1      25.228  20.234   4.287  0.00  0.00     0.143 C 
HETATM   20  O   UNK N   1      28.544  20.133   5.416  0.00  0.00    -0.271 OA
BRANCH  18  21
HETATM   21  C   UNK N   1      23.176  18.874   3.870  0.00  0.00     0.033 A 
HETATM   22  C   UNK N   1      22.613  19.915   3.121  0.00  0.00     0.067 A 
HETATM   23  C   UNK N   1      21.280  19.856   2.698  0.00  0.00     0.092 A 
HETATM   24  C   UNK N   1      20.503  18.737   3.043  0.00  0.00     0.067 A 
HETATM   25  C   UNK N   1      21.065  17.691   3.781  0.00  0.00     0.029 A 
HETATM   26 Cl   UNK N   1      18.825  18.630   2.558  0.00  0.00    -0.081 Cl
HETATM   27  C   UNK N   1      22.395  17.756   4.188  0.00  0.00     0.031 A 
BRANCH  23  28
HETATM   28  O   UNK N   1      20.733  20.856   1.965  0.00  0.00    -0.354 OA
HETATM   29  C   UNK N   1      20.834  20.926   0.593  0.00  0.00     0.210 C 
ENDBRANCH  23  28
ENDBRANCH  18  21
ENDBRANCH  12  13
ENDBRANCH   1  12
BRANCH   9  30
HETATM   30  C   UNK N   1      32.980  17.309   7.696  0.00  0.00     0.134 A 
HETATM   31  N   UNK N   1      33.026  16.561   8.813  0.00  0.00    -0.349 N 
HETATM   32  C   UNK N   1      34.163  16.922   9.433  0.00  0.00     0.107 A 
HETATM   33  H   UNK N   1      32.368  15.891   9.111  0.00  0.00     0.167 HD
HETATM   34  C   UNK N   1      34.785  17.896   8.675  0.00  0.00     0.107 A 
HETATM   35  N   UNK N   1      34.035  18.133   7.584  0.00  0.00    -0.349 N 
ATOM     36  HN  UNK N   1      34.226  18.797   6.833  1.00  0.00     0.167 HD
ENDBRANCH   9  30
TORSDOF 5
ENDMDL
MODEL 4
REMARK VINA RESULT:      -7.9      3.822      9.526
REMARK  5 active torsions:
REMARK  status: ('A' for Active; 'I' for Inactive)
REMARK    1  A    between atoms: O_2  and  C_3 
REMARK    2  A    between atoms: C_5  and  N_10 
REMARK       I    between atoms: N_13  and  C_16 
REMARK    3  A    between atoms: C_16  and  C_18 
REMARK    4  A    between atoms: C_18  and  N_19 
REMARK    5  A    between atoms: C_27  and  C_30 
ROOT
HETATM    1  N   UNK N   1      35.772  14.347  11.391  0.00  0.00    -0.266 N 
HETATM    2  C   UNK N   1      36.080  13.680  12.517  0.00  0.00     0.135 A 
HETATM    3  C   UNK N   1      37.064  12.780  12.255  0.00  0.00     0.041 A 
HETATM    4  C   UNK N   1      37.549  11.941  13.251  0.00  0.00     0.019 A 
HETATM    5  C   UNK N   1      36.984  12.072  14.534  0.00  0.00     0.018 A 
HETATM    6  C   UNK N   1      35.962  13.023  14.762  0.00  0.00     0.090 A 
HETATM    7  N   UNK N   1      35.518  13.815  13.742  0.00  0.00    -0.350 N 
ATOM      8  HN  UNK N   1      34.775  14.496  13.898  1.00  0.00     0.166 HD
HETATM    9  C   UNK N   1      37.339  12.924  10.908  0.00  0.00     0.106 A 
HETATM   10  N   UNK N   1      36.535  13.893  10.406  0.00  0.00    -0.292 N 
ATOM     11  HN  UNK N   1      36.521  14.218   9.440  1.00  0.00     0.187 HD
ENDROOT
BRANCH   1  12
HETATM   12  C   UNK N   1      34.718  15.321  11.163  0.00  0.00     0.253 C 
BRANCH  12  13
HETATM   13  C   UNK N   1      35.046  16.376  10.150  0.00  0.00     0.239 C 
HETATM   14  N   UNK N   1      34.512  16.307   8.904  0.00  0.00    -0.348 N 
HETATM   15  C   UNK N   1      33.612  15.237   8.566  0.00  0.00     0.145 C 
HETATM   16  C   UNK N   1      34.494  17.475   8.061  0.00  0.00     0.145 C 
HETATM   17  C   UNK N   1      32.222  15.792   8.809  0.00  0.00     0.143 C 
HETATM   18  N   UNK N   1      32.085  17.042   8.081  0.00  0.00    -0.378 N 
HETATM   19  C   UNK N   1      33.100  18.081   8.225  0.00  0.00     0.143 C 
HETATM   20  O   UNK N   1      35.672  17.367  10.496  0.00  0.00    -0.271 OA
BRANCH  18  21
HETATM   21  C   UNK N   1      30.994  17.219   7.196  0.00  0.00     0.033 A 
HETATM   22  C   UNK N   1      31.143  16.930   5.833  0.00  0.00     0.067 A 
HETATM   23  C   UNK N   1      30.079  17.110   4.941  0.00  0.00     0.092 A 
HETATM   24  C   UNK N   1      28.854  17.594   5.428  0.00  0.00     0.067 A 
HETATM   25  C   UNK N   1      28.699  17.873   6.789  0.00  0.00     0.029 A 
HETATM   26 Cl   UNK N   1      27.503  17.858   4.347  0.00  0.00    -0.081 Cl
HETATM   27  C   UNK N   1      29.761  17.682   7.670  0.00  0.00     0.031 A 
BRANCH  23  28
HETATM   28  O   UNK N   1      30.215  16.822   3.624  0.00  0.00    -0.354 OA
HETATM   29  C   UNK N   1      31.435  16.613   3.020  0.00  0.00     0.210 C 
ENDBRANCH  23  28
ENDBRANCH  18  21
ENDBRANCH  12  13
ENDBRANCH   1  12
BRANCH   9  30
HETATM   30  C   UNK N   1      38.272  12.148  10.089  0.00  0.00     0.134 A 
HETATM   31  N   UNK N   1      38.176  10.817   9.922  0.00  0.00    -0.349 N 
HETATM   32  C   UNK N   1      39.230  10.482   9.157  0.00  0.00     0.107 A 
HETATM   33  H   UNK N   1      37.482  10.218  10.282  0.00  0.00     0.167 HD
HETATM   34  C   UNK N   1      39.953  11.626   8.880  0.00  0.00     0.107 A 
HETATM   35  N   UNK N   1      39.344  12.671   9.470  0.00  0.00    -0.349 N 
ATOM     36  HN  UNK N   1      39.633  13.648   9.451  1.00  0.00     0.167 HD
ENDBRANCH   9  30
TORSDOF 5
ENDMDL
MODEL 5
REMARK VINA RESULT:      -7.9      3.940     10.599
REMARK  5 active torsions:
REMARK  status: ('A' for Active; 'I' for Inactive)
REMARK    1  A    between atoms: O_2  and  C_3 
REMARK    2  A    between atoms: C_5  and  N_10 
REMARK       I    between atoms: N_13  and  C_16 
REMARK    3  A    between atoms: C_16  and  C_18 
REMARK    4  A    between atoms: C_18  and  N_19 
REMARK    5  A    between atoms: C_27  and  C_30 
ROOT
HETATM    1  N   UNK N   1      35.338  12.160  13.825  0.00  0.00    -0.266 N 
HETATM    2  C   UNK N   1      36.246  11.188  14.024  0.00  0.00     0.135 A 
HETATM    3  C   UNK N   1      36.402  10.979  15.358  0.00  0.00     0.041 A 
HETATM    4  C   UNK N   1      37.306  10.038  15.833  0.00  0.00     0.019 A 
HETATM    5  C   UNK N   1      38.043   9.313  14.877  0.00  0.00     0.018 A 
HETATM    6  C   UNK N   1      37.849   9.564  13.498  0.00  0.00     0.090 A 
HETATM    7  N   UNK N   1      36.951  10.508  13.089  0.00  0.00    -0.350 N 
ATOM      8  HN  UNK N   1      36.814  10.700  12.096  1.00  0.00     0.166 HD
HETATM    9  C   UNK N   1      35.546  11.877  15.968  0.00  0.00     0.106 A 
HETATM   10  N   UNK N   1      34.905  12.585  15.005  0.00  0.00    -0.292 N 
ATOM     11  HN  UNK N   1      34.211  13.314  15.160  1.00  0.00     0.187 HD
ENDROOT
BRANCH   1  12
HETATM   12  C   UNK N   1      34.929  12.790  12.582  0.00  0.00     0.253 C 
BRANCH  12  13
HETATM   13  C   UNK N   1      35.677  14.043  12.236  0.00  0.00     0.239 C 
HETATM   14  N   UNK N   1      35.839  14.397  10.936  0.00  0.00    -0.348 N 
HETATM   15  C   UNK N   1      35.270  13.585   9.893  0.00  0.00     0.145 C 
HETATM   16  C   UNK N   1      36.198  15.749  10.596  0.00  0.00     0.145 C 
HETATM   17  C   UNK N   1      33.923  14.212   9.587  0.00  0.00     0.143 C 
HETATM   18  N   UNK N   1      34.119  15.625   9.310  0.00  0.00    -0.378 N 
HETATM   19  C   UNK N   1      34.885  16.447  10.239  0.00  0.00     0.143 C 
HETATM   20  O   UNK N   1      36.007  14.810  13.127  0.00  0.00    -0.271 OA
BRANCH  18  21
HETATM   21  C   UNK N   1      33.609  16.177   8.110  0.00  0.00     0.033 A 
HETATM   22  C   UNK N   1      32.244  16.474   8.000  0.00  0.00     0.067 A 
HETATM   23  C   UNK N   1      31.720  17.010   6.818  0.00  0.00     0.092 A 
HETATM   24  C   UNK N   1      32.579  17.240   5.732  0.00  0.00     0.067 A 
HETATM   25  C   UNK N   1      33.944  16.955   5.841  0.00  0.00     0.029 A 
HETATM   26 Cl   UNK N   1      31.965  17.885   4.225  0.00  0.00    -0.081 Cl
HETATM   27  C   UNK N   1      34.457  16.431   7.026  0.00  0.00     0.031 A 
BRANCH  23  28
HETATM   28  O   UNK N   1      30.402  17.309   6.710  0.00  0.00    -0.354 OA
HETATM   29  C   UNK N   1      29.583  17.509   7.800  0.00  0.00     0.210 C 
ENDBRANCH  23  28
ENDBRANCH  18  21
ENDBRANCH  12  13
ENDBRANCH   1  12
BRANCH   9  30
HETATM   30  C   UNK N   1      35.367  12.123  17.400  0.00  0.00     0.134 A 
HETATM   31  N   UNK N   1      35.217  13.352  17.925  0.00  0.00    -0.349 N 
HETATM   32  C   UNK N   1      35.133  13.161  19.253  0.00  0.00     0.107 A 
HETATM   33  H   UNK N   1      35.177  14.208  17.439  0.00  0.00     0.167 HD
HETATM   34  C   UNK N   1      35.242  11.807  19.509  0.00  0.00     0.107 A 
HETATM   35  N   UNK N   1      35.388  11.161  18.338  0.00  0.00    -0.349 N 
ATOM     36  HN  UNK N   1      35.493  10.157  18.192  1.00  0.00     0.167 HD
ENDBRANCH   9  30
TORSDOF 5
ENDMDL
MODEL 6
REMARK VINA RESULT:      -7.8      4.002     10.121
REMARK  5 active torsions:
REMARK  status: ('A' for Active; 'I' for Inactive)
REMARK    1  A    between atoms: O_2  and  C_3 
REMARK    2  A    between atoms: C_5  and  N_10 
REMARK       I    between atoms: N_13  and  C_16 
REMARK    3  A    between atoms: C_16  and  C_18 
REMARK    4  A    between atoms: C_18  and  N_19 
REMARK    5  A    between atoms: C_27  and  C_30 
ROOT
HETATM    1  N   UNK N   1      34.843  13.941  10.251  0.00  0.00    -0.266 N 
HETATM    2  C   UNK N   1      36.036  13.365  10.021  0.00  0.00     0.135 A 
HETATM    3  C   UNK N   1      36.677  13.163  11.202  0.00  0.00     0.041 A 
HETATM    4  C   UNK N   1      37.947  12.600  11.239  0.00  0.00     0.019 A 
HETATM    5  C   UNK N   1      38.530  12.245  10.007  0.00  0.00     0.018 A 
HETATM    6  C   UNK N   1      37.826  12.474   8.801  0.00  0.00     0.090 A 
HETATM    7  N   UNK N   1      36.583  13.039   8.825  0.00  0.00    -0.350 N 
ATOM      8  HN  UNK N   1      36.075  13.215   7.958  1.00  0.00     0.166 HD
HETATM    9  C   UNK N   1      35.818  13.651  12.169  0.00  0.00     0.106 A 
HETATM   10  N   UNK N   1      34.702  14.118  11.558  0.00  0.00    -0.292 N 
ATOM     11  HN  UNK N   1      33.894  14.531  12.021  1.00  0.00     0.187 HD
ENDROOT
BRANCH   1  12
HETATM   12  C   UNK N   1      33.866  14.436   9.296  0.00  0.00     0.253 C 
BRANCH  12  13
HETATM   13  C   UNK N   1      33.892  15.919   9.081  0.00  0.00     0.239 C 
HETATM   14  N   UNK N   1      33.387  16.446   7.937  0.00  0.00    -0.348 N 
HETATM   15  C   UNK N   1      32.803  15.583   6.945  0.00  0.00     0.145 C 
HETATM   16  C   UNK N   1      33.051  17.845   7.874  0.00  0.00     0.145 C 
HETATM   17  C   UNK N   1      31.317  15.575   7.246  0.00  0.00     0.143 C 
HETATM   18  N   UNK N   1      30.846  16.949   7.306  0.00  0.00    -0.378 N 
HETATM   19  C   UNK N   1      31.547  17.921   8.138  0.00  0.00     0.143 C 
HETATM   20  O   UNK N   1      34.232  16.653   9.997  0.00  0.00    -0.271 OA
BRANCH  18  21
HETATM   21  C   UNK N   1      29.740  17.342   6.513  0.00  0.00     0.033 A 
HETATM   22  C   UNK N   1      28.950  18.431   6.904  0.00  0.00     0.067 A 
HETATM   23  C   UNK N   1      27.847  18.828   6.139  0.00  0.00     0.092 A 
HETATM   24  C   UNK N   1      27.531  18.112   4.973  0.00  0.00     0.067 A 
HETATM   25  C   UNK N   1      28.324  17.031   4.574  0.00  0.00     0.029 A 
HETATM   26 Cl   UNK N   1      26.147  18.555   3.997  0.00  0.00    -0.081 Cl
HETATM   27  C   UNK N   1      29.426  16.652   5.337  0.00  0.00     0.031 A 
BRANCH  23  28
HETATM   28  O   UNK N   1      27.085  19.887   6.507  0.00  0.00    -0.354 OA
HETATM   29  C   UNK N   1      27.392  21.187   6.172  0.00  0.00     0.210 C 
ENDBRANCH  23  28
ENDBRANCH  18  21
ENDBRANCH  12  13
ENDBRANCH   1  12
BRANCH   9  30
HETATM   30  C   UNK N   1      36.044  13.743  13.612  0.00  0.00     0.134 A 
HETATM   31  N   UNK N   1      36.866  14.646  14.174  0.00  0.00    -0.349 N 
HETATM   32  C   UNK N   1      36.839  14.377  15.491  0.00  0.00     0.107 A 
HETATM   33  H   UNK N   1      37.378  15.354  13.718  0.00  0.00     0.167 HD
HETATM   34  C   UNK N   1      35.997  13.301  15.701  0.00  0.00     0.107 A 
HETATM   35  N   UNK N   1      35.500  12.909  14.514  0.00  0.00    -0.349 N 
ATOM     36  HN  UNK N   1      34.851  12.142  14.337  1.00  0.00     0.167 HD
ENDBRANCH   9  30
TORSDOF 5
ENDMDL
MODEL 7
REMARK VINA RESULT:      -7.8      6.188      9.613
REMARK  5 active torsions:
REMARK  status: ('A' for Active; 'I' for Inactive)
REMARK    1  A    between atoms: O_2  and  C_3 
REMARK    2  A    between atoms: C_5  and  N_10 
REMARK       I    between atoms: N_13  and  C_16 
REMARK    3  A    between atoms: C_16  and  C_18 
REMARK    4  A    between atoms: C_18  and  N_19 
REMARK    5  A    between atoms: C_27  and  C_30 
ROOT
HETATM    1  N   UNK N   1      23.737  18.877   4.497  0.00  0.00    -0.266 N 
HETATM    2  C   UNK N   1      22.657  19.254   3.790  0.00  0.00     0.135 A 
HETATM    3  C   UNK N   1      21.562  18.593   4.248  0.00  0.00     0.041 A 
HETATM    4  C   UNK N   1      20.315  18.786   3.666  0.00  0.00     0.019 A 
HETATM    5  C   UNK N   1      20.239  19.696   2.595  0.00  0.00     0.018 A 
HETATM    6  C   UNK N   1      21.405  20.362   2.150  0.00  0.00     0.090 A 
HETATM    7  N   UNK N   1      22.606  20.126   2.755  0.00  0.00    -0.350 N 
ATOM      8  HN  UNK N   1      23.452  20.597   2.432  1.00  0.00     0.166 HD
HETATM    9  C   UNK N   1      22.027  17.785   5.269  0.00  0.00     0.106 A 
HETATM   10  N   UNK N   1      23.361  17.983   5.401  0.00  0.00    -0.292 N 
ATOM     11  HN  UNK N   1      23.970  17.525   6.079  1.00  0.00     0.187 HD
ENDROOT
BRANCH   1  12
HETATM   12  C   UNK N   1      25.131  19.234   4.299  0.00  0.00     0.253 C 
BRANCH  12  13
HETATM   13  C   UNK N   1      25.986  18.140   3.731  0.00  0.00     0.239 C 
HETATM   14  N   UNK N   1      27.337  18.218   3.827  0.00  0.00    -0.348 N 
HETATM   15  C   UNK N   1      27.947  19.336   4.498  0.00  0.00     0.145 C 
HETATM   16  C   UNK N   1      28.142  17.038   3.648  0.00  0.00     0.145 C 
HETATM   17  C   UNK N   1      28.168  18.873   5.925  0.00  0.00     0.143 C 
HETATM   18  N   UNK N   1      28.903  17.620   5.900  0.00  0.00    -0.378 N 
HETATM   19  C   UNK N   1      28.439  16.523   5.057  0.00  0.00     0.143 C 
HETATM   20  O   UNK N   1      25.457  17.120   3.317  0.00  0.00    -0.271 OA
BRANCH  18  21
HETATM   21  C   UNK N   1      30.094  17.494   6.656  0.00  0.00     0.033 A 
HETATM   22  C   UNK N   1      31.289  17.124   6.025  0.00  0.00     0.067 A 
HETATM   23  C   UNK N   1      32.473  16.984   6.757  0.00  0.00     0.092 A 
HETATM   24  C   UNK N   1      32.450  17.210   8.143  0.00  0.00     0.067 A 
HETATM   25  C   UNK N   1      31.262  17.589   8.775  0.00  0.00     0.029 A 
HETATM   26 Cl   UNK N   1      33.901  17.022   9.105  0.00  0.00    -0.081 Cl
HETATM   27  C   UNK N   1      30.091  17.736   8.035  0.00  0.00     0.031 A 
BRANCH  23  28
HETATM   28  O   UNK N   1      33.634  16.636   6.150  0.00  0.00    -0.354 OA
HETATM   29  C   UNK N   1      33.690  16.106   4.880  0.00  0.00     0.210 C 
ENDBRANCH  23  28
ENDBRANCH  18  21
ENDBRANCH  12  13
ENDBRANCH   1  12
BRANCH   9  30
HETATM   30  C   UNK N   1      21.275  16.810   6.062  0.00  0.00     0.134 A 
HETATM   31  N   UNK N   1      20.747  17.089   7.267  0.00  0.00    -0.349 N 
HETATM   32  C   UNK N   1      20.190  15.938   7.682  0.00  0.00     0.107 A 
HETATM   33  H   UNK N   1      20.765  17.952   7.742  0.00  0.00     0.167 HD
HETATM   34  C   UNK N   1      20.399  14.975   6.714  0.00  0.00     0.107 A 
HETATM   35  N   UNK N   1      21.083  15.532   5.697  0.00  0.00    -0.349 N 
ATOM     36  HN  UNK N   1      21.389  15.080   4.836  1.00  0.00     0.167 HD
ENDBRANCH   9  30
TORSDOF 5
ENDMDL
MODEL 8
REMARK VINA RESULT:      -7.8      4.144      7.066
REMARK  5 active torsions:
REMARK  status: ('A' for Active; 'I' for Inactive)
REMARK    1  A    between atoms: O_2  and  C_3 
REMARK    2  A    between atoms: C_5  and  N_10 
REMARK       I    between atoms: N_13  and  C_16 
REMARK    3  A    between atoms: C_16  and  C_18 
REMARK    4  A    between atoms: C_18  and  N_19 
REMARK    5  A    between atoms: C_27  and  C_30 
ROOT
HETATM    1  N   UNK N   1      26.891  18.276   4.818  0.00  0.00    -0.266 N 
HETATM    2  C   UNK N   1      26.679  17.270   3.952  0.00  0.00     0.135 A 
HETATM    3  C   UNK N   1      25.343  17.102   3.771  0.00  0.00     0.041 A 
HETATM    4  C   UNK N   1      24.854  16.104   2.937  0.00  0.00     0.019 A 
HETATM    5  C   UNK N   1      25.800  15.288   2.288  0.00  0.00     0.018 A 
HETATM    6  C   UNK N   1      27.182  15.498   2.505  0.00  0.00     0.090 A 
HETATM    7  N   UNK N   1      27.605  16.490   3.344  0.00  0.00    -0.350 N 
ATOM      8  HN  UNK N   1      28.600  16.640   3.511  1.00  0.00     0.166 HD
HETATM    9  C   UNK N   1      24.746  18.053   4.576  0.00  0.00     0.106 A 
HETATM   10  N   UNK N   1      25.718  18.760   5.203  0.00  0.00    -0.292 N 
ATOM     11  HN  UNK N   1      25.573  19.530   5.854  1.00  0.00     0.187 HD
ENDROOT
BRANCH   1  12
HETATM   12  C   UNK N   1      28.143  18.743   5.390  0.00  0.00     0.253 C 
BRANCH  12  13
HETATM   13  C   UNK N   1      28.215  18.673   6.886  0.00  0.00     0.239 C 
HETATM   14  N   UNK N   1      28.863  17.643   7.485  0.00  0.00    -0.348 N 
HETATM   15  C   UNK N   1      29.505  16.634   6.683  0.00  0.00     0.145 C 
HETATM   16  C   UNK N   1      29.275  17.751   8.861  0.00  0.00     0.145 C 
HETATM   17  C   UNK N   1      30.948  17.081   6.558  0.00  0.00     0.143 C 
HETATM   18  N   UNK N   1      31.479  17.322   7.889  0.00  0.00    -0.378 N 
HETATM   19  C   UNK N   1      30.745  18.170   8.820  0.00  0.00     0.143 C 
HETATM   20  O   UNK N   1      27.817  19.618   7.551  0.00  0.00    -0.271 OA
BRANCH  18  21
HETATM   21  C   UNK N   1      32.681  16.686   8.286  0.00  0.00     0.033 A 
HETATM   22  C   UNK N   1      32.843  15.308   8.090  0.00  0.00     0.067 A 
HETATM   23  C   UNK N   1      34.019  14.661   8.487  0.00  0.00     0.092 A 
HETATM   24  C   UNK N   1      35.038  15.409   9.096  0.00  0.00     0.067 A 
HETATM   25  C   UNK N   1      34.885  16.786   9.284  0.00  0.00     0.029 A 
HETATM   26 Cl   UNK N   1      36.516  14.639   9.632  0.00  0.00    -0.081 Cl
HETATM   27  C   UNK N   1      33.715  17.423   8.876  0.00  0.00     0.031 A 
BRANCH  23  28
HETATM   28  O   UNK N   1      34.184  13.330   8.290  0.00  0.00    -0.354 OA
HETATM   29  C   UNK N   1      33.496  12.372   9.002  0.00  0.00     0.210 C 
ENDBRANCH  23  28
ENDBRANCH  18  21
ENDBRANCH  12  13
ENDBRANCH   1  12
BRANCH   9  30
HETATM   30  C   UNK N   1      23.316  18.267   4.813  0.00  0.00     0.134 A 
HETATM   31  N   UNK N   1      22.693  17.899   5.947  0.00  0.00    -0.349 N 
HETATM   32  C   UNK N   1      21.401  18.216   5.757  0.00  0.00     0.107 A 
HETATM   33  H   UNK N   1      23.098  17.487   6.744  0.00  0.00     0.167 HD
HETATM   34  C   UNK N   1      21.265  18.768   4.498  0.00  0.00     0.107 A 
HETATM   35  N   UNK N   1      22.475  18.797   3.910  0.00  0.00    -0.349 N 
ATOM     36  HN  UNK N   1      22.704  19.146   2.980  1.00  0.00     0.167 HD
ENDBRANCH   9  30
TORSDOF 5
ENDMDL
MODEL 9
REMARK VINA RESULT:      -7.8      2.222      4.095
REMARK  5 active torsions:
REMARK  status: ('A' for Active; 'I' for Inactive)
REMARK    1  A    between atoms: O_2  and  C_3 
REMARK    2  A    between atoms: C_5  and  N_10 
REMARK       I    between atoms: N_13  and  C_16 
REMARK    3  A    between atoms: C_16  and  C_18 
REMARK    4  A    between atoms: C_18  and  N_19 
REMARK    5  A    between atoms: C_27  and  C_30 
ROOT
HETATM    1  N   UNK N   1      34.030  15.955   8.989  0.00  0.00    -0.266 N 
HETATM    2  C   UNK N   1      33.979  16.006   7.646  0.00  0.00     0.135 A 
HETATM    3  C   UNK N   1      32.801  16.563   7.258  0.00  0.00     0.041 A 
HETATM    4  C   UNK N   1      32.488  16.709   5.913  0.00  0.00     0.019 A 
HETATM    5  C   UNK N   1      33.442  16.264   4.978  0.00  0.00     0.018 A 
HETATM    6  C   UNK N   1      34.655  15.690   5.427  0.00  0.00     0.090 A 
HETATM    7  N   UNK N   1      34.906  15.564   6.763  0.00  0.00    -0.350 N 
ATOM      8  HN  UNK N   1      35.775  15.143   7.092  1.00  0.00     0.166 HD
HETATM    9  C   UNK N   1      32.129  16.845   8.433  0.00  0.00     0.106 A 
HETATM   10  N   UNK N   1      32.907  16.466   9.477  0.00  0.00    -0.292 N 
ATOM     11  HN  UNK N   1      32.671  16.558  10.464  1.00  0.00     0.187 HD
ENDROOT
BRANCH   1  12
HETATM   12  C   UNK N   1      35.038  15.352   9.844  0.00  0.00     0.253 C 
BRANCH  12  13
HETATM   13  C   UNK N   1      35.014  13.854   9.883  0.00  0.00     0.239 C 
HETATM   14  N   UNK N   1      35.753  13.189  10.808  0.00  0.00    -0.348 N 
HETATM   15  C   UNK N   1      36.534  13.924  11.767  0.00  0.00     0.145 C 
HETATM   16  C   UNK N   1      35.456  11.814  11.115  0.00  0.00     0.145 C 
HETATM   17  C   UNK N   1      35.652  14.047  12.993  0.00  0.00     0.143 C 
HETATM   18  N   UNK N   1      35.193  12.721  13.372  0.00  0.00    -0.378 N 
HETATM   19  C   UNK N   1      34.587  11.849  12.372  0.00  0.00     0.143 C 
HETATM   20  O   UNK N   1      34.220  13.247   9.180  0.00  0.00    -0.271 OA
BRANCH  18  21
HETATM   21  C   UNK N   1      35.388  12.268  14.700  0.00  0.00     0.033 A 
HETATM   22  C   UNK N   1      36.017  11.039  14.936  0.00  0.00     0.067 A 
HETATM   23  C   UNK N   1      36.209  10.569  16.240  0.00  0.00     0.092 A 
HETATM   24  C   UNK N   1      35.752  11.344  17.319  0.00  0.00     0.067 A 
HETATM   25  C   UNK N   1      35.134  12.576  17.088  0.00  0.00     0.029 A 
HETATM   26 Cl   UNK N   1      35.947  10.787  18.967  0.00  0.00    -0.081 Cl
HETATM   27  C   UNK N   1      34.957  13.039  15.786  0.00  0.00     0.031 A 
BRANCH  23  28
HETATM   28  O   UNK N   1      36.826   9.385  16.474  0.00  0.00    -0.354 OA
HETATM   29  C   UNK N   1      37.892   8.931  15.729  0.00  0.00     0.210 C 
ENDBRANCH  23  28
ENDBRANCH  18  21
ENDBRANCH  12  13
ENDBRANCH   1  12
BRANCH   9  30
HETATM   30  C   UNK N   1      30.780  17.392   8.593  0.00  0.00     0.134 A 
HETATM   31  N   UNK N   1      30.456  18.291   9.539  0.00  0.00    -0.349 N 
HETATM   32  C   UNK N   1      29.136  18.499   9.389  0.00  0.00     0.107 A 
HETATM   33  H   UNK N   1      31.056  18.707  10.199  0.00  0.00     0.167 HD
HETATM   34  C   UNK N   1      28.683  17.710   8.349  0.00  0.00     0.107 A 
HETATM   35  N   UNK N   1      29.724  17.017   7.853  0.00  0.00    -0.349 N 
ATOM     36  HN  UNK N   1      29.713  16.349   7.082  1.00  0.00     0.167 HD
ENDBRANCH   9  30
TORSDOF 5
ENDMDL
