REMARK  18 active torsions:
REMARK  status: ('A' for Active; 'I' for Inactive)
REMARK    1  A    between atoms: C_2  and  C_3 
REMARK    2  A    between atoms: C_4  and  C_5 
REMARK    3  A    between atoms: C_5  and  C_6 
REMARK    4  A    between atoms: C_7  and  C_8 
REMARK    5  A    between atoms: C_8  and  C_9 
REMARK    6  A    between atoms: C_10  and  C_11 
REMARK    7  A    between atoms: C_11  and  C_12 
REMARK    8  A    between atoms: C_13  and  C_14 
REMARK    9  A    between atoms: C_14  and  C_15 
REMARK   10  A    between atoms: C_16  and  C_17 
REMARK   11  A    between atoms: C_17  and  C_18 
REMARK   12  A    between atoms: C_18  and  C_19 
REMARK   13  A    between atoms: C_19  and  C_20 
REMARK   14  A    between atoms: C_20  and  O_21 
REMARK   15  A    between atoms: O_21  and  C_22 
REMARK   16  A    between atoms: C_22  and  C_23 
REMARK   17  A    between atoms: C_22  and  C_25 
REMARK   18  A    between atoms: C_25  and  O_27 
ROOT
HETATM    1  C   UNK N   1      -0.941  -0.798  -0.434  0.00  0.00     0.053 C 
ENDROOT
BRANCH   1   2
HETATM    2  C   UNK N   1      -1.171   0.613  -0.870  0.00  0.00    -0.027 C 
HETATM    3  C   UNK N   1      -0.408   1.639  -0.465  0.00  0.00    -0.027 C 
BRANCH   3   4
HETATM    4  C   UNK N   1       0.701   1.539   0.549  0.00  0.00     0.053 C 
BRANCH   4   5
HETATM    5  C   UNK N   1       1.694   0.468   0.239  0.00  0.00    -0.027 C 
HETATM    6  C   UNK N   1       2.125  -0.324   1.224  0.00  0.00    -0.027 C 
BRANCH   6   7
HETATM    7  C   UNK N   1       3.093  -1.443   0.981  0.00  0.00     0.053 C 
BRANCH   7   8
HETATM    8  C   UNK N   1       4.265  -0.955   0.202  0.00  0.00    -0.027 C 
HETATM    9  C   UNK N   1       5.432  -0.725   0.796  0.00  0.00    -0.027 C 
BRANCH   9  10
HETATM   10  C   UNK N   1       6.561  -0.116   0.022  0.00  0.00     0.053 C 
BRANCH  10  11
HETATM   11  C   UNK N   1       6.140   1.182  -0.609  0.00  0.00    -0.027 C 
HETATM   12  C   UNK N   1       5.581   2.149   0.122  0.00  0.00    -0.031 C 
BRANCH  12  13
HETATM   13  C   UNK N   1       5.126   3.412  -0.518  0.00  0.00     0.022 C 
HETATM   14  C   UNK N   1       5.717   4.593   0.221  0.00  0.00     0.009 C 
ENDBRANCH  12  13
ENDBRANCH  10  11
ENDBRANCH   9  10
ENDBRANCH   7   8
ENDBRANCH   6   7
ENDBRANCH   4   5
ENDBRANCH   3   4
ENDBRANCH   1   2
BRANCH   1  15
HETATM   15  C   UNK N   1      -2.099  -1.336   0.346  0.00  0.00    -0.027 C 
HETATM   16  C   UNK N   1      -2.202  -2.642   0.620  0.00  0.00    -0.030 C 
BRANCH  16  17
HETATM   17  C   UNK N   1      -1.188  -3.622   0.120  0.00  0.00     0.027 C 
BRANCH  17  18
HETATM   18  C   UNK N   1      -1.478  -5.026   0.610  0.00  0.00     0.006 C 
BRANCH  18  19
HETATM   19  C   UNK N   1      -0.480  -5.989  -0.013  0.00  0.00     0.027 C 
BRANCH  19  20
HETATM   20  C   UNK N   1       0.876  -5.891   0.667  0.00  0.00     0.168 C 
BRANCH  20  21
HETATM   21  O   UNK N   1       1.881  -6.110  -0.280  0.00  0.00    -0.375 OA
BRANCH  21  22
HETATM   22  C   UNK N   1       2.832  -5.104  -0.070  0.00  0.00     0.218 C 
BRANCH  22  23
HETATM   23  C   UNK N   1       4.227  -5.708  -0.215  0.00  0.00     0.038 C 
HETATM   24  C   UNK N   1       5.298  -4.741   0.259  0.00  0.00     0.008 C 
ENDBRANCH  22  23
BRANCH  22  25
HETATM   25  C   UNK N   1       2.588  -3.952  -1.016  0.00  0.00     0.170 C 
HETATM   26  O   UNK N   1       1.541  -3.333  -0.954  0.00  0.00    -0.648 OA
BRANCH  25  27
HETATM   27  O   UNK N   1       3.521  -3.583  -1.916  0.00  0.00    -0.774 OA
HETATM   28  H   UNK N   1       4.067  -4.017  -2.542  0.00  0.00     0.167 HD
ENDBRANCH  25  27
ENDBRANCH  22  25
ENDBRANCH  21  22
ENDBRANCH  20  21
ENDBRANCH  19  20
ENDBRANCH  18  19
ENDBRANCH  17  18
ENDBRANCH  16  17
ENDBRANCH   1  15
TORSDOF 18
