MODEL 1
REMARK VINA RESULT:      -7.4      0.000      0.000
REMARK  2 active torsions:
REMARK  status: ('A' for Active; 'I' for Inactive)
REMARK    1  A    between atoms: C_13  and  O_20 
REMARK    2  A    between atoms: C_14  and  O_19 
ROOT
HETATM    1  C   UNK N   1      25.408  24.636  -5.294  0.00  0.00     0.001 A 
HETATM    2  C   UNK N   1      26.530  24.824  -4.486  0.00  0.00     0.001 A 
HETATM    3  C   UNK N   1      27.714  24.142  -4.768  0.00  0.00     0.008 A 
HETATM    4  C   UNK N   1      27.791  23.250  -5.848  0.00  0.00    -0.040 A 
HETATM    5  C   UNK N   1      26.657  23.083  -6.676  0.00  0.00    -0.034 A 
HETATM    6  C   UNK N   1      25.474  23.772  -6.390  0.00  0.00     0.009 A 
HETATM    7  C   UNK N   1      26.700  22.179  -7.880  0.00  0.00     0.153 C 
HETATM    8  N   UNK N   1      28.069  21.887  -8.312  0.00  0.00    -0.412 N 
HETATM    9  C   UNK N   1      28.829  21.378  -7.178  0.00  0.00     0.090 C 
HETATM   10  C   UNK N   1      29.082  22.514  -6.180  0.00  0.00     0.075 C 
HETATM   11  C   UNK N   1      30.003  22.080  -5.045  0.00  0.00    -0.038 A 
HETATM   12  C   UNK N   1      30.042  22.793  -3.838  0.00  0.00     0.047 A 
HETATM   13  C   UNK N   1      30.913  22.429  -2.814  0.00  0.00     0.099 A 
HETATM   14  C   UNK N   1      31.776  21.343  -2.986  0.00  0.00     0.099 A 
HETATM   15  C   UNK N   1      31.759  20.625  -4.186  0.00  0.00     0.047 A 
HETATM   16  C   UNK N   1      30.887  20.985  -5.219  0.00  0.00    -0.048 A 
HETATM   17  C   UNK N   1      30.928  20.186  -6.495  0.00  0.00     0.041 C 
HETATM   18  C   UNK N   1      30.156  20.817  -7.654  0.00  0.00     0.030 C 
HETATM   19  H   UNK N   1      28.431  22.018  -9.256  0.00  0.00     0.153 HD
ENDROOT
BRANCH  13  20
HETATM   20  O   UNK N   1      30.918  23.128  -1.665  0.00  0.00    -0.358 OA
HETATM   21  H   UNK N   1      31.630  23.033  -1.063  0.00  0.00     0.217 HD
ENDBRANCH  13  20
BRANCH  14  22
HETATM   22  O   UNK N   1      32.626  20.989  -2.008  0.00  0.00    -0.358 OA
HETATM   23  H   UNK N   1      33.347  21.540  -1.774  0.00  0.00     0.217 HD
ENDBRANCH  14  22
TORSDOF 2
ENDMDL
MODEL 2
REMARK VINA RESULT:      -7.3     21.668     24.565
REMARK  2 active torsions:
REMARK  status: ('A' for Active; 'I' for Inactive)
REMARK    1  A    between atoms: C_13  and  O_20 
REMARK    2  A    between atoms: C_14  and  O_19 
ROOT
HETATM    1  C   UNK N   1      35.254  13.062  19.564  0.00  0.00     0.001 A 
HETATM    2  C   UNK N   1      35.130  13.840  18.411  0.00  0.00     0.001 A 
HETATM    3  C   UNK N   1      35.150  13.231  17.156  0.00  0.00     0.008 A 
HETATM    4  C   UNK N   1      35.312  11.843  17.031  0.00  0.00    -0.040 A 
HETATM    5  C   UNK N   1      35.413  11.061  18.204  0.00  0.00    -0.034 A 
HETATM    6  C   UNK N   1      35.389  11.677  19.460  0.00  0.00     0.009 A 
HETATM    7  C   UNK N   1      35.535   9.561  18.131  0.00  0.00     0.153 C 
HETATM    8  N   UNK N   1      35.106   9.027  16.836  0.00  0.00    -0.412 N 
HETATM    9  C   UNK N   1      35.824   9.719  15.773  0.00  0.00     0.090 C 
HETATM   10  C   UNK N   1      35.316  11.163  15.668  0.00  0.00     0.075 C 
HETATM   11  C   UNK N   1      35.921  11.893  14.475  0.00  0.00    -0.038 A 
HETATM   12  C   UNK N   1      35.927  13.295  14.417  0.00  0.00     0.047 A 
HETATM   13  C   UNK N   1      36.437  13.968  13.310  0.00  0.00     0.099 A 
HETATM   14  C   UNK N   1      36.942  13.245  12.226  0.00  0.00     0.099 A 
HETATM   15  C   UNK N   1      36.937  11.847  12.260  0.00  0.00     0.047 A 
HETATM   16  C   UNK N   1      36.425  11.164  13.369  0.00  0.00    -0.048 A 
HETATM   17  C   UNK N   1      36.428   9.658  13.340  0.00  0.00     0.041 C 
HETATM   18  C   UNK N   1      35.604   9.009  14.451  0.00  0.00     0.030 C 
HETATM   19  H   UNK N   1      34.416   8.289  16.700  0.00  0.00     0.153 HD
ENDROOT
BRANCH  13  20
HETATM   20  O   UNK N   1      36.437  15.312  13.291  0.00  0.00    -0.358 OA
HETATM   21  H   UNK N   1      36.009  15.791  13.974  0.00  0.00     0.217 HD
ENDBRANCH  13  20
BRANCH  14  22
HETATM   22  O   UNK N   1      37.429  13.884  11.149  0.00  0.00    -0.358 OA
HETATM   23  H   UNK N   1      37.325  13.527  10.290  0.00  0.00     0.217 HD
ENDBRANCH  14  22
TORSDOF 2
ENDMDL
MODEL 3
REMARK VINA RESULT:      -7.2     10.961     12.589
REMARK  2 active torsions:
REMARK  status: ('A' for Active; 'I' for Inactive)
REMARK    1  A    between atoms: C_13  and  O_20 
REMARK    2  A    between atoms: C_14  and  O_19 
ROOT
HETATM    1  C   UNK N   1      26.097  16.107   3.006  0.00  0.00     0.001 A 
HETATM    2  C   UNK N   1      25.980  16.871   4.169  0.00  0.00     0.001 A 
HETATM    3  C   UNK N   1      27.127  17.307   4.833  0.00  0.00     0.008 A 
HETATM    4  C   UNK N   1      28.405  16.974   4.359  0.00  0.00    -0.040 A 
HETATM    5  C   UNK N   1      28.514  16.221   3.167  0.00  0.00    -0.034 A 
HETATM    6  C   UNK N   1      27.360  15.789   2.504  0.00  0.00     0.009 A 
HETATM    7  C   UNK N   1      29.860  15.880   2.584  0.00  0.00     0.153 C 
HETATM    8  N   UNK N   1      30.928  16.741   3.098  0.00  0.00    -0.412 N 
HETATM    9  C   UNK N   1      30.904  16.711   4.554  0.00  0.00     0.090 C 
HETATM   10  C   UNK N   1      29.665  17.460   5.062  0.00  0.00     0.075 C 
HETATM   11  C   UNK N   1      29.664  17.595   6.580  0.00  0.00    -0.038 A 
HETATM   12  C   UNK N   1      28.477  17.865   7.277  0.00  0.00     0.047 A 
HETATM   13  C   UNK N   1      28.476  18.033   8.660  0.00  0.00     0.099 A 
HETATM   14  C   UNK N   1      29.674  17.948   9.373  0.00  0.00     0.099 A 
HETATM   15  C   UNK N   1      30.870  17.688   8.696  0.00  0.00     0.047 A 
HETATM   16  C   UNK N   1      30.879  17.518   7.307  0.00  0.00    -0.048 A 
HETATM   17  C   UNK N   1      32.200  17.261   6.630  0.00  0.00     0.041 C 
HETATM   18  C   UNK N   1      32.154  17.369   5.107  0.00  0.00     0.030 C 
HETATM   19  H   UNK N   1      31.583  17.274   2.528  0.00  0.00     0.153 HD
ENDROOT
BRANCH  13  20
HETATM   20  O   UNK N   1      27.319  18.281   9.298  0.00  0.00    -0.358 OA
HETATM   21  H   UNK N   1      26.727  18.925   8.962  0.00  0.00     0.217 HD
ENDBRANCH  13  20
BRANCH  14  22
HETATM   22  O   UNK N   1      29.686  18.117  10.706  0.00  0.00    -0.358 OA
HETATM   23  H   UNK N   1      30.479  18.028  11.195  0.00  0.00     0.217 HD
ENDBRANCH  14  22
TORSDOF 2
ENDMDL
MODEL 4
REMARK VINA RESULT:      -7.1     11.610     13.131
REMARK  2 active torsions:
REMARK  status: ('A' for Active; 'I' for Inactive)
REMARK    1  A    between atoms: C_13  and  O_20 
REMARK    2  A    between atoms: C_14  and  O_19 
ROOT
HETATM    1  C   UNK N   1      26.999  19.962   3.445  0.00  0.00     0.001 A 
HETATM    2  C   UNK N   1      25.752  20.571   3.294  0.00  0.00     0.001 A 
HETATM    3  C   UNK N   1      24.604  19.934   3.766  0.00  0.00     0.008 A 
HETATM    4  C   UNK N   1      24.680  18.674   4.378  0.00  0.00    -0.040 A 
HETATM    5  C   UNK N   1      25.949  18.075   4.549  0.00  0.00    -0.034 A 
HETATM    6  C   UNK N   1      27.097  18.720   4.077  0.00  0.00     0.009 A 
HETATM    7  C   UNK N   1      26.095  16.748   5.247  0.00  0.00     0.153 C 
HETATM    8  N   UNK N   1      24.925  16.412   6.062  0.00  0.00    -0.412 N 
HETATM    9  C   UNK N   1      23.727  16.504   5.237  0.00  0.00     0.090 C 
HETATM   10  C   UNK N   1      23.438  17.976   4.916  0.00  0.00     0.075 C 
HETATM   11  C   UNK N   1      22.113  18.148   4.183  0.00  0.00    -0.038 A 
HETATM   12  C   UNK N   1      21.844  19.311   3.447  0.00  0.00     0.047 A 
HETATM   13  C   UNK N   1      20.619  19.495   2.811  0.00  0.00     0.099 A 
HETATM   14  C   UNK N   1      19.627  18.516   2.914  0.00  0.00     0.099 A 
HETATM   15  C   UNK N   1      19.871  17.354   3.651  0.00  0.00     0.047 A 
HETATM   16  C   UNK N   1      21.100  17.162   4.292  0.00  0.00    -0.048 A 
HETATM   17  C   UNK N   1      21.298  15.899   5.088  0.00  0.00     0.041 C 
HETATM   18  C   UNK N   1      22.544  15.905   5.973  0.00  0.00     0.030 C 
HETATM   19  H   UNK N   1      24.946  16.155   7.048  0.00  0.00     0.153 HD
ENDROOT
BRANCH  13  20
HETATM   20  O   UNK N   1      20.398  20.617   2.105  0.00  0.00    -0.358 OA
HETATM   21  H   UNK N   1      21.114  21.180   1.882  0.00  0.00     0.217 HD
ENDBRANCH  13  20
BRANCH  14  22
HETATM   22  O   UNK N   1      18.438  18.687   2.312  0.00  0.00    -0.358 OA
HETATM   23  H   UNK N   1      17.974  17.960   1.948  0.00  0.00     0.217 HD
ENDBRANCH  14  22
TORSDOF 2
ENDMDL
MODEL 5
REMARK VINA RESULT:      -7.0     21.925     24.741
REMARK  2 active torsions:
REMARK  status: ('A' for Active; 'I' for Inactive)
REMARK    1  A    between atoms: C_13  and  O_20 
REMARK    2  A    between atoms: C_14  and  O_19 
ROOT
HETATM    1  C   UNK N   1      35.453  13.521  11.940  0.00  0.00     0.001 A 
HETATM    2  C   UNK N   1      35.764  14.188  13.127  0.00  0.00     0.001 A 
HETATM    3  C   UNK N   1      35.950  13.463  14.304  0.00  0.00     0.008 A 
HETATM    4  C   UNK N   1      35.811  12.067  14.320  0.00  0.00    -0.040 A 
HETATM    5  C   UNK N   1      35.519  11.398  13.109  0.00  0.00    -0.034 A 
HETATM    6  C   UNK N   1      35.337  12.130  11.931  0.00  0.00     0.009 A 
HETATM    7  C   UNK N   1      35.412   9.896  13.057  0.00  0.00     0.153 C 
HETATM    8  N   UNK N   1      36.047   9.249  14.208  0.00  0.00    -0.412 N 
HETATM    9  C   UNK N   1      35.513   9.826  15.434  0.00  0.00     0.090 C 
HETATM   10  C   UNK N   1      36.031  11.261  15.593  0.00  0.00     0.075 C 
HETATM   11  C   UNK N   1      35.629  11.866  16.934  0.00  0.00    -0.038 A 
HETATM   12  C   UNK N   1      35.632  13.255  17.126  0.00  0.00     0.047 A 
HETATM   13  C   UNK N   1      35.309  13.813  18.361  0.00  0.00     0.099 A 
HETATM   14  C   UNK N   1      34.989  12.982  19.438  0.00  0.00     0.099 A 
HETATM   15  C   UNK N   1      34.989  11.594  19.269  0.00  0.00     0.047 A 
HETATM   16  C   UNK N   1      35.312  11.027  18.032  0.00  0.00    -0.048 A 
HETATM   17  C   UNK N   1      35.315   9.525  17.917  0.00  0.00     0.041 C 
HETATM   18  C   UNK N   1      35.946   8.997  16.629  0.00  0.00     0.030 C 
HETATM   19  H   UNK N   1      36.750   8.512  14.158  0.00  0.00     0.153 HD
ENDROOT
BRANCH  13  20
HETATM   20  O   UNK N   1      35.312  15.149  18.508  0.00  0.00    -0.358 OA
HETATM   21  H   UNK N   1      34.829  15.544  19.207  0.00  0.00     0.217 HD
ENDBRANCH  13  20
BRANCH  14  22
HETATM   22  O   UNK N   1      34.685  13.509  20.636  0.00  0.00    -0.358 OA
HETATM   23  H   UNK N   1      34.611  14.436  20.748  0.00  0.00     0.217 HD
ENDBRANCH  14  22
TORSDOF 2
ENDMDL
MODEL 6
REMARK VINA RESULT:      -7.0     11.137     13.421
REMARK  2 active torsions:
REMARK  status: ('A' for Active; 'I' for Inactive)
REMARK    1  A    between atoms: C_13  and  O_20 
REMARK    2  A    between atoms: C_14  and  O_19 
ROOT
HETATM    1  C   UNK N   1      28.841  15.751   2.676  0.00  0.00     0.001 A 
HETATM    2  C   UNK N   1      30.148  15.627   3.150  0.00  0.00     0.001 A 
HETATM    3  C   UNK N   1      30.437  15.926   4.482  0.00  0.00     0.008 A 
HETATM    4  C   UNK N   1      29.431  16.369   5.354  0.00  0.00    -0.040 A 
HETATM    5  C   UNK N   1      28.106  16.468   4.873  0.00  0.00    -0.034 A 
HETATM    6  C   UNK N   1      27.822  16.164   3.537  0.00  0.00     0.009 A 
HETATM    7  C   UNK N   1      26.979  16.886   5.779  0.00  0.00     0.153 C 
HETATM    8  N   UNK N   1      27.316  16.739   7.197  0.00  0.00    -0.412 N 
HETATM    9  C   UNK N   1      28.565  17.439   7.466  0.00  0.00     0.090 C 
HETATM   10  C   UNK N   1      29.728  16.679   6.816  0.00  0.00     0.075 C 
HETATM   11  C   UNK N   1      31.079  17.279   7.189  0.00  0.00    -0.038 A 
HETATM   12  C   UNK N   1      32.219  17.021   6.414  0.00  0.00     0.047 A 
HETATM   13  C   UNK N   1      33.465  17.529   6.773  0.00  0.00     0.099 A 
HETATM   14  C   UNK N   1      33.596  18.299   7.932  0.00  0.00     0.099 A 
HETATM   15  C   UNK N   1      32.473  18.560   8.723  0.00  0.00     0.047 A 
HETATM   16  C   UNK N   1      31.218  18.053   8.368  0.00  0.00    -0.048 A 
HETATM   17  C   UNK N   1      30.049  18.351   9.271  0.00  0.00     0.041 C 
HETATM   18  C   UNK N   1      28.796  17.533   8.962  0.00  0.00     0.030 C 
HETATM   19  H   UNK N   1      26.764  16.229   7.886  0.00  0.00     0.153 HD
ENDROOT
BRANCH  13  20
HETATM   20  O   UNK N   1      34.536  17.271   6.002  0.00  0.00    -0.358 OA
HETATM   21  H   UNK N   1      34.517  16.554   5.399  0.00  0.00     0.217 HD
ENDBRANCH  13  20
BRANCH  14  22
HETATM   22  O   UNK N   1      34.794  18.787   8.292  0.00  0.00    -0.358 OA
HETATM   23  H   UNK N   1      34.916  19.704   8.438  0.00  0.00     0.217 HD
ENDBRANCH  14  22
TORSDOF 2
ENDMDL
MODEL 7
REMARK VINA RESULT:      -6.9     12.315     14.173
REMARK  2 active torsions:
REMARK  status: ('A' for Active; 'I' for Inactive)
REMARK    1  A    between atoms: C_13  and  O_20 
REMARK    2  A    between atoms: C_14  and  O_19 
ROOT
HETATM    1  C   UNK N   1      28.230  18.208   8.812  0.00  0.00     0.001 A 
HETATM    2  C   UNK N   1      29.442  18.176   9.504  0.00  0.00     0.001 A 
HETATM    3  C   UNK N   1      30.629  17.918   8.817  0.00  0.00     0.008 A 
HETATM    4  C   UNK N   1      30.622  17.669   7.437  0.00  0.00    -0.040 A 
HETATM    5  C   UNK N   1      29.394  17.727   6.740  0.00  0.00    -0.034 A 
HETATM    6  C   UNK N   1      28.208  17.990   7.433  0.00  0.00     0.009 A 
HETATM    7  C   UNK N   1      29.335  17.521   5.249  0.00  0.00     0.153 C 
HETATM    8  N   UNK N   1      30.640  17.702   4.607  0.00  0.00    -0.412 N 
HETATM    9  C   UNK N   1      31.619  16.852   5.271  0.00  0.00     0.090 C 
HETATM   10  C   UNK N   1      31.912  17.405   6.671  0.00  0.00     0.075 C 
HETATM   11  C   UNK N   1      33.042  16.646   7.358  0.00  0.00    -0.038 A 
HETATM   12  C   UNK N   1      33.202  16.699   8.750  0.00  0.00     0.047 A 
HETATM   13  C   UNK N   1      34.257  16.045   9.380  0.00  0.00     0.099 A 
HETATM   14  C   UNK N   1      35.188  15.332   8.620  0.00  0.00     0.099 A 
HETATM   15  C   UNK N   1      35.052  15.275   7.229  0.00  0.00     0.047 A 
HETATM   16  C   UNK N   1      33.994  15.929   6.590  0.00  0.00    -0.048 A 
HETATM   17  C   UNK N   1      33.911  15.848   5.088  0.00  0.00     0.041 C 
HETATM   18  C   UNK N   1      32.903  16.813   4.464  0.00  0.00     0.030 C 
HETATM   19  H   UNK N   1      30.831  18.322   3.821  0.00  0.00     0.153 HD
ENDROOT
BRANCH  13  20
HETATM   20  O   UNK N   1      34.375  16.108  10.718  0.00  0.00    -0.358 OA
HETATM   21  H   UNK N   1      34.920  15.493  11.169  0.00  0.00     0.217 HD
ENDBRANCH  13  20
BRANCH  14  22
HETATM   22  O   UNK N   1      36.216  14.704   9.216  0.00  0.00    -0.358 OA
HETATM   23  H   UNK N   1      36.179  14.479  10.125  0.00  0.00     0.217 HD
ENDBRANCH  14  22
TORSDOF 2
ENDMDL
MODEL 8
REMARK VINA RESULT:      -6.8      2.755      5.735
REMARK  2 active torsions:
REMARK  status: ('A' for Active; 'I' for Inactive)
REMARK    1  A    between atoms: C_13  and  O_20 
REMARK    2  A    between atoms: C_14  and  O_19 
ROOT
HETATM    1  C   UNK N   1      30.918  22.475  -2.939  0.00  0.00     0.001 A 
HETATM    2  C   UNK N   1      29.924  23.262  -2.354  0.00  0.00     0.001 A 
HETATM    3  C   UNK N   1      28.816  23.657  -3.104  0.00  0.00     0.008 A 
HETATM    4  C   UNK N   1      28.692  23.289  -4.452  0.00  0.00    -0.040 A 
HETATM    5  C   UNK N   1      29.690  22.472  -5.031  0.00  0.00    -0.034 A 
HETATM    6  C   UNK N   1      30.797  22.076  -4.272  0.00  0.00     0.009 A 
HETATM    7  C   UNK N   1      29.580  22.003  -6.457  0.00  0.00     0.153 C 
HETATM    8  N   UNK N   1      28.213  22.101  -6.975  0.00  0.00    -0.412 N 
HETATM    9  C   UNK N   1      27.723  23.458  -6.773  0.00  0.00     0.090 C 
HETATM   10  C   UNK N   1      27.478  23.695  -5.277  0.00  0.00     0.075 C 
HETATM   11  C   UNK N   1      26.820  25.046  -5.016  0.00  0.00    -0.038 A 
HETATM   12  C   UNK N   1      26.876  25.639  -3.747  0.00  0.00     0.047 A 
HETATM   13  C   UNK N   1      26.241  26.851  -3.489  0.00  0.00     0.099 A 
HETATM   14  C   UNK N   1      25.519  27.489  -4.502  0.00  0.00     0.099 A 
HETATM   15  C   UNK N   1      25.443  26.909  -5.772  0.00  0.00     0.047 A 
HETATM   16  C   UNK N   1      26.080  25.691  -6.038  0.00  0.00    -0.048 A 
HETATM   17  C   UNK N   1      25.946  25.105  -7.419  0.00  0.00     0.041 C 
HETATM   18  C   UNK N   1      26.427  23.660  -7.535  0.00  0.00     0.030 C 
HETATM   19  H   UNK N   1      27.690  21.341  -7.410  0.00  0.00     0.153 HD
ENDROOT
BRANCH  13  20
HETATM   20  O   UNK N   1      26.323  27.398  -2.264  0.00  0.00    -0.358 OA
HETATM   21  H   UNK N   1      26.492  26.855  -1.519  0.00  0.00     0.217 HD
ENDBRANCH  13  20
BRANCH  14  22
HETATM   22  O   UNK N   1      24.894  28.654  -4.262  0.00  0.00    -0.358 OA
HETATM   23  H   UNK N   1      24.418  29.092  -4.939  0.00  0.00     0.217 HD
ENDBRANCH  14  22
TORSDOF 2
ENDMDL
MODEL 9
REMARK VINA RESULT:      -6.8     12.316     13.984
REMARK  2 active torsions:
REMARK  status: ('A' for Active; 'I' for Inactive)
REMARK    1  A    between atoms: C_13  and  O_20 
REMARK    2  A    between atoms: C_14  and  O_19 
ROOT
HETATM    1  C   UNK N   1      31.335  13.836   2.871  0.00  0.00     0.001 A 
HETATM    2  C   UNK N   1      30.216  14.567   3.273  0.00  0.00     0.001 A 
HETATM    3  C   UNK N   1      30.343  15.552   4.253  0.00  0.00     0.008 A 
HETATM    4  C   UNK N   1      31.582  15.808   4.860  0.00  0.00    -0.040 A 
HETATM    5  C   UNK N   1      32.715  15.080   4.430  0.00  0.00    -0.034 A 
HETATM    6  C   UNK N   1      32.582  14.097   3.443  0.00  0.00     0.009 A 
HETATM    7  C   UNK N   1      34.079  15.352   5.008  0.00  0.00     0.153 C 
HETATM    8  N   UNK N   1      34.158  16.658   5.667  0.00  0.00    -0.412 N 
HETATM    9  C   UNK N   1      33.083  16.764   6.645  0.00  0.00     0.090 C 
HETATM   10  C   UNK N   1      31.739  16.894   5.916  0.00  0.00     0.075 C 
HETATM   11  C   UNK N   1      30.592  17.161   6.884  0.00  0.00    -0.038 A 
HETATM   12  C   UNK N   1      29.263  16.912   6.509  0.00  0.00     0.047 A 
HETATM   13  C   UNK N   1      28.206  17.195   7.371  0.00  0.00     0.099 A 
HETATM   14  C   UNK N   1      28.462  17.750   8.628  0.00  0.00     0.099 A 
HETATM   15  C   UNK N   1      29.779  18.014   9.017  0.00  0.00     0.047 A 
HETATM   16  C   UNK N   1      30.845  17.732   8.156  0.00  0.00    -0.048 A 
HETATM   17  C   UNK N   1      32.241  18.057   8.622  0.00  0.00     0.041 C 
HETATM   18  C   UNK N   1      33.301  17.981   7.524  0.00  0.00     0.030 C 
HETATM   19  H   UNK N   1      34.854  17.377   5.473  0.00  0.00     0.153 HD
ENDROOT
BRANCH  13  20
HETATM   20  O   UNK N   1      26.945  16.935   6.985  0.00  0.00    -0.358 OA
HETATM   21  H   UNK N   1      26.717  16.081   6.675  0.00  0.00     0.217 HD
ENDBRANCH  13  20
BRANCH  14  22
HETATM   22  O   UNK N   1      27.449  18.036   9.464  0.00  0.00    -0.358 OA
HETATM   23  H   UNK N   1      27.457  18.818   9.979  0.00  0.00     0.217 HD
ENDBRANCH  14  22
TORSDOF 2
ENDMDL
