REMARK  5 active torsions:
REMARK  status: ('A' for Active; 'I' for Inactive)
REMARK    1  A    between atoms: C_6  and  C_2 
REMARK    2  A    between atoms: C_6  and  C_4 
REMARK    3  A    between atoms: N_11  and  C_4 
REMARK    4  A    between atoms: O_13  and  C_6 
REMARK    5  A    between atoms: N_12  and  C_7 
ROOT
HETATM    1  C   UNK N   1       0.143  -1.889   0.178  0.00  0.00     0.089 C 
HETATM    2  C   UNK N   1       2.540   0.729  -0.290  0.00  0.00     0.144 A 
HETATM    3  C   UNK N   1       0.881  -0.607   0.020  0.00  0.00     0.081 A 
HETATM    4  C   UNK N   1       1.399   1.470  -0.054  0.00  0.00     0.193 A 
HETATM    5  N   UNK N   1       2.204  -0.576  -0.246  0.00  0.00    -0.352 N 
ATOM      6  HN  UNK N   1       2.822  -1.376  -0.385  1.00  0.00     0.166 HD
HETATM    7  N   UNK N   1       0.354   0.635   0.142  0.00  0.00    -0.315 N 
ENDROOT
BRANCH   7   8
HETATM    8  C   UNK N   1      -1.013   1.041   0.510  0.00  0.00     0.165 C 
BRANCH   8   9
HETATM    9  C   UNK N   1      -2.152   0.346  -0.237  0.00  0.00     0.150 C 
BRANCH   9  10
HETATM   10  C   UNK N   1      -3.406   1.186  -0.027  0.00  0.00     0.148 C 
HETATM   11 Cl   UNK N   1      -4.902   0.285  -0.413  0.00  0.00    -0.128 Cl
ENDBRANCH   9  10
BRANCH   9  12
HETATM   12  O   UNK N   1      -2.368  -0.906   0.338  0.00  0.00    -0.393 OA
HETATM   13  H   UNK N   1      -3.197  -1.211   0.738  0.00  0.00     0.210 HD
ENDBRANCH   9  12
ENDBRANCH   8   9
ENDBRANCH   7   8
BRANCH   4  14
HETATM   14  N   UNK N   1       1.359   2.892   0.011  0.00  0.00    -0.096 N 
HETATM   15  O   UNK N   1       0.322   3.465   0.163  0.00  0.00    -0.530 OA
HETATM   16  O   UNK N   1       2.367   3.522  -0.094  0.00  0.00    -0.530 OA
ENDBRANCH   4  14
TORSDOF 5
