MODEL 1
REMARK VINA RESULT:      -6.7      0.000      0.000
REMARK  1 active torsions:
REMARK  status: ('A' for Active; 'I' for Inactive)
REMARK    1  A    between atoms: C_13  and  C_9 
ROOT
HETATM    1  C   UNK N   1      26.772  28.962  -4.892  0.00  0.00     0.001 A 
HETATM    2  C   UNK N   1      25.810  28.465  -3.990  0.00  0.00     0.001 A 
HETATM    3  C   UNK N   1      27.839  28.150  -5.313  0.00  0.00     0.016 A 
HETATM    4  C   UNK N   1      25.904  27.150  -3.499  0.00  0.00     0.016 A 
HETATM    5  C   UNK N   1      27.913  26.853  -4.808  0.00  0.00     0.025 A 
HETATM    6  C   UNK N   1      26.975  26.365  -3.929  0.00  0.00     0.025 A 
HETATM    7  C   UNK N   1      28.572  24.596  -4.286  0.00  0.00     0.168 A 
HETATM    8  C   UNK N   1      28.910  25.822  -5.083  0.00  0.00     0.176 A 
HETATM    9  C   UNK N   1      27.305  24.984  -3.577  0.00  0.00     0.176 A 
HETATM   10  O   UNK N   1      29.845  25.937  -5.851  0.00  0.00    -0.291 OA
HETATM   11  O   UNK N   1      26.652  24.267  -2.840  0.00  0.00    -0.291 OA
ENDROOT
BRANCH   7  12
HETATM   12  C   UNK N   1      29.297  23.285  -4.293  0.00  0.00    -0.039 A 
HETATM   13  C   UNK N   1      29.323  22.491  -5.446  0.00  0.00     0.011 A 
HETATM   14  C   UNK N   1      30.046  21.294  -5.455  0.00  0.00     0.043 A 
HETATM   15  C   UNK N   1      30.743  20.888  -4.312  0.00  0.00     0.116 A 
HETATM   16  C   UNK N   1      30.703  21.670  -3.154  0.00  0.00     0.043 A 
HETATM   17  F   UNK N   1      31.467  19.744  -4.328  0.00  0.00    -0.206 F 
HETATM   18  C   UNK N   1      29.983  22.865  -3.147  0.00  0.00     0.011 A 
ENDBRANCH   7  12
TORSDOF 1
ENDMDL
MODEL 2
REMARK VINA RESULT:      -6.7      0.113      2.098
REMARK  1 active torsions:
REMARK  status: ('A' for Active; 'I' for Inactive)
REMARK    1  A    between atoms: C_13  and  C_9 
ROOT
HETATM    1  C   UNK N   1      25.837  28.455  -3.774  0.00  0.00     0.001 A 
HETATM    2  C   UNK N   1      26.781  29.004  -4.664  0.00  0.00     0.001 A 
HETATM    3  C   UNK N   1      25.949  27.118  -3.354  0.00  0.00     0.016 A 
HETATM    4  C   UNK N   1      27.848  28.223  -5.144  0.00  0.00     0.016 A 
HETATM    5  C   UNK N   1      27.011  26.364  -3.847  0.00  0.00     0.025 A 
HETATM    6  C   UNK N   1      27.934  26.898  -4.715  0.00  0.00     0.025 A 
HETATM    7  C   UNK N   1      28.573  24.602  -4.355  0.00  0.00     0.168 A 
HETATM    8  C   UNK N   1      27.347  24.970  -3.571  0.00  0.00     0.176 A 
HETATM    9  C   UNK N   1      28.930  25.881  -5.058  0.00  0.00     0.176 A 
HETATM   10  O   UNK N   1      26.741  24.239  -2.811  0.00  0.00    -0.291 OA
HETATM   11  O   UNK N   1      29.893  26.052  -5.783  0.00  0.00    -0.291 OA
ENDROOT
BRANCH   7  12
HETATM   12  C   UNK N   1      29.294  23.289  -4.342  0.00  0.00    -0.039 A 
HETATM   13  C   UNK N   1      29.301  22.469  -5.477  0.00  0.00     0.011 A 
HETATM   14  C   UNK N   1      30.020  21.270  -5.470  0.00  0.00     0.043 A 
HETATM   15  C   UNK N   1      30.731  20.887  -4.327  0.00  0.00     0.116 A 
HETATM   16  C   UNK N   1      30.711  21.695  -3.187  0.00  0.00     0.043 A 
HETATM   17  F   UNK N   1      31.452  19.741  -4.328  0.00  0.00    -0.206 F 
HETATM   18  C   UNK N   1      29.995  22.892  -3.196  0.00  0.00     0.011 A 
ENDBRANCH   7  12
TORSDOF 1
ENDMDL
MODEL 3
REMARK VINA RESULT:      -6.5      2.979      6.446
REMARK  1 active torsions:
REMARK  status: ('A' for Active; 'I' for Inactive)
REMARK    1  A    between atoms: C_13  and  C_9 
ROOT
HETATM    1  C   UNK N   1      33.927  20.913  -4.718  0.00  0.00     0.001 A 
HETATM    2  C   UNK N   1      33.843  20.706  -3.326  0.00  0.00     0.001 A 
HETATM    3  C   UNK N   1      33.008  21.752  -5.369  0.00  0.00     0.016 A 
HETATM    4  C   UNK N   1      32.838  21.337  -2.571  0.00  0.00     0.016 A 
HETATM    5  C   UNK N   1      32.019  22.362  -4.600  0.00  0.00     0.025 A 
HETATM    6  C   UNK N   1      31.935  22.162  -3.242  0.00  0.00     0.025 A 
HETATM    7  C   UNK N   1      30.128  23.643  -3.836  0.00  0.00     0.168 A 
HETATM    8  C   UNK N   1      30.957  23.266  -5.030  0.00  0.00     0.176 A 
HETATM    9  C   UNK N   1      30.809  22.928  -2.704  0.00  0.00     0.176 A 
HETATM   10  O   UNK N   1      30.790  23.665  -6.166  0.00  0.00    -0.291 OA
HETATM   11  O   UNK N   1      30.490  22.982  -1.530  0.00  0.00    -0.291 OA
ENDROOT
BRANCH   7  12
HETATM   12  C   UNK N   1      28.962  24.582  -3.805  0.00  0.00    -0.039 A 
HETATM   13  C   UNK N   1      29.139  25.947  -4.063  0.00  0.00     0.011 A 
HETATM   14  C   UNK N   1      28.035  26.805  -4.083  0.00  0.00     0.043 A 
HETATM   15  C   UNK N   1      26.753  26.301  -3.840  0.00  0.00     0.116 A 
HETATM   16  C   UNK N   1      26.576  24.944  -3.563  0.00  0.00     0.043 A 
HETATM   17  F   UNK N   1      25.680  27.125  -3.886  0.00  0.00    -0.206 F 
HETATM   18  C   UNK N   1      27.677  24.088  -3.547  0.00  0.00     0.011 A 
ENDBRANCH   7  12
TORSDOF 1
ENDMDL
MODEL 4
REMARK VINA RESULT:      -6.5      2.978      6.704
REMARK  1 active torsions:
REMARK  status: ('A' for Active; 'I' for Inactive)
REMARK    1  A    between atoms: C_13  and  C_9 
ROOT
HETATM    1  C   UNK N   1      33.824  20.613  -3.313  0.00  0.00     0.001 A 
HETATM    2  C   UNK N   1      33.917  20.793  -4.708  0.00  0.00     0.001 A 
HETATM    3  C   UNK N   1      32.835  21.283  -2.574  0.00  0.00     0.016 A 
HETATM    4  C   UNK N   1      33.022  21.647  -5.378  0.00  0.00     0.016 A 
HETATM    5  C   UNK N   1      31.963  22.126  -3.260  0.00  0.00     0.025 A 
HETATM    6  C   UNK N   1      32.052  22.304  -4.621  0.00  0.00     0.025 A 
HETATM    7  C   UNK N   1      30.229  23.687  -3.862  0.00  0.00     0.168 A 
HETATM    8  C   UNK N   1      30.864  22.928  -2.732  0.00  0.00     0.176 A 
HETATM    9  C   UNK N   1      31.012  23.235  -5.062  0.00  0.00     0.176 A 
HETATM   10  O   UNK N   1      30.509  22.955  -1.569  0.00  0.00    -0.291 OA
HETATM   11  O   UNK N   1      30.811  23.575  -6.214  0.00  0.00    -0.291 OA
ENDROOT
BRANCH   7  12
HETATM   12  C   UNK N   1      29.043  24.597  -3.786  0.00  0.00    -0.039 A 
HETATM   13  C   UNK N   1      29.160  25.951  -4.122  0.00  0.00     0.011 A 
HETATM   14  C   UNK N   1      28.034  26.779  -4.097  0.00  0.00     0.043 A 
HETATM   15  C   UNK N   1      26.789  26.256  -3.733  0.00  0.00     0.116 A 
HETATM   16  C   UNK N   1      26.672  24.910  -3.379  0.00  0.00     0.043 A 
HETATM   17  F   UNK N   1      25.692  27.050  -3.736  0.00  0.00    -0.206 F 
HETATM   18  C   UNK N   1      27.796  24.084  -3.407  0.00  0.00     0.011 A 
ENDBRANCH   7  12
TORSDOF 1
ENDMDL
MODEL 5
REMARK VINA RESULT:      -6.5     16.628     18.612
REMARK  1 active torsions:
REMARK  status: ('A' for Active; 'I' for Inactive)
REMARK    1  A    between atoms: C_13  and  C_9 
ROOT
HETATM    1  C   UNK N   1      24.175  11.934  11.416  0.00  0.00     0.001 A 
HETATM    2  C   UNK N   1      22.921  11.858  12.056  0.00  0.00     0.001 A 
HETATM    3  C   UNK N   1      24.298  12.563  10.166  0.00  0.00     0.016 A 
HETATM    4  C   UNK N   1      21.777  12.411  11.451  0.00  0.00     0.016 A 
HETATM    5  C   UNK N   1      23.150  13.098   9.586  0.00  0.00     0.025 A 
HETATM    6  C   UNK N   1      21.926  13.026  10.208  0.00  0.00     0.025 A 
HETATM    7  C   UNK N   1      21.570  14.163   8.113  0.00  0.00     0.168 A 
HETATM    8  C   UNK N   1      23.011  13.792   8.309  0.00  0.00     0.176 A 
HETATM    9  C   UNK N   1      20.913  13.671   9.371  0.00  0.00     0.176 A 
HETATM   10  O   UNK N   1      23.922  14.046   7.545  0.00  0.00    -0.291 OA
HETATM   11  O   UNK N   1      19.736  13.796   9.658  0.00  0.00    -0.291 OA
ENDROOT
BRANCH   7  12
HETATM   12  C   UNK N   1      20.980  14.923   6.965  0.00  0.00    -0.039 A 
HETATM   13  C   UNK N   1      20.180  14.275   6.017  0.00  0.00     0.011 A 
HETATM   14  C   UNK N   1      19.593  15.005   4.979  0.00  0.00     0.043 A 
HETATM   15  C   UNK N   1      19.807  16.385   4.886  0.00  0.00     0.116 A 
HETATM   16  C   UNK N   1      20.620  17.031   5.820  0.00  0.00     0.043 A 
HETATM   17  F   UNK N   1      19.216  17.098   3.898  0.00  0.00    -0.206 F 
HETATM   18  C   UNK N   1      21.203  16.301   6.856  0.00  0.00     0.011 A 
ENDBRANCH   7  12
TORSDOF 1
ENDMDL
MODEL 6
REMARK VINA RESULT:      -6.4     16.501     18.624
REMARK  1 active torsions:
REMARK  status: ('A' for Active; 'I' for Inactive)
REMARK    1  A    between atoms: C_13  and  C_9 
ROOT
HETATM    1  C   UNK N   1      23.054  11.852  11.915  0.00  0.00     0.001 A 
HETATM    2  C   UNK N   1      24.305  11.949  11.273  0.00  0.00     0.001 A 
HETATM    3  C   UNK N   1      21.910  12.423  11.332  0.00  0.00     0.016 A 
HETATM    4  C   UNK N   1      24.426  12.618  10.042  0.00  0.00     0.016 A 
HETATM    5  C   UNK N   1      22.056  13.085  10.114  0.00  0.00     0.025 A 
HETATM    6  C   UNK N   1      23.276  13.180   9.486  0.00  0.00     0.025 A 
HETATM    7  C   UNK N   1      21.688  14.337   8.090  0.00  0.00     0.168 A 
HETATM    8  C   UNK N   1      21.038  13.756   9.312  0.00  0.00     0.176 A 
HETATM    9  C   UNK N   1      23.124  13.921   8.233  0.00  0.00     0.176 A 
HETATM   10  O   UNK N   1      19.854  13.811   9.583  0.00  0.00    -0.291 OA
HETATM   11  O   UNK N   1      24.016  14.149   7.436  0.00  0.00    -0.291 OA
ENDROOT
BRANCH   7  12
HETATM   12  C   UNK N   1      21.016  15.072   6.972  0.00  0.00    -0.039 A 
HETATM   13  C   UNK N   1      21.272  16.431   6.756  0.00  0.00     0.011 A 
HETATM   14  C   UNK N   1      20.679  17.093   5.677  0.00  0.00     0.043 A 
HETATM   15  C   UNK N   1      19.826  16.399   4.813  0.00  0.00     0.116 A 
HETATM   16  C   UNK N   1      19.553  15.047   5.037  0.00  0.00     0.043 A 
HETATM   17  F   UNK N   1      19.272  17.031   3.751  0.00  0.00    -0.206 F 
HETATM   18  C   UNK N   1      20.148  14.386   6.112  0.00  0.00     0.011 A 
ENDBRANCH   7  12
TORSDOF 1
ENDMDL
MODEL 7
REMARK VINA RESULT:      -6.3     13.391     16.155
REMARK  1 active torsions:
REMARK  status: ('A' for Active; 'I' for Inactive)
REMARK    1  A    between atoms: C_13  and  C_9 
ROOT
HETATM    1  C   UNK N   1      30.573  17.464   4.432  0.00  0.00     0.001 A 
HETATM    2  C   UNK N   1      31.781  17.335   3.718  0.00  0.00     0.001 A 
HETATM    3  C   UNK N   1      30.539  17.239   5.819  0.00  0.00     0.016 A 
HETATM    4  C   UNK N   1      32.968  16.978   4.383  0.00  0.00     0.016 A 
HETATM    5  C   UNK N   1      31.727  16.882   6.454  0.00  0.00     0.025 A 
HETATM    6  C   UNK N   1      32.907  16.756   5.759  0.00  0.00     0.025 A 
HETATM    7  C   UNK N   1      33.402  16.239   8.061  0.00  0.00     0.168 A 
HETATM    8  C   UNK N   1      31.957  16.596   7.866  0.00  0.00     0.176 A 
HETATM    9  C   UNK N   1      33.980  16.379   6.681  0.00  0.00     0.176 A 
HETATM   10  O   UNK N   1      31.116  16.660   8.742  0.00  0.00    -0.291 OA
HETATM   11  O   UNK N   1      35.148  16.218   6.376  0.00  0.00    -0.291 OA
ENDROOT
BRANCH   7  12
HETATM   12  C   UNK N   1      34.088  15.915   9.352  0.00  0.00    -0.039 A 
HETATM   13  C   UNK N   1      33.837  14.704  10.008  0.00  0.00     0.011 A 
HETATM   14  C   UNK N   1      34.522  14.391  11.186  0.00  0.00     0.043 A 
HETATM   15  C   UNK N   1      35.457  15.289  11.712  0.00  0.00     0.116 A 
HETATM   16  C   UNK N   1      35.695  16.507  11.069  0.00  0.00     0.043 A 
HETATM   17  F   UNK N   1      36.142  14.976  12.837  0.00  0.00    -0.206 F 
HETATM   18  C   UNK N   1      35.013  16.817   9.893  0.00  0.00     0.011 A 
ENDBRANCH   7  12
TORSDOF 1
ENDMDL
MODEL 8
REMARK VINA RESULT:      -6.2     10.380     13.225
REMARK  1 active torsions:
REMARK  status: ('A' for Active; 'I' for Inactive)
REMARK    1  A    between atoms: C_13  and  C_9 
ROOT
HETATM    1  C   UNK N   1      32.224  15.941   7.501  0.00  0.00     0.001 A 
HETATM    2  C   UNK N   1      31.685  16.495   8.680  0.00  0.00     0.001 A 
HETATM    3  C   UNK N   1      31.600  16.162   6.262  0.00  0.00     0.016 A 
HETATM    4  C   UNK N   1      30.515  17.275   8.631  0.00  0.00     0.016 A 
HETATM    5  C   UNK N   1      30.441  16.935   6.240  0.00  0.00     0.025 A 
HETATM    6  C   UNK N   1      29.913  17.476   7.389  0.00  0.00     0.025 A 
HETATM    7  C   UNK N   1      28.457  18.133   5.583  0.00  0.00     0.168 A 
HETATM    8  C   UNK N   1      29.613  17.307   5.097  0.00  0.00     0.176 A 
HETATM    9  C   UNK N   1      28.705  18.236   7.062  0.00  0.00     0.176 A 
HETATM   10  O   UNK N   1      29.840  17.012   3.940  0.00  0.00    -0.291 OA
HETATM   11  O   UNK N   1      28.025  18.857   7.858  0.00  0.00    -0.291 OA
ENDROOT
BRANCH   7  12
HETATM   12  C   UNK N   1      27.383  18.764   4.752  0.00  0.00    -0.039 A 
HETATM   13  C   UNK N   1      27.542  20.059   4.246  0.00  0.00     0.011 A 
HETATM   14  C   UNK N   1      26.555  20.618   3.427  0.00  0.00     0.043 A 
HETATM   15  C   UNK N   1      25.407  19.883   3.116  0.00  0.00     0.116 A 
HETATM   16  C   UNK N   1      25.237  18.597   3.635  0.00  0.00     0.043 A 
HETATM   17  F   UNK N   1      24.463  20.410   2.301  0.00  0.00    -0.206 F 
HETATM   18  C   UNK N   1      26.224  18.040   4.449  0.00  0.00     0.011 A 
ENDBRANCH   7  12
TORSDOF 1
ENDMDL
MODEL 9
REMARK VINA RESULT:      -6.2      3.507      6.473
REMARK  1 active torsions:
REMARK  status: ('A' for Active; 'I' for Inactive)
REMARK    1  A    between atoms: C_13  and  C_9 
ROOT
HETATM    1  C   UNK N   1      28.995  20.641  -7.478  0.00  0.00     0.001 A 
HETATM    2  C   UNK N   1      27.775  20.621  -8.184  0.00  0.00     0.001 A 
HETATM    3  C   UNK N   1      29.298  21.704  -6.612  0.00  0.00     0.016 A 
HETATM    4  C   UNK N   1      26.845  21.666  -8.030  0.00  0.00     0.016 A 
HETATM    5  C   UNK N   1      28.363  22.729  -6.480  0.00  0.00     0.025 A 
HETATM    6  C   UNK N   1      27.172  22.712  -7.167  0.00  0.00     0.025 A 
HETATM    7  C   UNK N   1      27.191  24.742  -5.868  0.00  0.00     0.168 A 
HETATM    8  C   UNK N   1      28.437  23.932  -5.656  0.00  0.00     0.176 A 
HETATM    9  C   UNK N   1      26.396  23.906  -6.830  0.00  0.00     0.176 A 
HETATM   10  O   UNK N   1      29.350  24.214  -4.905  0.00  0.00    -0.291 OA
HETATM   11  O   UNK N   1      25.284  24.168  -7.254  0.00  0.00    -0.291 OA
ENDROOT
BRANCH   7  12
HETATM   12  C   UNK N   1      26.824  26.028  -5.194  0.00  0.00    -0.039 A 
HETATM   13  C   UNK N   1      26.377  26.035  -3.867  0.00  0.00     0.011 A 
HETATM   14  C   UNK N   1      26.086  27.246  -3.232  0.00  0.00     0.043 A 
HETATM   15  C   UNK N   1      26.239  28.453  -3.923  0.00  0.00     0.116 A 
HETATM   16  C   UNK N   1      26.666  28.448  -5.254  0.00  0.00     0.043 A 
HETATM   17  F   UNK N   1      25.985  29.629  -3.302  0.00  0.00    -0.206 F 
HETATM   18  C   UNK N   1      26.958  27.239  -5.885  0.00  0.00     0.011 A 
ENDBRANCH   7  12
TORSDOF 1
ENDMDL
