MODEL 1
REMARK VINA RESULT:     -14.2      0.000      0.000
REMARK  5 active torsions:
REMARK  status: ('A' for Active; 'I' for Inactive)
REMARK    1  A    between atoms: N_6  and  C_7 
REMARK    2  A    between atoms: N_29  and  C_30 
REMARK    3  A    between atoms: C_36  and  C_41 
REMARK    4  A    between atoms: C_53  and  C_58 
REMARK    5  A    between atoms: N_63  and  C_64 
ROOT
HETATM    1  C   UNK N   1      34.089  14.431   7.623  0.00  0.00     0.241 A 
HETATM    2  O   UNK N   1      33.961  13.770   6.987  0.00  0.00    -0.271 OA
HETATM    3  C   UNK N   1      33.232  14.814   7.398  0.00  0.00     0.278 A 
HETATM    4  O   UNK N   1      31.690  15.308   6.831  0.00  0.00    -0.345 OA
HETATM    5  C   UNK N   1      31.691  14.499   6.153  0.00  0.00     0.061 A 
HETATM    6  C   UNK N   1      31.233  14.145   5.565  0.00  0.00    -0.024 A 
HETATM    7  C   UNK N   1      30.990  13.511   4.879  0.00  0.00     0.010 A 
HETATM    8  C   UNK N   1      32.243  13.153   5.376  0.00  0.00    -0.003 A 
HETATM    9  C   UNK N   1      32.701  13.506   5.964  0.00  0.00    -0.015 A 
HETATM   10  C   UNK N   1      31.905  14.219   6.055  0.00  0.00     0.070 A 
HETATM   11  C   UNK N   1      32.843  14.571   6.947  0.00  0.00     0.056 A 
HETATM   12  C   UNK N   1      32.267  15.824   7.630  0.00  0.00    -0.023 A 
HETATM   13  C   UNK N   1      33.474  15.805   8.383  0.00  0.00     0.010 A 
HETATM   14  C   UNK N   1      33.579  16.398   8.947  0.00  0.00     0.001 A 
HETATM   15  C   UNK N   1      32.996  16.971   9.056  0.00  0.00     0.010 A 
HETATM   16  C   UNK N   1      32.308  16.951   8.601  0.00  0.00    -0.020 A 
HETATM   17  C   UNK N   1      31.684  16.397   7.739  0.00  0.00     0.081 A 
HETATM   18  O   UNK N   1      31.134  16.317   7.323  0.00  0.00    -0.346 OA
HETATM   19  C   UNK N   1      31.039  16.926   7.773  0.00  0.00     0.229 A 
HETATM   20  C   UNK N   1      30.029  17.905   7.952  0.00  0.00     0.237 A 
HETATM   21  O   UNK N   1      30.083  16.634   6.920  0.00  0.00    -0.375 OA
ATOM     22  HO  UNK N   1      29.407  17.289   7.039  1.00  0.00     0.212 HD
HETATM   23  N   UNK N   1      28.646  17.852   7.026  0.00  0.00    -0.394 N 
HETATM   24  C   UNK N   1      31.696  17.499   8.671  0.00  0.00     0.078 A 
HETATM   25  C   UNK N   1      30.812  17.852   8.405  0.00  0.00    -0.046 A 
HETATM   26  C   UNK N   1      30.535  18.525   8.793  0.00  0.00     0.005 A 
HETATM   27  C   UNK N   1      29.801  18.845   8.594  0.00  0.00    -0.003 A 
HETATM   28  C   UNK N   1      29.343  18.491   8.006  0.00  0.00    -0.019 A 
HETATM   29  C   UNK N   1      29.246  17.368   7.003  0.00  0.00     0.045 A 
HETATM   30  C   UNK N   1      30.500  17.010   7.500  0.00  0.00     0.159 A 
HETATM   31  O   UNK N   1      29.803  17.084   7.119  0.00  0.00    -0.372 OA
HETATM   32  C   UNK N   1      28.419  17.117   6.267  0.00  0.00     0.271 A 
HETATM   33  C   UNK N   1      27.596  17.159   5.777  0.00  0.00     0.241 A 
HETATM   34  O   UNK N   1      27.536  17.729   6.217  0.00  0.00    -0.271 OA
HETATM   35  N   UNK N   1      26.897  17.027   5.223  0.00  0.00    -0.358 N 
HETATM   36  C   UNK N   1      26.257  16.715   4.553  0.00  0.00     0.142 A 
HETATM   37  C   UNK N   1      26.137  16.485   4.284  0.00  0.00     0.135 A 
HETATM   38  N   UNK N   1      25.228  17.326   4.411  0.00  0.00    -0.419 N 
HETATM   39  C   UNK N   1      24.356  16.539   3.197  0.00  0.00     0.142 C 
HETATM   40  C   UNK N   1      24.303  18.046   4.425  0.00  0.00     0.142 C 
HETATM   41  C   UNK N   1      29.202  17.426   7.023  0.00  0.00     0.048 A 
HETATM   42  C   UNK N   1      29.258  16.213   6.042  0.00  0.00    -0.046 A 
HETATM   43  C   UNK N   1      29.426  16.272   6.198  0.00  0.00     0.006 A 
HETATM   44  C   UNK N   1      30.529  15.660   6.387  0.00  0.00     0.001 A 
HETATM   45  C   UNK N   1      29.761  15.594   5.843  0.00  0.00     0.006 A 
HETATM   46  C   UNK N   1      29.737  15.046   5.369  0.00  0.00    -0.043 A 
HETATM   47  C   UNK N   1      28.635  15.658   5.180  0.00  0.00     0.180 A 
HETATM   48  O   UNK N   1      28.292  15.123   4.514  0.00  0.00    -0.368 OA
HETATM   49  C   UNK N   1      28.074  14.522   3.872  0.00  0.00     0.271 A 
HETATM   50  C   UNK N   1      28.703  13.782   3.651  0.00  0.00     0.241 A 
HETATM   51  O   UNK N   1      29.304  13.939   4.165  0.00  0.00    -0.271 OA
HETATM   52  N   UNK N   1      27.871  13.704   3.056  0.00  0.00    -0.358 N 
HETATM   53  C   UNK N   1      29.829  14.537   5.001  0.00  0.00     0.078 A 
HETATM   54  H   UNK N   1      28.435  17.185   6.333  0.00  0.00     0.155 HD
HETATM   55  H   UNK N   1      26.367  17.798   5.531  0.00  0.00     0.162 HD
HETATM   56  H   UNK N   1      27.034  14.210   2.948  0.00  0.00     0.162 HD
ENDROOT
BRANCH   1  57
HETATM   57  N   UNK N   1      34.840  14.484   8.145  0.00  0.00    -0.358 N 
HETATM   58  C   UNK N   1      35.762  14.331   8.470  0.00  0.00     0.142 A 
HETATM   59  C   UNK N   1      36.160  13.996   8.220  0.00  0.00     0.135 A 
HETATM   60  N   UNK N   1      36.545  14.373   8.995  0.00  0.00    -0.419 N 
HETATM   61  C   UNK N   1      38.146  13.797   9.110  0.00  0.00     0.142 C 
HETATM   62  C   UNK N   1      36.829  14.976  10.039  0.00  0.00     0.142 C 
HETATM   63  H   UNK N   1      34.516  15.097   8.842  0.00  0.00     0.162 HD
ENDBRANCH   1  57
BRANCH  23  64
HETATM   64  C   UNK N   1      27.791  18.988   7.435  0.00  0.00     0.146 A 
HETATM   65  C   UNK N   1      27.302  19.743   7.576  0.00  0.00     0.290 A 
HETATM   66  N   UNK N   1      27.531  19.761   7.173  0.00  0.00     0.081 N 
HETATM   67  C   UNK N   1      26.724  21.251   7.179  0.00  0.00     0.309 A 
HETATM   68  C   UNK N   1      27.762  20.571   6.046  0.00  0.00     0.309 C 
ENDBRANCH  23  64
BRANCH  52  69
HETATM   69  C   UNK N   1      28.462  12.525   2.445  0.00  0.00     0.152 A 
HETATM   70  C   UNK N   1      28.910  11.853   2.120  0.00  0.00     0.290 A 
HETATM   71  N   UNK N   1      27.907  11.342   1.585  0.00  0.00     0.081 N 
HETATM   72  C   UNK N   1      29.357  10.611   1.437  0.00  0.00     0.309 A 
HETATM   73  C   UNK N   1      27.567  10.535   1.006  0.00  0.00     0.309 C 
ENDBRANCH  52  69
TORSDOF 5
ENDMDL
MODEL 2
REMARK VINA RESULT:     -14.0      2.334      6.862
REMARK  5 active torsions:
REMARK  status: ('A' for Active; 'I' for Inactive)
REMARK    1  A    between atoms: N_6  and  C_7 
REMARK    2  A    between atoms: N_29  and  C_30 
REMARK    3  A    between atoms: C_36  and  C_41 
REMARK    4  A    between atoms: C_53  and  C_58 
REMARK    5  A    between atoms: N_63  and  C_64 
ROOT
HETATM    1  C   UNK N   1      27.983  17.227   4.206  0.00  0.00     0.241 A 
HETATM    2  O   UNK N   1      28.152  16.736   3.439  0.00  0.00    -0.271 OA
HETATM    3  C   UNK N   1      28.850  16.984   4.553  0.00  0.00     0.278 A 
HETATM    4  O   UNK N   1      30.421  16.424   4.956  0.00  0.00    -0.345 OA
HETATM    5  C   UNK N   1      30.464  15.912   4.033  0.00  0.00     0.061 A 
HETATM    6  C   UNK N   1      30.957  15.429   3.582  0.00  0.00    -0.024 A 
HETATM    7  C   UNK N   1      31.244  14.890   2.833  0.00  0.00     0.010 A 
HETATM    8  C   UNK N   1      29.965  15.373   2.556  0.00  0.00    -0.003 A 
HETATM    9  C   UNK N   1      29.471  15.856   3.007  0.00  0.00    -0.015 A 
HETATM   10  C   UNK N   1      30.257  15.856   3.736  0.00  0.00     0.070 A 
HETATM   11  C   UNK N   1      29.266  16.610   4.235  0.00  0.00     0.056 A 
HETATM   12  C   UNK N   1      29.795  17.076   5.603  0.00  0.00    -0.023 A 
HETATM   13  C   UNK N   1      28.545  17.748   5.708  0.00  0.00     0.010 A 
HETATM   14  C   UNK N   1      28.404  18.183   6.395  0.00  0.00     0.001 A 
HETATM   15  C   UNK N   1      28.978  18.215   6.988  0.00  0.00     0.010 A 
HETATM   16  C   UNK N   1      29.692  17.813   6.893  0.00  0.00    -0.020 A 
HETATM   17  C   UNK N   1      30.368  17.109   6.196  0.00  0.00     0.081 A 
HETATM   18  O   UNK N   1      30.942  16.747   6.047  0.00  0.00    -0.346 OA
HETATM   19  C   UNK N   1      31.008  17.079   6.732  0.00  0.00     0.229 A 
HETATM   20  C   UNK N   1      32.000  17.126   7.743  0.00  0.00     0.237 A 
HETATM   21  O   UNK N   1      32.014  16.352   6.299  0.00  0.00    -0.375 OA
ATOM     22  HO  UNK N   1      32.679  16.384   6.975  1.00  0.00     0.212 HD
HETATM   23  N   UNK N   1      33.436  16.309   7.537  0.00  0.00    -0.394 N 
HETATM   24  C   UNK N   1      30.296  17.813   7.454  0.00  0.00     0.078 A 
HETATM   25  C   UNK N   1      31.192  17.536   7.764  0.00  0.00    -0.046 A 
HETATM   26  C   UNK N   1      31.443  17.805   8.502  0.00  0.00     0.005 A 
HETATM   27  C   UNK N   1      32.186  17.591   8.790  0.00  0.00    -0.003 A 
HETATM   28  C   UNK N   1      32.679  17.108   8.339  0.00  0.00    -0.019 A 
HETATM   29  C   UNK N   1      32.841  16.343   7.049  0.00  0.00     0.045 A 
HETATM   30  C   UNK N   1      31.562  16.826   6.771  0.00  0.00     0.159 A 
HETATM   31  O   UNK N   1      32.280  16.479   6.783  0.00  0.00    -0.372 OA
HETATM   32  C   UNK N   1      33.711  15.716   6.677  0.00  0.00     0.271 A 
HETATM   33  C   UNK N   1      34.562  15.276   6.638  0.00  0.00     0.241 A 
HETATM   34  O   UNK N   1      34.593  15.603   7.281  0.00  0.00    -0.271 OA
HETATM   35  N   UNK N   1      35.293  14.798   6.415  0.00  0.00    -0.358 N 
HETATM   36  C   UNK N   1      35.973  14.238   5.992  0.00  0.00     0.142 A 
HETATM   37  C   UNK N   1      36.111  14.024   5.718  0.00  0.00     0.135 A 
HETATM   38  N   UNK N   1      37.006  14.042   6.581  0.00  0.00    -0.419 N 
HETATM   39  C   UNK N   1      37.953  13.050   5.593  0.00  0.00     0.142 C 
HETATM   40  C   UNK N   1      37.926  13.973   7.305  0.00  0.00     0.142 C 
HETATM   41  C   UNK N   1      32.884  16.355   7.110  0.00  0.00     0.048 A 
HETATM   42  C   UNK N   1      32.892  15.619   5.733  0.00  0.00    -0.046 A 
HETATM   43  C   UNK N   1      32.714  15.752   5.817  0.00  0.00     0.006 A 
HETATM   44  C   UNK N   1      31.604  15.989   5.235  0.00  0.00     0.001 A 
HETATM   45  C   UNK N   1      32.404  15.512   5.080  0.00  0.00     0.006 A 
HETATM   46  C   UNK N   1      32.458  15.152   4.453  0.00  0.00    -0.043 A 
HETATM   47  C   UNK N   1      33.567  14.915   5.035  0.00  0.00     0.180 A 
HETATM   48  O   UNK N   1      33.951  14.383   4.390  0.00  0.00    -0.368 OA
HETATM   49  C   UNK N   1      34.210  13.879   3.682  0.00  0.00     0.271 A 
HETATM   50  C   UNK N   1      33.599  13.767   2.904  0.00  0.00     0.241 A 
HETATM   51  O   UNK N   1      32.968  14.207   3.146  0.00  0.00    -0.271 OA
HETATM   52  N   UNK N   1      34.464  13.247   2.728  0.00  0.00    -0.358 N 
HETATM   53  C   UNK N   1      32.391  14.882   3.882  0.00  0.00     0.078 A 
HETATM   54  H   UNK N   1      33.692  15.768   6.755  0.00  0.00     0.155 HD
HETATM   55  H   UNK N   1      35.801  14.985   7.238  0.00  0.00     0.162 HD
HETATM   56  H   UNK N   1      35.305  13.093   3.217  0.00  0.00     0.162 HD
ENDROOT
BRANCH   1  57
HETATM   57  N   UNK N   1      27.202  17.686   4.344  0.00  0.00    -0.358 N 
HETATM   58  C   UNK N   1      26.272  18.002   4.222  0.00  0.00     0.142 A 
HETATM   59  C   UNK N   1      25.907  17.833   3.808  0.00  0.00     0.135 A 
HETATM   60  N   UNK N   1      25.460  18.465   4.350  0.00  0.00    -0.419 N 
HETATM   61  C   UNK N   1      23.887  18.663   3.721  0.00  0.00     0.142 C 
HETATM   62  C   UNK N   1      25.086  19.301   5.185  0.00  0.00     0.142 C 
HETATM   63  H   UNK N   1      27.454  18.209   5.139  0.00  0.00     0.162 HD
ENDBRANCH   1  57
BRANCH  23  64
HETATM   64  C   UNK N   1      34.260  16.544   8.744  0.00  0.00     0.146 A 
HETATM   65  C   UNK N   1      34.717  16.579   9.530  0.00  0.00     0.290 A 
HETATM   66  N   UNK N   1      34.449  16.201   9.506  0.00  0.00     0.081 N 
HETATM   67  C   UNK N   1      35.165  16.015  11.030  0.00  0.00     0.309 A 
HETATM   68  C   UNK N   1      34.062  15.047  10.212  0.00  0.00     0.309 C 
ENDBRANCH  23  64
BRANCH  52  69
HETATM   69  C   UNK N   1      33.916  12.836   1.446  0.00  0.00     0.152 A 
HETATM   70  C   UNK N   1      33.492  12.583   0.729  0.00  0.00     0.290 A 
HETATM   71  N   UNK N   1      34.514  12.623   0.016  0.00  0.00     0.081 N 
HETATM   72  C   UNK N   1      33.090  12.181  -0.644  0.00  0.00     0.309 A 
HETATM   73  C   UNK N   1      34.883  12.471  -0.955  0.00  0.00     0.309 C 
ENDBRANCH  52  69
TORSDOF 5
ENDMDL
MODEL 3
REMARK VINA RESULT:     -13.6      2.889      7.728
REMARK  5 active torsions:
REMARK  status: ('A' for Active; 'I' for Inactive)
REMARK    1  A    between atoms: N_6  and  C_7 
REMARK    2  A    between atoms: N_29  and  C_30 
REMARK    3  A    between atoms: C_36  and  C_41 
REMARK    4  A    between atoms: C_53  and  C_58 
REMARK    5  A    between atoms: N_63  and  C_64 
ROOT
HETATM    1  C   UNK N   1      30.477  17.310   5.190  0.00  0.00     0.241 A 
HETATM    2  O   UNK N   1      30.615  17.031   4.318  0.00  0.00    -0.271 OA
HETATM    3  C   UNK N   1      31.291  16.868   5.460  0.00  0.00     0.278 A 
HETATM    4  O   UNK N   1      32.761  16.014   5.699  0.00  0.00    -0.345 OA
HETATM    5  C   UNK N   1      32.777  15.775   4.671  0.00  0.00     0.061 A 
HETATM    6  C   UNK N   1      33.224  15.374   4.106  0.00  0.00    -0.024 A 
HETATM    7  C   UNK N   1      33.471  15.028   3.239  0.00  0.00     0.010 A 
HETATM    8  C   UNK N   1      32.276  15.735   3.100  0.00  0.00    -0.003 A 
HETATM    9  C   UNK N   1      31.829  16.136   3.665  0.00  0.00    -0.015 A 
HETATM   10  C   UNK N   1      32.578  15.831   4.369  0.00  0.00     0.070 A 
HETATM   11  C   UNK N   1      31.670  16.544   5.053  0.00  0.00     0.056 A 
HETATM   12  C   UNK N   1      32.196  16.541   6.500  0.00  0.00    -0.023 A 
HETATM   13  C   UNK N   1      31.038  17.319   6.781  0.00  0.00     0.010 A 
HETATM   14  C   UNK N   1      30.925  17.562   7.561  0.00  0.00     0.001 A 
HETATM   15  C   UNK N   1      31.472  17.354   8.142  0.00  0.00     0.010 A 
HETATM   16  C   UNK N   1      32.133  16.902   7.943  0.00  0.00    -0.020 A 
HETATM   17  C   UNK N   1      32.743  16.333   7.080  0.00  0.00     0.081 A 
HETATM   18  O   UNK N   1      33.273  15.952   6.840  0.00  0.00    -0.346 OA
HETATM   19  C   UNK N   1      33.351  16.072   7.591  0.00  0.00     0.229 A 
HETATM   20  C   UNK N   1      34.298  15.707   8.580  0.00  0.00     0.237 A 
HETATM   21  O   UNK N   1      34.274  15.365   6.978  0.00  0.00    -0.375 OA
ATOM     22  HO  UNK N   1      34.909  15.121   7.640  1.00  0.00     0.212 HD
HETATM   23  N   UNK N   1      35.627  14.794   8.162  0.00  0.00    -0.394 N 
HETATM   24  C   UNK N   1      32.708  16.667   8.485  0.00  0.00     0.078 A 
HETATM   25  C   UNK N   1      33.549  16.199   8.710  0.00  0.00    -0.046 A 
HETATM   26  C   UNK N   1      33.800  16.218   9.495  0.00  0.00     0.005 A 
HETATM   27  C   UNK N   1      34.497  15.837   9.716  0.00  0.00    -0.003 A 
HETATM   28  C   UNK N   1      34.944  15.435   9.151  0.00  0.00    -0.019 A 
HETATM   29  C   UNK N   1      35.061  15.040   7.700  0.00  0.00     0.045 A 
HETATM   30  C   UNK N   1      33.867  15.746   7.561  0.00  0.00     0.159 A 
HETATM   31  O   UNK N   1      34.534  15.317   7.480  0.00  0.00    -0.372 OA
HETATM   32  C   UNK N   1      35.860  14.430   7.172  0.00  0.00     0.271 A 
HETATM   33  C   UNK N   1      36.649  13.908   7.017  0.00  0.00     0.241 A 
HETATM   34  O   UNK N   1      36.695  14.038   7.726  0.00  0.00    -0.271 OA
HETATM   35  N   UNK N   1      37.323  13.416   6.674  0.00  0.00    -0.358 N 
HETATM   36  C   UNK N   1      37.944  12.908   6.115  0.00  0.00     0.142 A 
HETATM   37  C   UNK N   1      38.064  12.762   5.793  0.00  0.00     0.135 A 
HETATM   38  N   UNK N   1      38.918  12.422   6.632  0.00  0.00    -0.419 N 
HETATM   39  C   UNK N   1      39.772  11.623   5.412  0.00  0.00     0.142 C 
HETATM   40  C   UNK N   1      39.790  12.035   7.312  0.00  0.00     0.142 C 
HETATM   41  C   UNK N   1      35.103  15.028   7.762  0.00  0.00     0.048 A 
HETATM   42  C   UNK N   1      35.075  14.705   6.234  0.00  0.00    -0.046 A 
HETATM   43  C   UNK N   1      34.912  14.832   6.352  0.00  0.00     0.006 A 
HETATM   44  C   UNK N   1      33.867  15.366   5.853  0.00  0.00     0.001 A 
HETATM   45  C   UNK N   1      34.606  14.848   5.575  0.00  0.00     0.006 A 
HETATM   46  C   UNK N   1      34.640  14.671   4.873  0.00  0.00    -0.043 A 
HETATM   47  C   UNK N   1      35.685  14.137   5.372  0.00  0.00     0.180 A 
HETATM   48  O   UNK N   1      36.025  13.757   4.607  0.00  0.00    -0.368 OA
HETATM   49  C   UNK N   1      36.247  13.437   3.788  0.00  0.00     0.271 A 
HETATM   50  C   UNK N   1      35.660  13.625   3.006  0.00  0.00     0.241 A 
HETATM   51  O   UNK N   1      35.080  14.062   3.357  0.00  0.00    -0.271 OA
HETATM   52  N   UNK N   1      36.459  13.063   2.696  0.00  0.00    -0.358 N 
HETATM   53  C   UNK N   1      34.563  14.580   4.249  0.00  0.00     0.078 A 
HETATM   54  H   UNK N   1      35.844  14.460   7.262  0.00  0.00     0.155 HD
HETATM   55  H   UNK N   1      37.815  13.300   7.518  0.00  0.00     0.162 HD
HETATM   56  H   UNK N   1      37.252  12.670   3.128  0.00  0.00     0.162 HD
ENDROOT
BRANCH   1  57
HETATM   57  N   UNK N   1      29.756  17.813   5.447  0.00  0.00    -0.358 N 
HETATM   58  C   UNK N   1      28.905  18.315   5.398  0.00  0.00     0.142 A 
HETATM   59  C   UNK N   1      28.580  18.389   4.926  0.00  0.00     0.135 A 
HETATM   60  N   UNK N   1      28.154  18.832   5.644  0.00  0.00    -0.419 N 
HETATM   61  C   UNK N   1      26.725  19.539   5.039  0.00  0.00     0.142 C 
HETATM   62  C   UNK N   1      27.788  19.331   6.717  0.00  0.00     0.142 C 
HETATM   63  H   UNK N   1      29.966  17.933   6.401  0.00  0.00     0.162 HD
ENDBRANCH   1  57
BRANCH  23  64
HETATM   64  C   UNK N   1      36.423  14.577   9.391  0.00  0.00     0.146 A 
HETATM   65  C   UNK N   1      36.851  14.330  10.156  0.00  0.00     0.290 A 
HETATM   66  N   UNK N   1      36.550  14.005  10.017  0.00  0.00     0.081 N 
HETATM   67  C   UNK N   1      37.187  13.305  11.421  0.00  0.00     0.309 A 
HETATM   68  C   UNK N   1      36.031  12.738  10.342  0.00  0.00     0.309 C 
ENDBRANCH  23  64
BRANCH  52  69
HETATM   69  C   UNK N   1      35.917  13.098   1.348  0.00  0.00     0.152 A 
HETATM   70  C   UNK N   1      35.508  13.064   0.581  0.00  0.00     0.290 A 
HETATM   71  N   UNK N   1      36.409  13.688  -0.015  0.00  0.00     0.081 N 
HETATM   72  C   UNK N   1      35.096  13.185  -0.842  0.00  0.00     0.309 A 
HETATM   73  C   UNK N   1      36.709  14.071  -0.945  0.00  0.00     0.309 C 
ENDBRANCH  52  69
TORSDOF 5
ENDMDL
MODEL 4
REMARK VINA RESULT:     -13.3      4.837      7.600
REMARK  5 active torsions:
REMARK  status: ('A' for Active; 'I' for Inactive)
REMARK    1  A    between atoms: N_6  and  C_7 
REMARK    2  A    between atoms: N_29  and  C_30 
REMARK    3  A    between atoms: C_36  and  C_41 
REMARK    4  A    between atoms: C_53  and  C_58 
REMARK    5  A    between atoms: N_63  and  C_64 
ROOT
HETATM    1  C   UNK N   1      35.108  10.770  14.473  0.00  0.00     0.241 A 
HETATM    2  O   UNK N   1      34.844   9.972  14.083  0.00  0.00    -0.271 OA
HETATM    3  C   UNK N   1      35.005  11.219  13.625  0.00  0.00     0.278 A 
HETATM    4  O   UNK N   1      34.752  11.793  12.028  0.00  0.00    -0.345 OA
HETATM    5  C   UNK N   1      34.472  10.819  11.733  0.00  0.00     0.061 A 
HETATM    6  C   UNK N   1      34.223  10.387  11.076  0.00  0.00    -0.024 A 
HETATM    7  C   UNK N   1      33.937   9.620  10.563  0.00  0.00     0.010 A 
HETATM    8  C   UNK N   1      34.158   9.206  11.877  0.00  0.00    -0.003 A 
HETATM    9  C   UNK N   1      34.406   9.638  12.534  0.00  0.00    -0.015 A 
HETATM   10  C   UNK N   1      34.434  10.484  11.877  0.00  0.00     0.070 A 
HETATM   11  C   UNK N   1      34.814  10.921  13.088  0.00  0.00     0.056 A 
HETATM   12  C   UNK N   1      35.089  12.421  12.882  0.00  0.00    -0.023 A 
HETATM   13  C   UNK N   1      35.415  12.416  14.267  0.00  0.00     0.010 A 
HETATM   14  C   UNK N   1      35.649  13.131  14.605  0.00  0.00     0.001 A 
HETATM   15  C   UNK N   1      35.687  13.813  14.142  0.00  0.00     0.010 A 
HETATM   16  C   UNK N   1      35.490  13.779  13.341  0.00  0.00    -0.020 A 
HETATM   17  C   UNK N   1      35.127  13.103  12.419  0.00  0.00     0.081 A 
HETATM   18  O   UNK N   1      34.948  13.000  11.756  0.00  0.00    -0.346 OA
HETATM   19  C   UNK N   1      35.133  13.732  11.869  0.00  0.00     0.229 A 
HETATM   20  C   UNK N   1      35.194  14.897  11.064  0.00  0.00     0.237 A 
HETATM   21  O   UNK N   1      34.768  13.367  10.660  0.00  0.00    -0.375 OA
ATOM     22  HO  UNK N   1      34.809  14.146  10.120  1.00  0.00     0.212 HD
HETATM   23  N   UNK N   1      34.794  14.813   9.450  0.00  0.00    -0.394 N 
HETATM   24  C   UNK N   1      35.512  14.431  12.836  0.00  0.00     0.078 A 
HETATM   25  C   UNK N   1      35.391  14.843  11.946  0.00  0.00    -0.046 A 
HETATM   26  C   UNK N   1      35.547  15.650  11.873  0.00  0.00     0.005 A 
HETATM   27  C   UNK N   1      35.456  16.024  11.144  0.00  0.00    -0.003 A 
HETATM   28  C   UNK N   1      35.208  15.592  10.487  0.00  0.00    -0.019 A 
HETATM   29  C   UNK N   1      34.792  14.239   9.964  0.00  0.00     0.045 A 
HETATM   30  C   UNK N   1      35.013  13.825  11.278  0.00  0.00     0.159 A 
HETATM   31  O   UNK N   1      34.847  13.905  10.502  0.00  0.00    -0.372 OA
HETATM   32  C   UNK N   1      34.478  13.926   8.919  0.00  0.00     0.271 A 
HETATM   33  C   UNK N   1      34.266  13.965   7.986  0.00  0.00     0.241 A 
HETATM   34  O   UNK N   1      34.446  14.650   8.125  0.00  0.00    -0.271 OA
HETATM   35  N   UNK N   1      34.028  13.797   7.132  0.00  0.00    -0.358 N 
HETATM   36  C   UNK N   1      33.743  13.412   6.279  0.00  0.00     0.142 A 
HETATM   37  C   UNK N   1      33.631  13.134   6.056  0.00  0.00     0.135 A 
HETATM   38  N   UNK N   1      33.672  14.134   5.317  0.00  0.00    -0.419 N 
HETATM   39  C   UNK N   1      33.160  13.175   4.023  0.00  0.00     0.142 C 
HETATM   40  C   UNK N   1      33.666  14.987   4.513  0.00  0.00     0.142 C 
HETATM   41  C   UNK N   1      34.800  14.309   9.934  0.00  0.00     0.048 A 
HETATM   42  C   UNK N   1      34.395  12.849   9.555  0.00  0.00    -0.046 A 
HETATM   43  C   UNK N   1      34.462  12.922   9.771  0.00  0.00     0.006 A 
HETATM   44  C   UNK N   1      34.554  12.200  10.818  0.00  0.00     0.001 A 
HETATM   45  C   UNK N   1      34.320  12.111   9.908  0.00  0.00     0.006 A 
HETATM   46  C   UNK N   1      34.124  11.451   9.681  0.00  0.00    -0.043 A 
HETATM   47  C   UNK N   1      34.032  12.172   8.634  0.00  0.00     0.180 A 
HETATM   48  O   UNK N   1      33.753  11.524   8.044  0.00  0.00    -0.368 OA
HETATM   49  C   UNK N   1      33.485  10.798   7.572  0.00  0.00     0.271 A 
HETATM   50  C   UNK N   1      33.401   9.915   8.026  0.00  0.00     0.241 A 
HETATM   51  O   UNK N   1      33.621  10.112   8.776  0.00  0.00    -0.271 OA
HETATM   52  N   UNK N   1      33.145   9.809   7.039  0.00  0.00    -0.358 N 
HETATM   53  C   UNK N   1      33.973  10.839   9.601  0.00  0.00     0.078 A 
HETATM   54  H   UNK N   1      34.505  14.007   8.962  0.00  0.00     0.155 HD
HETATM   55  H   UNK N   1      34.148  14.717   6.802  0.00  0.00     0.162 HD
HETATM   56  H   UNK N   1      33.090  10.407   6.258  0.00  0.00     0.162 HD
ENDROOT
BRANCH   1  57
HETATM   57  N   UNK N   1      35.333  10.843  15.358  0.00  0.00    -0.358 N 
HETATM   58  C   UNK N   1      35.637  10.596  16.266  0.00  0.00     0.142 A 
HETATM   59  C   UNK N   1      35.802  10.070  16.439  0.00  0.00     0.135 A 
HETATM   60  N   UNK N   1      35.873  10.653  17.178  0.00  0.00    -0.419 N 
HETATM   61  C   UNK N   1      36.439   9.739  18.502  0.00  0.00     0.142 C 
HETATM   62  C   UNK N   1      35.884  11.588  17.991  0.00  0.00     0.142 C 
HETATM   63  H   UNK N   1      35.156  11.802  15.496  0.00  0.00     0.162 HD
ENDBRANCH   1  57
BRANCH  23  64
HETATM   64  C   UNK N   1      34.953  16.170   8.880  0.00  0.00     0.146 A 
HETATM   65  C   UNK N   1      34.922  17.015   8.542  0.00  0.00     0.290 A 
HETATM   66  N   UNK N   1      34.499  16.862   8.658  0.00  0.00     0.081 N 
HETATM   67  C   UNK N   1      34.157  18.415   8.074  0.00  0.00     0.309 A 
HETATM   68  C   UNK N   1      33.140  17.225   8.686  0.00  0.00     0.309 C 
ENDBRANCH  23  64
BRANCH  52  69
HETATM   69  C   UNK N   1      32.900   8.399   7.289  0.00  0.00     0.152 A 
HETATM   70  C   UNK N   1      32.858   7.548   7.466  0.00  0.00     0.290 A 
HETATM   71  N   UNK N   1      31.644   7.471   7.191  0.00  0.00     0.081 N 
HETATM   72  C   UNK N   1      32.444   6.136   7.676  0.00  0.00     0.309 A 
HETATM   73  C   UNK N   1      30.821   6.821   7.136  0.00  0.00     0.309 C 
ENDBRANCH  52  69
TORSDOF 5
ENDMDL
MODEL 5
REMARK VINA RESULT:     -13.2      8.959     14.313
REMARK  5 active torsions:
REMARK  status: ('A' for Active; 'I' for Inactive)
REMARK    1  A    between atoms: N_6  and  C_7 
REMARK    2  A    between atoms: N_29  and  C_30 
REMARK    3  A    between atoms: C_36  and  C_41 
REMARK    4  A    between atoms: C_53  and  C_58 
REMARK    5  A    between atoms: N_63  and  C_64 
ROOT
HETATM    1  C   UNK N   1      36.881  12.509  12.433  0.00  0.00     0.241 A 
HETATM    2  O   UNK N   1      37.348  11.805  12.051  0.00  0.00    -0.271 OA
HETATM    3  C   UNK N   1      36.845  12.031  13.270  0.00  0.00     0.278 A 
HETATM    4  O   UNK N   1      36.909  11.000  14.641  0.00  0.00    -0.345 OA
HETATM    5  C   UNK N   1      37.440  10.289  14.070  0.00  0.00     0.061 A 
HETATM    6  C   UNK N   1      37.787   9.543  14.123  0.00  0.00    -0.024 A 
HETATM    7  C   UNK N   1      38.265   8.754  13.837  0.00  0.00     0.010 A 
HETATM    8  C   UNK N   1      38.185   9.630  12.754  0.00  0.00    -0.003 A 
HETATM    9  C   UNK N   1      37.837  10.376  12.700  0.00  0.00    -0.015 A 
HETATM   10  C   UNK N   1      37.570  10.246  13.730  0.00  0.00     0.070 A 
HETATM   11  C   UNK N   1      37.103  11.448  13.357  0.00  0.00     0.056 A 
HETATM   12  C   UNK N   1      36.425  12.002  14.622  0.00  0.00    -0.023 A 
HETATM   13  C   UNK N   1      36.134  13.133  13.810  0.00  0.00     0.010 A 
HETATM   14  C   UNK N   1      35.718  13.754  14.159  0.00  0.00     0.001 A 
HETATM   15  C   UNK N   1      35.489  13.704  14.949  0.00  0.00     0.010 A 
HETATM   16  C   UNK N   1      35.675  13.033  15.391  0.00  0.00    -0.020 A 
HETATM   17  C   UNK N   1      36.196  11.952  15.413  0.00  0.00     0.081 A 
HETATM   18  O   UNK N   1      36.386  11.359  15.721  0.00  0.00    -0.346 OA
HETATM   19  C   UNK N   1      36.010  11.805  16.214  0.00  0.00     0.229 A 
HETATM   20  C   UNK N   1      35.621  11.707  17.574  0.00  0.00     0.237 A 
HETATM   21  O   UNK N   1      36.442  10.639  16.641  0.00  0.00    -0.375 OA
ATOM     22  HO  UNK N   1      36.182  10.573  17.551  1.00  0.00     0.212 HD
HETATM   23  N   UNK N   1      36.004  10.345  18.452  0.00  0.00    -0.394 N 
HETATM   24  C   UNK N   1      35.469  12.933  16.183  0.00  0.00     0.078 A 
HETATM   25  C   UNK N   1      35.459  12.404  17.018  0.00  0.00    -0.046 A 
HETATM   26  C   UNK N   1      35.087  12.733  17.676  0.00  0.00     0.005 A 
HETATM   27  C   UNK N   1      35.062  12.316  18.388  0.00  0.00    -0.003 A 
HETATM   28  C   UNK N   1      35.409  11.570  18.441  0.00  0.00    -0.019 A 
HETATM   29  C   UNK N   1      36.170  10.490  17.713  0.00  0.00     0.045 A 
HETATM   30  C   UNK N   1      36.091  11.366  16.630  0.00  0.00     0.159 A 
HETATM   31  O   UNK N   1      36.217  10.769  17.145  0.00  0.00    -0.372 OA
HETATM   32  C   UNK N   1      36.543   9.484  18.084  0.00  0.00     0.271 A 
HETATM   33  C   UNK N   1      36.723   8.738  18.659  0.00  0.00     0.241 A 
HETATM   34  O   UNK N   1      36.364   9.182  19.101  0.00  0.00    -0.271 OA
HETATM   35  N   UNK N   1      36.985   7.958  19.029  0.00  0.00    -0.358 N 
HETATM   36  C   UNK N   1      37.351   7.075  19.233  0.00  0.00     0.142 A 
HETATM   37  C   UNK N   1      37.532   6.759  19.150  0.00  0.00     0.135 A 
HETATM   38  N   UNK N   1      37.208   6.635  20.345  0.00  0.00    -0.419 N 
HETATM   39  C   UNK N   1      37.944   5.114  20.368  0.00  0.00     0.142 C 
HETATM   40  C   UNK N   1      36.968   6.389  21.466  0.00  0.00     0.142 C 
HETATM   41  C   UNK N   1      36.143  10.499  17.784  0.00  0.00     0.048 A 
HETATM   42  C   UNK N   1      36.926   9.485  16.890  0.00  0.00    -0.046 A 
HETATM   43  C   UNK N   1      36.845   9.697  16.820  0.00  0.00     0.006 A 
HETATM   44  C   UNK N   1      36.970  10.206  15.658  0.00  0.00     0.001 A 
HETATM   45  C   UNK N   1      37.206   9.418  16.121  0.00  0.00     0.006 A 
HETATM   46  C   UNK N   1      37.572   8.914  15.750  0.00  0.00    -0.043 A 
HETATM   47  C   UNK N   1      37.447   8.405  16.912  0.00  0.00     0.180 A 
HETATM   48  O   UNK N   1      37.884   7.609  16.761  0.00  0.00    -0.368 OA
HETATM   49  C   UNK N   1      38.333   6.873  16.482  0.00  0.00     0.271 A 
HETATM   50  C   UNK N   1      38.661   6.819  15.543  0.00  0.00     0.241 A 
HETATM   51  O   UNK N   1      38.407   7.528  15.256  0.00  0.00    -0.271 OA
HETATM   52  N   UNK N   1      38.922   5.960  16.039  0.00  0.00    -0.358 N 
HETATM   53  C   UNK N   1      37.883   8.554  15.329  0.00  0.00     0.078 A 
HETATM   54  H   UNK N   1      36.495   9.558  18.122  0.00  0.00     0.155 HD
HETATM   55  H   UNK N   1      36.612   8.132  19.924  0.00  0.00     0.162 HD
HETATM   56  H   UNK N   1      38.800   5.610  16.951  0.00  0.00     0.162 HD
ENDROOT
BRANCH   1  57
HETATM   57  N   UNK N   1      36.658  13.269  11.972  0.00  0.00    -0.358 N 
HETATM   58  C   UNK N   1      36.408  13.865  11.224  0.00  0.00     0.142 A 
HETATM   59  C   UNK N   1      36.329  13.708  10.674  0.00  0.00     0.135 A 
HETATM   60  N   UNK N   1      36.176  14.638  10.734  0.00  0.00    -0.419 N 
HETATM   61  C   UNK N   1      35.776  15.196   9.173  0.00  0.00     0.142 C 
HETATM   62  C   UNK N   1      36.028  15.826  11.051  0.00  0.00     0.142 C 
HETATM   63  H   UNK N   1      36.685  13.923  12.707  0.00  0.00     0.162 HD
ENDBRANCH   1  57
BRANCH  23  64
HETATM   64  C   UNK N   1      35.472  10.533  19.820  0.00  0.00     0.146 A 
HETATM   65  C   UNK N   1      35.051  10.568  20.627  0.00  0.00     0.290 A 
HETATM   66  N   UNK N   1      34.827  10.290  20.330  0.00  0.00     0.081 N 
HETATM   67  C   UNK N   1      33.853  10.174  21.710  0.00  0.00     0.309 A 
HETATM   68  C   UNK N   1      33.704   9.453  20.200  0.00  0.00     0.309 C 
ENDBRANCH  23  64
BRANCH  52  69
HETATM   69  C   UNK N   1      39.547   5.486  14.815  0.00  0.00     0.152 A 
HETATM   70  C   UNK N   1      39.827   5.223  14.034  0.00  0.00     0.290 A 
HETATM   71  N   UNK N   1      40.962   4.923  14.455  0.00  0.00     0.081 N 
HETATM   72  C   UNK N   1      40.607   4.710  12.878  0.00  0.00     0.309 A 
HETATM   73  C   UNK N   1      41.900   4.542  14.180  0.00  0.00     0.309 C 
ENDBRANCH  52  69
TORSDOF 5
ENDMDL
MODEL 6
REMARK VINA RESULT:     -13.2      7.260     11.431
REMARK  5 active torsions:
REMARK  status: ('A' for Active; 'I' for Inactive)
REMARK    1  A    between atoms: N_6  and  C_7 
REMARK    2  A    between atoms: N_29  and  C_30 
REMARK    3  A    between atoms: C_36  and  C_41 
REMARK    4  A    between atoms: C_53  and  C_58 
REMARK    5  A    between atoms: N_63  and  C_64 
ROOT
HETATM    1  C   UNK N   1      36.391  10.642  16.914  0.00  0.00     0.241 A 
HETATM    2  O   UNK N   1      36.785   9.820  16.750  0.00  0.00    -0.271 OA
HETATM    3  C   UNK N   1      36.535  10.895  15.994  0.00  0.00     0.278 A 
HETATM    4  O   UNK N   1      36.896  11.117  14.331  0.00  0.00    -0.345 OA
HETATM    5  C   UNK N   1      37.316  10.149  14.303  0.00  0.00     0.061 A 
HETATM    6  C   UNK N   1      37.683   9.616  13.791  0.00  0.00    -0.024 A 
HETATM    7  C   UNK N   1      38.109   8.799  13.504  0.00  0.00     0.010 A 
HETATM    8  C   UNK N   1      37.794   8.670  14.857  0.00  0.00    -0.003 A 
HETATM    9  C   UNK N   1      37.427   9.203  15.368  0.00  0.00    -0.015 A 
HETATM   10  C   UNK N   1      37.375   9.865  14.526  0.00  0.00     0.070 A 
HETATM   11  C   UNK N   1      36.817  10.511  15.561  0.00  0.00     0.056 A 
HETATM   12  C   UNK N   1      36.397  11.872  14.978  0.00  0.00    -0.023 A 
HETATM   13  C   UNK N   1      35.923  12.139  16.293  0.00  0.00     0.010 A 
HETATM   14  C   UNK N   1      35.573  12.874  16.428  0.00  0.00     0.001 A 
HETATM   15  C   UNK N   1      35.509  13.420  15.813  0.00  0.00     0.010 A 
HETATM   16  C   UNK N   1      35.795  13.231  15.063  0.00  0.00    -0.020 A 
HETATM   17  C   UNK N   1      36.333  12.418  14.363  0.00  0.00     0.081 A 
HETATM   18  O   UNK N   1      36.595  12.191  13.761  0.00  0.00    -0.346 OA
HETATM   19  C   UNK N   1      36.316  12.897  13.679  0.00  0.00     0.229 A 
HETATM   20  C   UNK N   1      36.212  13.827  12.614  0.00  0.00     0.237 A 
HETATM   21  O   UNK N   1      36.851  12.318  12.627  0.00  0.00    -0.375 OA
ATOM     22  HO  UNK N   1      36.781  12.941  11.914  1.00  0.00     0.212 HD
HETATM   23  N   UNK N   1      36.794  13.431  11.105  0.00  0.00    -0.394 N 
HETATM   24  C   UNK N   1      35.756  13.740  14.415  0.00  0.00     0.078 A 
HETATM   25  C   UNK N   1      35.926  13.951  13.465  0.00  0.00    -0.046 A 
HETATM   26  C   UNK N   1      35.687  14.690  13.187  0.00  0.00     0.005 A 
HETATM   27  C   UNK N   1      35.816  14.896  12.399  0.00  0.00    -0.003 A 
HETATM   28  C   UNK N   1      36.183  14.363  11.888  0.00  0.00    -0.019 A 
HETATM   29  C   UNK N   1      36.805  12.996  11.742  0.00  0.00     0.045 A 
HETATM   30  C   UNK N   1      36.489  12.868  13.095  0.00  0.00     0.159 A 
HETATM   31  O   UNK N   1      36.729  12.790  12.338  0.00  0.00    -0.372 OA
HETATM   32  C   UNK N   1      37.266  12.499  10.832  0.00  0.00     0.271 A 
HETATM   33  C   UNK N   1      37.574  12.351   9.936  0.00  0.00     0.241 A 
HETATM   34  O   UNK N   1      37.302  13.019   9.891  0.00  0.00    -0.271 OA
HETATM   35  N   UNK N   1      37.922  12.026   9.170  0.00  0.00    -0.358 N 
HETATM   36  C   UNK N   1      38.341  11.499   8.462  0.00  0.00     0.142 A 
HETATM   37  C   UNK N   1      38.508  11.195   8.322  0.00  0.00     0.135 A 
HETATM   38  N   UNK N   1      38.435  11.984   7.362  0.00  0.00    -0.419 N 
HETATM   39  C   UNK N   1      39.193  10.834   6.384  0.00  0.00     0.142 C 
HETATM   40  C   UNK N   1      38.432  12.623   6.380  0.00  0.00     0.142 C 
HETATM   41  C   UNK N   1      36.792  13.056  11.695  0.00  0.00     0.048 A 
HETATM   42  C   UNK N   1      37.400  11.617  11.713  0.00  0.00    -0.046 A 
HETATM   43  C   UNK N   1      37.302  11.728  11.899  0.00  0.00     0.006 A 
HETATM   44  C   UNK N   1      37.178  11.260  13.079  0.00  0.00     0.001 A 
HETATM   45  C   UNK N   1      37.520  10.997  12.239  0.00  0.00     0.006 A 
HETATM   46  C   UNK N   1      37.814  10.336  12.194  0.00  0.00    -0.043 A 
HETATM   47  C   UNK N   1      37.937  10.804  11.014  0.00  0.00     0.180 A 
HETATM   48  O   UNK N   1      38.352  10.082  10.622  0.00  0.00    -0.368 OA
HETATM   49  C   UNK N   1      38.752   9.311  10.363  0.00  0.00     0.271 A 
HETATM   50  C   UNK N   1      38.884   8.576  11.022  0.00  0.00     0.241 A 
HETATM   51  O   UNK N   1      38.562   8.907  11.682  0.00  0.00    -0.271 OA
HETATM   52  N   UNK N   1      39.258   8.283  10.113  0.00  0.00    -0.358 N 
HETATM   53  C   UNK N   1      38.041   9.749  12.276  0.00  0.00     0.078 A 
HETATM   54  H   UNK N   1      37.225  12.583  10.851  0.00  0.00     0.155 HD
HETATM   55  H   UNK N   1      37.734  12.821   8.620  0.00  0.00     0.162 HD
HETATM   56  H   UNK N   1      39.331   8.688   9.218  0.00  0.00     0.162 HD
ENDROOT
BRANCH   1  57
HETATM   57  N   UNK N   1      36.062  10.885  17.734  0.00  0.00    -0.358 N 
HETATM   58  C   UNK N   1      35.689  10.812  18.647  0.00  0.00     0.142 A 
HETATM   59  C   UNK N   1      35.565  10.322  18.926  0.00  0.00     0.135 A 
HETATM   60  N   UNK N   1      35.349  11.044  19.497  0.00  0.00    -0.419 N 
HETATM   61  C   UNK N   1      34.743  10.389  20.950  0.00  0.00     0.142 C 
HETATM   62  C   UNK N   1      35.146  12.130  20.058  0.00  0.00     0.142 C 
HETATM   63  H   UNK N   1      36.118  11.864  17.653  0.00  0.00     0.162 HD
ENDBRANCH   1  57
BRANCH  23  64
HETATM   64  C   UNK N   1      36.546  14.587  10.215  0.00  0.00     0.146 A 
HETATM   65  C   UNK N   1      36.284  15.237   9.633  0.00  0.00     0.290 A 
HETATM   66  N   UNK N   1      35.976  14.890   9.650  0.00  0.00     0.081 N 
HETATM   67  C   UNK N   1      35.259  15.931   8.523  0.00  0.00     0.309 A 
HETATM   68  C   UNK N   1      34.750  14.447   9.123  0.00  0.00     0.309 C 
ENDBRANCH  23  64
BRANCH  52  69
HETATM   69  C   UNK N   1      39.633   7.014  10.715  0.00  0.00     0.152 A 
HETATM   70  C   UNK N   1      39.813   6.292  11.166  0.00  0.00     0.290 A 
HETATM   71  N   UNK N   1      40.368   5.732  10.200  0.00  0.00     0.081 N 
HETATM   72  C   UNK N   1      40.263   4.953  11.629  0.00  0.00     0.309 A 
HETATM   73  C   UNK N   1      40.857   4.858   9.887  0.00  0.00     0.309 C 
ENDBRANCH  52  69
TORSDOF 5
ENDMDL
MODEL 7
REMARK VINA RESULT:     -13.1      8.655     12.912
REMARK  5 active torsions:
REMARK  status: ('A' for Active; 'I' for Inactive)
REMARK    1  A    between atoms: N_6  and  C_7 
REMARK    2  A    between atoms: N_29  and  C_30 
REMARK    3  A    between atoms: C_36  and  C_41 
REMARK    4  A    between atoms: C_53  and  C_58 
REMARK    5  A    between atoms: N_63  and  C_64 
ROOT
HETATM    1  C   UNK N   1      36.097   8.907  18.761  0.00  0.00     0.241 A 
HETATM    2  O   UNK N   1      36.472   8.129  18.429  0.00  0.00    -0.271 OA
HETATM    3  C   UNK N   1      36.259   9.346  17.916  0.00  0.00     0.278 A 
HETATM    4  O   UNK N   1      36.647   9.906  16.341  0.00  0.00    -0.345 OA
HETATM    5  C   UNK N   1      37.042   8.955  16.111  0.00  0.00     0.061 A 
HETATM    6  C   UNK N   1      37.402   8.532  15.501  0.00  0.00    -0.024 A 
HETATM    7  C   UNK N   1      37.812   7.784  15.049  0.00  0.00     0.010 A 
HETATM    8  C   UNK N   1      37.476   7.379  16.341  0.00  0.00    -0.003 A 
HETATM    9  C   UNK N   1      37.116   7.802  16.952  0.00  0.00    -0.015 A 
HETATM   10  C   UNK N   1      37.092   8.628  16.270  0.00  0.00     0.070 A 
HETATM   11  C   UNK N   1      36.537   9.055  17.414  0.00  0.00     0.056 A 
HETATM   12  C   UNK N   1      36.159  10.519  17.131  0.00  0.00    -0.023 A 
HETATM   13  C   UNK N   1      35.675  10.514  18.469  0.00  0.00     0.010 A 
HETATM   14  C   UNK N   1      35.342  11.213  18.755  0.00  0.00     0.001 A 
HETATM   15  C   UNK N   1      35.300  11.878  18.269  0.00  0.00     0.010 A 
HETATM   16  C   UNK N   1      35.591  11.846  17.498  0.00  0.00    -0.020 A 
HETATM   17  C   UNK N   1      36.117  11.185  16.645  0.00  0.00     0.081 A 
HETATM   18  O   UNK N   1      36.380  11.084  16.010  0.00  0.00    -0.346 OA
HETATM   19  C   UNK N   1      36.121  11.799  16.079  0.00  0.00     0.229 A 
HETATM   20  C   UNK N   1      36.054  12.936  15.235  0.00  0.00     0.237 A 
HETATM   21  O   UNK N   1      36.654  11.442  14.932  0.00  0.00    -0.375 OA
ATOM     22  HO  UNK N   1      36.609  12.203  14.366  1.00  0.00     0.212 HD
HETATM   23  N   UNK N   1      36.645  12.854  13.681  0.00  0.00    -0.394 N 
HETATM   24  C   UNK N   1      35.572  12.481  16.973  0.00  0.00     0.078 A 
HETATM   25  C   UNK N   1      35.760  12.884  16.091  0.00  0.00    -0.046 A 
HETATM   26  C   UNK N   1      35.544  13.672  15.975  0.00  0.00     0.005 A 
HETATM   27  C   UNK N   1      35.688  14.037  15.249  0.00  0.00    -0.003 A 
HETATM   28  C   UNK N   1      36.047  13.615  14.639  0.00  0.00    -0.019 A 
HETATM   29  C   UNK N   1      36.636  12.294  14.210  0.00  0.00     0.045 A 
HETATM   30  C   UNK N   1      36.300  11.890  15.503  0.00  0.00     0.159 A 
HETATM   31  O   UNK N   1      36.548  11.968  14.749  0.00  0.00    -0.372 OA
HETATM   32  C   UNK N   1      37.097  11.988  13.219  0.00  0.00     0.271 A 
HETATM   33  C   UNK N   1      37.412  12.025  12.315  0.00  0.00     0.241 A 
HETATM   34  O   UNK N   1      37.158  12.695  12.410  0.00  0.00    -0.271 OA
HETATM   35  N   UNK N   1      37.762  11.861  11.499  0.00  0.00    -0.358 N 
HETATM   36  C   UNK N   1      38.176  11.485  10.698  0.00  0.00     0.142 A 
HETATM   37  C   UNK N   1      38.338  11.214  10.498  0.00  0.00     0.135 A 
HETATM   38  N   UNK N   1      38.297  12.190   9.728  0.00  0.00    -0.419 N 
HETATM   39  C   UNK N   1      39.038  11.253   8.532  0.00  0.00     0.142 C 
HETATM   40  C   UNK N   1      38.323  13.023   8.903  0.00  0.00     0.142 C 
HETATM   41  C   UNK N   1      36.626  12.362  14.178  0.00  0.00     0.048 A 
HETATM   42  C   UNK N   1      37.197  10.936  13.893  0.00  0.00    -0.046 A 
HETATM   43  C   UNK N   1      37.099  11.007  14.098  0.00  0.00     0.006 A 
HETATM   44  C   UNK N   1      36.949  10.303  15.150  0.00  0.00     0.001 A 
HETATM   45  C   UNK N   1      37.294  10.216  14.276  0.00  0.00     0.006 A 
HETATM   46  C   UNK N   1      37.572   9.571  14.094  0.00  0.00    -0.043 A 
HETATM   47  C   UNK N   1      37.723  10.275  13.042  0.00  0.00     0.180 A 
HETATM   48  O   UNK N   1      38.124   9.642  12.508  0.00  0.00    -0.368 OA
HETATM   49  C   UNK N   1      38.507   8.933  12.094  0.00  0.00     0.271 A 
HETATM   50  C   UNK N   1      38.613   8.071  12.582  0.00  0.00     0.241 A 
HETATM   51  O   UNK N   1      38.291   8.264  13.295  0.00  0.00    -0.271 OA
HETATM   52  N   UNK N   1      38.990   7.968  11.634  0.00  0.00    -0.358 N 
HETATM   53  C   UNK N   1      37.784   8.974  14.051  0.00  0.00     0.078 A 
HETATM   54  H   UNK N   1      37.057  12.067  13.255  0.00  0.00     0.155 HD
HETATM   55  H   UNK N   1      37.602  12.760  11.129  0.00  0.00     0.162 HD
HETATM   56  H   UNK N   1      39.085   8.551  10.847  0.00  0.00     0.162 HD
ENDROOT
BRANCH   1  57
HETATM   57  N   UNK N   1      35.764   8.980  19.611  0.00  0.00    -0.358 N 
HETATM   58  C   UNK N   1      35.540   8.750  20.547  0.00  0.00     0.142 A 
HETATM   59  C   UNK N   1      35.671   8.256  20.817  0.00  0.00     0.135 A 
HETATM   60  N   UNK N   1      35.204   8.806  21.427  0.00  0.00    -0.419 N 
HETATM   61  C   UNK N   1      35.077   7.953  22.898  0.00  0.00     0.142 C 
HETATM   62  C   UNK N   1      34.586   9.688  22.040  0.00  0.00     0.142 C 
HETATM   63  H   UNK N   1      35.370   9.880  19.561  0.00  0.00     0.162 HD
ENDBRANCH   1  57
BRANCH  23  64
HETATM   64  C   UNK N   1      36.437  14.179  13.054  0.00  0.00     0.146 A 
HETATM   65  C   UNK N   1      36.213  14.938  12.605  0.00  0.00     0.290 A 
HETATM   66  N   UNK N   1      35.934  14.584  12.492  0.00  0.00     0.081 N 
HETATM   67  C   UNK N   1      35.308  15.835  11.537  0.00  0.00     0.309 A 
HETATM   68  C   UNK N   1      34.836  14.230  11.687  0.00  0.00     0.309 C 
ENDBRANCH  23  64
BRANCH  52  69
HETATM   69  C   UNK N   1      39.326   6.591  11.956  0.00  0.00     0.152 A 
HETATM   70  C   UNK N   1      39.446   5.770  12.220  0.00  0.00     0.290 A 
HETATM   71  N   UNK N   1      40.398   5.575  11.438  0.00  0.00     0.081 N 
HETATM   72  C   UNK N   1      39.912   4.375  12.430  0.00  0.00     0.309 A 
HETATM   73  C   UNK N   1      41.104   4.869  11.114  0.00  0.00     0.309 C 
ENDBRANCH  52  69
TORSDOF 5
ENDMDL
MODEL 8
REMARK VINA RESULT:     -13.1      1.365      2.127
REMARK  5 active torsions:
REMARK  status: ('A' for Active; 'I' for Inactive)
REMARK    1  A    between atoms: N_6  and  C_7 
REMARK    2  A    between atoms: N_29  and  C_30 
REMARK    3  A    between atoms: C_36  and  C_41 
REMARK    4  A    between atoms: C_53  and  C_58 
REMARK    5  A    between atoms: N_63  and  C_64 
ROOT
HETATM    1  C   UNK N   1      33.218  15.242   7.731  0.00  0.00     0.241 A 
HETATM    2  O   UNK N   1      33.415  14.471   7.256  0.00  0.00    -0.271 OA
HETATM    3  C   UNK N   1      32.381  15.320   7.258  0.00  0.00     0.278 A 
HETATM    4  O   UNK N   1      30.960  15.248   6.297  0.00  0.00    -0.345 OA
HETATM    5  C   UNK N   1      31.325  14.368   5.843  0.00  0.00     0.061 A 
HETATM    6  C   UNK N   1      31.128  13.802   5.276  0.00  0.00    -0.024 A 
HETATM    7  C   UNK N   1      31.224  13.015   4.724  0.00  0.00     0.010 A 
HETATM    8  C   UNK N   1      32.358  13.121   5.529  0.00  0.00    -0.003 A 
HETATM    9  C   UNK N   1      32.555  13.687   6.096  0.00  0.00    -0.015 A 
HETATM   10  C   UNK N   1      31.617  14.147   5.857  0.00  0.00     0.070 A 
HETATM   11  C   UNK N   1      32.188  14.901   6.809  0.00  0.00     0.056 A 
HETATM   12  C   UNK N   1      31.177  16.037   7.051  0.00  0.00    -0.023 A 
HETATM   13  C   UNK N   1      32.123  16.494   8.011  0.00  0.00     0.010 A 
HETATM   14  C   UNK N   1      31.939  17.181   8.429  0.00  0.00     0.001 A 
HETATM   15  C   UNK N   1      31.228  17.574   8.283  0.00  0.00     0.010 A 
HETATM   16  C   UNK N   1      30.703  17.280   7.719  0.00  0.00    -0.020 A 
HETATM   17  C   UNK N   1      30.467  16.430   6.905  0.00  0.00     0.081 A 
HETATM   18  O   UNK N   1      30.076  16.126   6.418  0.00  0.00    -0.346 OA
HETATM   19  C   UNK N   1      29.728  16.752   6.685  0.00  0.00     0.229 A 
HETATM   20  C   UNK N   1      28.505  17.418   6.425  0.00  0.00     0.237 A 
HETATM   21  O   UNK N   1      29.117  16.055   5.753  0.00  0.00    -0.375 OA
ATOM     22  HO  UNK N   1      28.298  16.501   5.578  1.00  0.00     0.212 HD
HETATM   23  N   UNK N   1      27.454  16.813   5.284  0.00  0.00    -0.394 N 
HETATM   24  C   UNK N   1      29.981  17.635   7.535  0.00  0.00     0.078 A 
HETATM   25  C   UNK N   1      29.136  17.669   7.024  0.00  0.00    -0.046 A 
HETATM   26  C   UNK N   1      28.619  18.293   7.180  0.00  0.00     0.005 A 
HETATM   27  C   UNK N   1      27.905  18.350   6.770  0.00  0.00    -0.003 A 
HETATM   28  C   UNK N   1      27.709  17.784   6.203  0.00  0.00    -0.019 A 
HETATM   29  C   UNK N   1      28.137  16.524   5.494  0.00  0.00     0.045 A 
HETATM   30  C   UNK N   1      29.272  16.629   6.299  0.00  0.00     0.159 A 
HETATM   31  O   UNK N   1      28.697  16.435   5.781  0.00  0.00    -0.372 OA
HETATM   32  C   UNK N   1      27.608  15.924   4.688  0.00  0.00     0.271 A 
HETATM   33  C   UNK N   1      26.950  15.644   4.050  0.00  0.00     0.241 A 
HETATM   34  O   UNK N   1      26.647  16.240   4.323  0.00  0.00    -0.271 OA
HETATM   35  N   UNK N   1      26.466  15.224   3.415  0.00  0.00    -0.358 N 
HETATM   36  C   UNK N   1      26.109  14.632   2.725  0.00  0.00     0.142 A 
HETATM   37  C   UNK N   1      26.119  14.334   2.499  0.00  0.00     0.135 A 
HETATM   38  N   UNK N   1      25.036  14.890   2.242  0.00  0.00    -0.419 N 
HETATM   39  C   UNK N   1      24.711  13.689   1.098  0.00  0.00     0.142 C 
HETATM   40  C   UNK N   1      23.994  15.307   1.903  0.00  0.00     0.142 C 
HETATM   41  C   UNK N   1      28.077  16.570   5.491  0.00  0.00     0.048 A 
HETATM   42  C   UNK N   1      28.665  15.271   4.853  0.00  0.00    -0.046 A 
HETATM   43  C   UNK N   1      28.770  15.402   5.021  0.00  0.00     0.006 A 
HETATM   44  C   UNK N   1      29.901  15.172   5.563  0.00  0.00     0.001 A 
HETATM   45  C   UNK N   1      29.334  14.796   4.908  0.00  0.00     0.006 A 
HETATM   46  C   UNK N   1      29.562  14.191   4.581  0.00  0.00    -0.043 A 
HETATM   47  C   UNK N   1      28.431  14.421   4.040  0.00  0.00     0.180 A 
HETATM   48  O   UNK N   1      28.405  13.704   3.464  0.00  0.00    -0.368 OA
HETATM   49  C   UNK N   1      28.505  12.964   2.950  0.00  0.00     0.271 A 
HETATM   50  C   UNK N   1      29.326  12.407   3.039  0.00  0.00     0.241 A 
HETATM   51  O   UNK N   1      29.722  12.815   3.610  0.00  0.00    -0.271 OA
HETATM   52  N   UNK N   1      28.715  11.993   2.327  0.00  0.00    -0.358 N 
HETATM   53  C   UNK N   1      29.862  13.673   4.369  0.00  0.00     0.078 A 
HETATM   54  H   UNK N   1      27.590  16.004   4.739  0.00  0.00     0.155 HD
HETATM   55  H   UNK N   1      25.708  15.853   3.422  0.00  0.00     0.162 HD
HETATM   56  H   UNK N   1      27.837  12.212   1.939  0.00  0.00     0.162 HD
ENDROOT
BRANCH   1  57
HETATM   57  N   UNK N   1      33.778  15.596   8.365  0.00  0.00    -0.358 N 
HETATM   58  C   UNK N   1      34.513  15.669   9.023  0.00  0.00     0.142 A 
HETATM   59  C   UNK N   1      34.890  15.254   9.160  0.00  0.00     0.135 A 
HETATM   60  N   UNK N   1      35.099  16.017   9.675  0.00  0.00    -0.419 N 
HETATM   61  C   UNK N   1      36.444  15.630  10.650  0.00  0.00     0.142 C 
HETATM   62  C   UNK N   1      35.182  17.120  10.233  0.00  0.00     0.142 C 
HETATM   63  H   UNK N   1      33.396  16.500   8.438  0.00  0.00     0.162 HD
ENDBRANCH   1  57
BRANCH  23  64
HETATM   64  C   UNK N   1      26.280  17.712   5.237  0.00  0.00     0.146 A 
HETATM   65  C   UNK N   1      25.614  18.320   5.106  0.00  0.00     0.290 A 
HETATM   66  N   UNK N   1      25.954  18.368   4.792  0.00  0.00     0.081 N 
HETATM   67  C   UNK N   1      24.877  19.590   4.327  0.00  0.00     0.309 A 
HETATM   68  C   UNK N   1      26.356  19.126   3.677  0.00  0.00     0.309 C 
ENDBRANCH  23  64
BRANCH  52  69
HETATM   69  C   UNK N   1      29.704  10.944   2.139  0.00  0.00     0.152 A 
HETATM   70  C   UNK N   1      30.366  10.395   2.008  0.00  0.00     0.290 A 
HETATM   71  N   UNK N   1      29.667   9.380   2.197  0.00  0.00     0.081 N 
HETATM   72  C   UNK N   1      31.250   9.211   1.847  0.00  0.00     0.309 A 
HETATM   73  C   UNK N   1      29.677   8.331   2.228  0.00  0.00     0.309 C 
ENDBRANCH  52  69
TORSDOF 5
ENDMDL
MODEL 9
REMARK VINA RESULT:     -13.0      1.853      7.661
REMARK  5 active torsions:
REMARK  status: ('A' for Active; 'I' for Inactive)
REMARK    1  A    between atoms: N_6  and  C_7 
REMARK    2  A    between atoms: N_29  and  C_30 
REMARK    3  A    between atoms: C_36  and  C_41 
REMARK    4  A    between atoms: C_53  and  C_58 
REMARK    5  A    between atoms: N_63  and  C_64 
ROOT
HETATM    1  C   UNK N   1      28.645  18.656   6.801  0.00  0.00     0.241 A 
HETATM    2  O   UNK N   1      29.161  18.631   7.570  0.00  0.00    -0.271 OA
HETATM    3  C   UNK N   1      29.117  17.888   6.458  0.00  0.00     0.278 A 
HETATM    4  O   UNK N   1      30.089  16.529   6.063  0.00  0.00    -0.345 OA
HETATM    5  C   UNK N   1      30.589  16.631   6.987  0.00  0.00     0.061 A 
HETATM    6  C   UNK N   1      31.187  16.290   7.441  0.00  0.00    -0.024 A 
HETATM    7  C   UNK N   1      31.782  16.165   8.192  0.00  0.00     0.010 A 
HETATM    8  C   UNK N   1      30.966  17.264   8.463  0.00  0.00    -0.003 A 
HETATM    9  C   UNK N   1      30.367  17.604   8.009  0.00  0.00    -0.015 A 
HETATM   10  C   UNK N   1      30.585  16.846   7.283  0.00  0.00     0.070 A 
HETATM   11  C   UNK N   1      29.590  17.591   6.778  0.00  0.00     0.056 A 
HETATM   12  C   UNK N   1      29.291  16.950   5.411  0.00  0.00    -0.023 A 
HETATM   13  C   UNK N   1      28.303  17.967   5.300  0.00  0.00     0.010 A 
HETATM   14  C   UNK N   1      27.848  17.981   4.611  0.00  0.00     0.001 A 
HETATM   15  C   UNK N   1      27.976  17.419   4.021  0.00  0.00     0.010 A 
HETATM   16  C   UNK N   1      28.559  16.843   4.120  0.00  0.00    -0.020 A 
HETATM   17  C   UNK N   1      29.419  16.388   4.821  0.00  0.00     0.081 A 
HETATM   18  O   UNK N   1      29.924  15.935   4.973  0.00  0.00    -0.346 OA
HETATM   19  C   UNK N   1      29.625  15.780   4.287  0.00  0.00     0.229 A 
HETATM   20  C   UNK N   1      29.855  14.809   3.281  0.00  0.00     0.237 A 
HETATM   21  O   UNK N   1      30.598  15.013   4.726  0.00  0.00    -0.375 OA
ATOM     22  HO  UNK N   1      30.752  14.362   4.052  1.00  0.00     0.212 HD
HETATM   23  N   UNK N   1      31.034  13.653   3.494  0.00  0.00    -0.394 N 
HETATM   24  C   UNK N   1      28.726  16.260   3.561  0.00  0.00     0.078 A 
HETATM   25  C   UNK N   1      29.239  15.473   3.255  0.00  0.00    -0.046 A 
HETATM   26  C   UNK N   1      29.052  15.156   2.517  0.00  0.00     0.005 A 
HETATM   27  C   UNK N   1      29.462  14.499   2.233  0.00  0.00    -0.003 A 
HETATM   28  C   UNK N   1      30.060  14.159   2.688  0.00  0.00    -0.019 A 
HETATM   29  C   UNK N   1      30.836  14.217   3.980  0.00  0.00     0.045 A 
HETATM   30  C   UNK N   1      30.020  15.316   4.251  0.00  0.00     0.159 A 
HETATM   31  O   UNK N   1      30.551  14.721   4.242  0.00  0.00    -0.372 OA
HETATM   32  C   UNK N   1      31.676  13.553   4.357  0.00  0.00     0.271 A 
HETATM   33  C   UNK N   1      32.333  12.856   4.400  0.00  0.00     0.241 A 
HETATM   34  O   UNK N   1      32.029  12.734   3.756  0.00  0.00    -0.271 OA
HETATM   35  N   UNK N   1      32.993  12.285   4.627  0.00  0.00    -0.358 N 
HETATM   36  C   UNK N   1      33.717  11.786   5.053  0.00  0.00     0.142 A 
HETATM   37  C   UNK N   1      33.959  11.713   5.329  0.00  0.00     0.135 A 
HETATM   38  N   UNK N   1      34.190  10.844   4.469  0.00  0.00    -0.419 N 
HETATM   39  C   UNK N   1      35.400  10.209   5.463  0.00  0.00     0.142 C 
HETATM   40  C   UNK N   1      34.511   9.976   3.749  0.00  0.00     0.142 C 
HETATM   41  C   UNK N   1      30.837  14.173   3.918  0.00  0.00     0.048 A 
HETATM   42  C   UNK N   1      31.543  14.371   5.297  0.00  0.00    -0.046 A 
HETATM   43  C   UNK N   1      31.366  14.506   5.212  0.00  0.00     0.006 A 
HETATM   44  C   UNK N   1      30.832  15.509   5.789  0.00  0.00     0.001 A 
HETATM   45  C   UNK N   1      31.509  14.871   5.948  0.00  0.00     0.006 A 
HETATM   46  C   UNK N   1      31.868  14.920   6.577  0.00  0.00    -0.043 A 
HETATM   47  C   UNK N   1      32.402  13.917   5.999  0.00  0.00     0.180 A 
HETATM   48  O   UNK N   1      33.017  13.696   6.647  0.00  0.00    -0.368 OA
HETATM   49  C   UNK N   1      33.570  13.587   7.357  0.00  0.00     0.271 A 
HETATM   50  C   UNK N   1      33.508  14.209   8.133  0.00  0.00     0.241 A 
HETATM   51  O   UNK N   1      32.913  14.694   7.888  0.00  0.00    -0.271 OA
HETATM   52  N   UNK N   1      34.245  13.519   8.314  0.00  0.00    -0.358 N 
HETATM   53  C   UNK N   1      32.107  15.061   7.148  0.00  0.00     0.078 A 
HETATM   54  H   UNK N   1      31.622  13.558   4.278  0.00  0.00     0.155 HD
HETATM   55  H   UNK N   1      32.955  11.743   3.805  0.00  0.00     0.162 HD
HETATM   56  H   UNK N   1      34.626  12.752   7.828  0.00  0.00     0.162 HD
ENDROOT
BRANCH   1  57
HETATM   57  N   UNK N   1      27.990  19.281   6.658  0.00  0.00    -0.358 N 
HETATM   58  C   UNK N   1      27.383  20.047   6.813  0.00  0.00     0.142 A 
HETATM   59  C   UNK N   1      27.364  20.376   7.287  0.00  0.00     0.135 A 
HETATM   60  N   UNK N   1      26.712  20.698   6.683  0.00  0.00    -0.419 N 
HETATM   61  C   UNK N   1      25.938  22.026   7.420  0.00  0.00     0.142 C 
HETATM   62  C   UNK N   1      25.937  20.937   5.746  0.00  0.00     0.142 C 
HETATM   63  H   UNK N   1      27.698  19.015   5.757  0.00  0.00     0.162 HD
ENDBRANCH   1  57
BRANCH  23  64
HETATM   64  C   UNK N   1      31.037  12.792   2.290  0.00  0.00     0.146 A 
HETATM   65  C   UNK N   1      30.964  12.183   1.616  0.00  0.00     0.290 A 
HETATM   66  N   UNK N   1      30.724  12.052   1.992  0.00  0.00     0.081 N 
HETATM   67  C   UNK N   1      30.419  10.772   0.925  0.00  0.00     0.309 A 
HETATM   68  C   UNK N   1      29.898  11.033   2.501  0.00  0.00     0.309 C 
ENDBRANCH  23  64
BRANCH  52  69
HETATM   69  C   UNK N   1      34.486  14.164   9.594  0.00  0.00     0.152 A 
HETATM   70  C   UNK N   1      34.598  14.641  10.313  0.00  0.00     0.290 A 
HETATM   71  N   UNK N   1      34.982  13.669  10.993  0.00  0.00     0.081 N 
HETATM   72  C   UNK N   1      34.891  15.145  11.680  0.00  0.00     0.309 A 
HETATM   73  C   UNK N   1      35.312  13.371  11.944  0.00  0.00     0.309 C 
ENDBRANCH  52  69
TORSDOF 5
ENDMDL
