MODEL 1
REMARK VINA RESULT:      -5.7      0.000      0.000
REMARK  1 active torsions:
REMARK  status: ('A' for Active; 'I' for Inactive)
REMARK       I    between atoms: C_2  and  N_11 
REMARK       I    between atoms: N_11  and  C_12 
REMARK    1  A    between atoms: C_12  and  O_14 
ROOT
HETATM    1  N   UNK N   1      35.475  17.176  10.322  0.00  0.00    -0.189 N 
HETATM    2  C   UNK N   1      35.161  16.052  11.016  0.00  0.00     0.687 A 
HETATM    3  N   UNK N   1      34.122  15.369  10.473  0.00  0.00    -0.189 N 
ATOM      4  HN  UNK N   1      33.708  14.495  10.794  1.00  0.00     0.184 HD
HETATM    5  C   UNK N   1      33.767  16.112   9.415  0.00  0.00     0.076 A 
HETATM    6  C   UNK N   1      32.743  15.874   8.504  0.00  0.00     0.032 A 
HETATM    7  C   UNK N   1      32.578  16.802   7.458  0.00  0.00     0.002 A 
HETATM    8  C   UNK N   1      33.436  17.923   7.353  0.00  0.00     0.002 A 
HETATM    9  C   UNK N   1      34.459  18.130   8.299  0.00  0.00     0.032 A 
HETATM   10  C   UNK N   1      34.585  17.193   9.320  0.00  0.00     0.076 A 
HETATM   11  N   UNK N   1      35.925  15.632  12.143  0.00  0.00    -0.135 N 
HETATM   12  C   UNK N   1      35.805  14.536  12.952  0.00  0.00     0.378 C 
HETATM   13  O   UNK N   1      36.687  14.331  13.767  0.00  0.00    -0.238 OA
HETATM   14  H   UNK N   1      36.190  17.826  10.510  0.00  0.00     0.184 HD
HETATM   15  H   UNK N   1      36.667  16.234  12.380  0.00  0.00     0.189 HD
ENDROOT
BRANCH  12  16
HETATM   16  O   UNK N   1      34.785  13.637  12.884  0.00  0.00    -0.308 OA
HETATM   17  C   UNK N   1      34.900  12.328  12.492  0.00  0.00     0.215 C 
ENDBRANCH  12  16
TORSDOF 1
ENDMDL
MODEL 2
REMARK VINA RESULT:      -5.7      4.474      5.689
REMARK  1 active torsions:
REMARK  status: ('A' for Active; 'I' for Inactive)
REMARK       I    between atoms: C_2  and  N_11 
REMARK       I    between atoms: N_11  and  C_12 
REMARK    1  A    between atoms: C_12  and  O_14 
ROOT
HETATM    1  N   UNK N   1      30.790  18.067   9.253  0.00  0.00    -0.189 N 
HETATM    2  C   UNK N   1      31.824  17.937   8.384  0.00  0.00     0.687 A 
HETATM    3  N   UNK N   1      31.447  17.417   7.188  0.00  0.00    -0.189 N 
ATOM      4  HN  UNK N   1      32.027  17.236   6.371  1.00  0.00     0.184 HD
HETATM    5  C   UNK N   1      30.133  17.199   7.334  0.00  0.00     0.076 A 
HETATM    6  C   UNK N   1      29.244  16.663   6.407  0.00  0.00     0.032 A 
HETATM    7  C   UNK N   1      27.895  16.548   6.795  0.00  0.00     0.002 A 
HETATM    8  C   UNK N   1      27.480  16.971   8.081  0.00  0.00     0.002 A 
HETATM    9  C   UNK N   1      28.413  17.504   8.991  0.00  0.00     0.032 A 
HETATM   10  C   UNK N   1      29.736  17.596   8.572  0.00  0.00     0.076 A 
HETATM   11  N   UNK N   1      33.135  18.390   8.709  0.00  0.00    -0.135 N 
HETATM   12  C   UNK N   1      34.294  18.385   7.982  0.00  0.00     0.378 C 
HETATM   13  O   UNK N   1      35.257  18.972   8.443  0.00  0.00    -0.238 OA
HETATM   14  H   UNK N   1      30.809  18.425  10.170  0.00  0.00     0.184 HD
HETATM   15  H   UNK N   1      33.223  18.772   9.612  0.00  0.00     0.189 HD
ENDROOT
BRANCH  12  16
HETATM   16  O   UNK N   1      34.434  17.800   6.761  0.00  0.00    -0.308 OA
HETATM   17  C   UNK N   1      34.642  16.463   6.535  0.00  0.00     0.215 C 
ENDBRANCH  12  16
TORSDOF 1
ENDMDL
MODEL 3
REMARK VINA RESULT:      -5.6     13.040     14.689
REMARK  1 active torsions:
REMARK  status: ('A' for Active; 'I' for Inactive)
REMARK       I    between atoms: C_2  and  N_11 
REMARK       I    between atoms: N_11  and  C_12 
REMARK    1  A    between atoms: C_12  and  O_14 
ROOT
HETATM    1  N   UNK N   1      44.070  21.830   3.272  0.00  0.00    -0.189 N 
HETATM    2  C   UNK N   1      44.188  23.045   2.678  0.00  0.00     0.687 A 
HETATM    3  N   UNK N   1      43.033  23.467   2.104  0.00  0.00    -0.189 N 
ATOM      4  HN  UNK N   1      42.858  24.342   1.613  1.00  0.00     0.184 HD
HETATM    5  C   UNK N   1      42.175  22.463   2.334  0.00  0.00     0.076 A 
HETATM    6  C   UNK N   1      40.841  22.369   1.951  0.00  0.00     0.032 A 
HETATM    7  C   UNK N   1      40.137  21.209   2.330  0.00  0.00     0.002 A 
HETATM    8  C   UNK N   1      40.781  20.193   3.076  0.00  0.00     0.002 A 
HETATM    9  C   UNK N   1      42.135  20.325   3.441  0.00  0.00     0.032 A 
HETATM   10  C   UNK N   1      42.795  21.482   3.042  0.00  0.00     0.076 A 
HETATM   11  N   UNK N   1      45.396  23.797   2.749  0.00  0.00    -0.135 N 
HETATM   12  C   UNK N   1      45.715  25.033   2.259  0.00  0.00     0.378 C 
HETATM   13  O   UNK N   1      46.785  25.517   2.586  0.00  0.00    -0.238 OA
HETATM   14  H   UNK N   1      44.759  21.322   3.759  0.00  0.00     0.184 HD
HETATM   15  H   UNK N   1      46.127  23.351   3.234  0.00  0.00     0.189 HD
ENDROOT
BRANCH  12  16
HETATM   16  O   UNK N   1      44.903  25.777   1.458  0.00  0.00    -0.308 OA
HETATM   17  C   UNK N   1      45.305  26.493   0.359  0.00  0.00     0.215 C 
ENDBRANCH  12  16
TORSDOF 1
ENDMDL
MODEL 4
REMARK VINA RESULT:      -5.6      2.387      5.994
REMARK  1 active torsions:
REMARK  status: ('A' for Active; 'I' for Inactive)
REMARK       I    between atoms: C_2  and  N_11 
REMARK       I    between atoms: N_11  and  C_12 
REMARK    1  A    between atoms: C_12  and  O_14 
ROOT
HETATM    1  N   UNK N   1      36.766  14.527  13.570  0.00  0.00    -0.189 N 
HETATM    2  C   UNK N   1      35.953  14.769  12.510  0.00  0.00     0.687 A 
HETATM    3  N   UNK N   1      34.979  13.835  12.367  0.00  0.00    -0.189 N 
ATOM      4  HN  UNK N   1      34.241  13.798  11.666  1.00  0.00     0.184 HD
HETATM    5  C   UNK N   1      35.215  12.972  13.365  0.00  0.00     0.076 A 
HETATM    6  C   UNK N   1      34.513  11.812  13.680  0.00  0.00     0.032 A 
HETATM    7  C   UNK N   1      34.948  11.074  14.798  0.00  0.00     0.002 A 
HETATM    8  C   UNK N   1      36.056  11.517  15.562  0.00  0.00     0.002 A 
HETATM    9  C   UNK N   1      36.741  12.695  15.207  0.00  0.00     0.032 A 
HETATM   10  C   UNK N   1      36.283  13.391  14.093  0.00  0.00     0.076 A 
HETATM   11  N   UNK N   1      36.096  15.939  11.710  0.00  0.00    -0.135 N 
HETATM   12  C   UNK N   1      35.378  16.387  10.635  0.00  0.00     0.378 C 
HETATM   13  O   UNK N   1      35.618  17.506  10.217  0.00  0.00    -0.238 OA
HETATM   14  H   UNK N   1      37.531  15.062  13.883  0.00  0.00     0.184 HD
HETATM   15  H   UNK N   1      36.839  16.527  11.977  0.00  0.00     0.189 HD
ENDROOT
BRANCH  12  16
HETATM   16  O   UNK N   1      34.388  15.681  10.024  0.00  0.00    -0.308 OA
HETATM   17  C   UNK N   1      34.418  15.218   8.733  0.00  0.00     0.215 C 
ENDBRANCH  12  16
TORSDOF 1
ENDMDL
MODEL 5
REMARK VINA RESULT:      -5.2     19.666     21.235
REMARK  1 active torsions:
REMARK  status: ('A' for Active; 'I' for Inactive)
REMARK       I    between atoms: C_2  and  N_11 
REMARK       I    between atoms: N_11  and  C_12 
REMARK    1  A    between atoms: C_12  and  O_14 
ROOT
HETATM    1  N   UNK N   1      26.407  24.060  -4.748  0.00  0.00    -0.189 N 
HETATM    2  C   UNK N   1      25.939  23.892  -6.011  0.00  0.00     0.687 A 
HETATM    3  N   UNK N   1      25.425  25.031  -6.540  0.00  0.00    -0.189 N 
ATOM      4  HN  UNK N   1      25.028  25.170  -7.468  1.00  0.00     0.184 HD
HETATM    5  C   UNK N   1      25.563  25.932  -5.556  0.00  0.00     0.076 A 
HETATM    6  C   UNK N   1      25.189  27.272  -5.562  0.00  0.00     0.032 A 
HETATM    7  C   UNK N   1      25.457  28.024  -4.401  0.00  0.00     0.002 A 
HETATM    8  C   UNK N   1      26.087  27.421  -3.286  0.00  0.00     0.002 A 
HETATM    9  C   UNK N   1      26.447  26.059  -3.321  0.00  0.00     0.032 A 
HETATM   10  C   UNK N   1      26.160  25.351  -4.483  0.00  0.00     0.076 A 
HETATM   11  N   UNK N   1      26.071  22.651  -6.698  0.00  0.00    -0.135 N 
HETATM   12  C   UNK N   1      25.705  22.280  -7.963  0.00  0.00     0.378 C 
HETATM   13  O   UNK N   1      26.066  21.187  -8.362  0.00  0.00    -0.238 OA
HETATM   14  H   UNK N   1      26.831  23.391  -4.163  0.00  0.00     0.184 HD
HETATM   15  H   UNK N   1      26.499  21.937  -6.173  0.00  0.00     0.189 HD
ENDROOT
BRANCH  12  16
HETATM   16  O   UNK N   1      24.994  23.064  -8.819  0.00  0.00    -0.308 OA
HETATM   17  C   UNK N   1      25.526  23.854  -9.806  0.00  0.00     0.215 C 
ENDBRANCH  12  16
TORSDOF 1
ENDMDL
MODEL 6
REMARK VINA RESULT:      -5.2      3.222      4.034
REMARK  1 active torsions:
REMARK  status: ('A' for Active; 'I' for Inactive)
REMARK       I    between atoms: C_2  and  N_11 
REMARK       I    between atoms: N_11  and  C_12 
REMARK    1  A    between atoms: C_12  and  O_14 
ROOT
HETATM    1  N   UNK N   1      33.370  17.833   6.665  0.00  0.00    -0.189 N 
HETATM    2  C   UNK N   1      34.060  16.987   7.473  0.00  0.00     0.687 A 
HETATM    3  N   UNK N   1      34.471  15.863   6.832  0.00  0.00    -0.189 N 
ATOM      4  HN  UNK N   1      35.013  15.087   7.210  1.00  0.00     0.184 HD
HETATM    5  C   UNK N   1      33.998  16.013   5.587  0.00  0.00     0.076 A 
HETATM    6  C   UNK N   1      34.126  15.141   4.510  0.00  0.00     0.032 A 
HETATM    7  C   UNK N   1      33.550  15.534   3.286  0.00  0.00     0.002 A 
HETATM    8  C   UNK N   1      32.877  16.774   3.177  0.00  0.00     0.002 A 
HETATM    9  C   UNK N   1      32.766  17.627   4.293  0.00  0.00     0.032 A 
HETATM   10  C   UNK N   1      33.344  17.199   5.484  0.00  0.00     0.076 A 
HETATM   11  N   UNK N   1      34.366  17.325   8.822  0.00  0.00    -0.135 N 
HETATM   12  C   UNK N   1      35.063  16.646   9.783  0.00  0.00     0.378 C 
HETATM   13  O   UNK N   1      35.309  17.227  10.826  0.00  0.00    -0.238 OA
HETATM   14  H   UNK N   1      32.982  18.708   6.893  0.00  0.00     0.184 HD
HETATM   15  H   UNK N   1      34.015  18.197   9.114  0.00  0.00     0.189 HD
ENDROOT
BRANCH  12  16
HETATM   16  O   UNK N   1      35.533  15.377   9.641  0.00  0.00    -0.308 OA
HETATM   17  C   UNK N   1      34.916  14.241  10.099  0.00  0.00     0.215 C 
ENDBRANCH  12  16
TORSDOF 1
ENDMDL
MODEL 7
REMARK VINA RESULT:      -5.2     12.327     14.169
REMARK  1 active torsions:
REMARK  status: ('A' for Active; 'I' for Inactive)
REMARK       I    between atoms: C_2  and  N_11 
REMARK       I    between atoms: N_11  and  C_12 
REMARK    1  A    between atoms: C_12  and  O_14 
ROOT
HETATM    1  N   UNK N   1      20.752  13.555  10.141  0.00  0.00    -0.189 N 
HETATM    2  C   UNK N   1      21.003  14.314   9.043  0.00  0.00     0.687 A 
HETATM    3  N   UNK N   1      22.300  14.260   8.650  0.00  0.00    -0.189 N 
ATOM      4  HN  UNK N   1      22.735  14.724   7.853  1.00  0.00     0.184 HD
HETATM    5  C   UNK N   1      22.876  13.454   9.552  0.00  0.00     0.076 A 
HETATM    6  C   UNK N   1      24.209  13.062   9.625  0.00  0.00     0.032 A 
HETATM    7  C   UNK N   1      24.571  12.186  10.668  0.00  0.00     0.002 A 
HETATM    8  C   UNK N   1      23.598  11.730  11.590  0.00  0.00     0.002 A 
HETATM    9  C   UNK N   1      22.260  12.155  11.483  0.00  0.00     0.032 A 
HETATM   10  C   UNK N   1      21.945  13.024  10.444  0.00  0.00     0.076 A 
HETATM   11  N   UNK N   1      19.963  15.010   8.363  0.00  0.00    -0.135 N 
HETATM   12  C   UNK N   1      19.989  15.790   7.240  0.00  0.00     0.378 C 
HETATM   13  O   UNK N   1      18.922  16.155   6.776  0.00  0.00    -0.238 OA
HETATM   14  H   UNK N   1      19.894  13.424  10.606  0.00  0.00     0.184 HD
HETATM   15  H   UNK N   1      19.072  14.912   8.770  0.00  0.00     0.189 HD
ENDROOT
BRANCH  12  16
HETATM   16  O   UNK N   1      21.123  16.159   6.585  0.00  0.00    -0.308 OA
HETATM   17  C   UNK N   1      21.481  17.445   6.269  0.00  0.00     0.215 C 
ENDBRANCH  12  16
TORSDOF 1
ENDMDL
MODEL 8
REMARK VINA RESULT:      -5.1      3.340      4.547
REMARK  1 active torsions:
REMARK  status: ('A' for Active; 'I' for Inactive)
REMARK       I    between atoms: C_2  and  N_11 
REMARK       I    between atoms: N_11  and  C_12 
REMARK    1  A    between atoms: C_12  and  O_14 
ROOT
HETATM    1  N   UNK N   1      31.449  16.357   7.077  0.00  0.00    -0.189 N 
HETATM    2  C   UNK N   1      32.390  16.529   8.040  0.00  0.00     0.687 A 
HETATM    3  N   UNK N   1      31.963  17.315   9.061  0.00  0.00    -0.189 N 
ATOM      4  HN  UNK N   1      32.470  17.582   9.903  1.00  0.00     0.184 HD
HETATM    5  C   UNK N   1      30.718  17.659   8.702  0.00  0.00     0.076 A 
HETATM    6  C   UNK N   1      29.820  18.469   9.389  0.00  0.00     0.032 A 
HETATM    7  C   UNK N   1      28.552  18.669   8.808  0.00  0.00     0.002 A 
HETATM    8  C   UNK N   1      28.224  18.055   7.575  0.00  0.00     0.002 A 
HETATM    9  C   UNK N   1      29.164  17.244   6.910  0.00  0.00     0.032 A 
HETATM   10  C   UNK N   1      30.406  17.077   7.514  0.00  0.00     0.076 A 
HETATM   11  N   UNK N   1      33.650  15.866   7.982  0.00  0.00    -0.135 N 
HETATM   12  C   UNK N   1      34.710  15.873   8.846  0.00  0.00     0.378 C 
HETATM   13  O   UNK N   1      35.623  15.095   8.632  0.00  0.00    -0.238 OA
HETATM   14  H   UNK N   1      31.517  15.827   6.250  0.00  0.00     0.184 HD
HETATM   15  H   UNK N   1      33.780  15.307   7.182  0.00  0.00     0.189 HD
ENDROOT
BRANCH  12  16
HETATM   16  O   UNK N   1      34.799  16.665   9.949  0.00  0.00    -0.308 OA
HETATM   17  C   UNK N   1      35.408  16.324  11.130  0.00  0.00     0.215 C 
ENDBRANCH  12  16
TORSDOF 1
ENDMDL
MODEL 9
REMARK VINA RESULT:      -5.1      1.645      2.480
REMARK  1 active torsions:
REMARK  status: ('A' for Active; 'I' for Inactive)
REMARK       I    between atoms: C_2  and  N_11 
REMARK       I    between atoms: N_11  and  C_12 
REMARK    1  A    between atoms: C_12  and  O_14 
ROOT
HETATM    1  N   UNK N   1      32.228  15.538   9.375  0.00  0.00    -0.189 N 
HETATM    2  C   UNK N   1      33.501  15.340   9.806  0.00  0.00     0.687 A 
HETATM    3  N   UNK N   1      34.431  15.838   8.953  0.00  0.00    -0.189 N 
ATOM      4  HN  UNK N   1      35.445  15.830   9.054  1.00  0.00     0.184 HD
HETATM    5  C   UNK N   1      33.704  16.345   7.947  0.00  0.00     0.076 A 
HETATM    6  C   UNK N   1      34.160  16.974   6.792  0.00  0.00     0.032 A 
HETATM    7  C   UNK N   1      33.190  17.440   5.883  0.00  0.00     0.002 A 
HETATM    8  C   UNK N   1      31.811  17.267   6.155  0.00  0.00     0.002 A 
HETATM    9  C   UNK N   1      31.392  16.621   7.334  0.00  0.00     0.032 A 
HETATM   10  C   UNK N   1      32.381  16.171   8.203  0.00  0.00     0.076 A 
HETATM   11  N   UNK N   1      33.777  14.740  11.068  0.00  0.00    -0.135 N 
HETATM   12  C   UNK N   1      34.962  14.480  11.699  0.00  0.00     0.378 C 
HETATM   13  O   UNK N   1      34.918  14.087  12.852  0.00  0.00    -0.238 OA
HETATM   14  H   UNK N   1      31.389  15.278   9.819  0.00  0.00     0.184 HD
HETATM   15  H   UNK N   1      32.978  14.465  11.573  0.00  0.00     0.189 HD
ENDROOT
BRANCH  12  16
HETATM   16  O   UNK N   1      36.189  14.664  11.140  0.00  0.00    -0.308 OA
HETATM   17  C   UNK N   1      36.963  13.684  10.573  0.00  0.00     0.215 C 
ENDBRANCH  12  16
TORSDOF 1
ENDMDL
