MODEL 1
REMARK VINA RESULT:      -7.8      0.000      0.000
REMARK  2 active torsions:
REMARK  status: ('A' for Active; 'I' for Inactive)
REMARK    1  A    between atoms: C_12  and  C_10 
REMARK       I    between atoms: N_16  and  C_14 
REMARK       I    between atoms: N_25  and  C_15 
REMARK    2  A    between atoms: S_30  and  N_26 
ROOT
HETATM    1  C   UNK N   1      20.091  14.579   9.784  0.00  0.00     0.066 A 
HETATM    2  C   UNK N   1      20.964  13.307   9.578  0.00  0.00     0.148 A 
HETATM    3  C   UNK N   1      20.503  17.897   4.136  0.00  0.00     0.167 C 
HETATM    4  C   UNK N   1      21.808  15.833   3.705  0.00  0.00     0.167 C 
HETATM    5  C   UNK N   1      19.814  17.610   2.799  0.00  0.00     0.188 C 
HETATM    6  C   UNK N   1      21.001  15.719   2.411  0.00  0.00     0.188 C 
HETATM    7  C   UNK N   1      20.207  15.282   8.468  0.00  0.00     0.017 A 
HETATM    8  C   UNK N   1      19.715  16.535   8.065  0.00  0.00     0.072 A 
HETATM    9  C   UNK N   1      20.956  14.554   7.613  0.00  0.00     0.141 A 
HETATM   10  C   UNK N   1      20.760  16.190   5.940  0.00  0.00     0.682 A 
HETATM   11  N   UNK N   1      20.007  16.955   6.795  0.00  0.00    -0.190 N 
ATOM     12  HN  UNK N   1      19.658  17.859   6.477  1.00  0.00     0.184 HD
HETATM   13  N   UNK N   1      21.249  14.987   6.363  0.00  0.00    -0.175 N 
ATOM     14  HN  UNK N   1      21.827  14.419   5.743  1.00  0.00     0.186 HD
HETATM   15  N   UNK N   1      21.051  16.653   4.628  0.00  0.00    -0.213 N 
HETATM   16  N   UNK N   1      21.410  13.364   8.194  0.00  0.00    -0.260 N 
HETATM   17  O   UNK N   1      20.733  17.011   1.914  0.00  0.00    -0.388 OA
ENDROOT
BRANCH   8  18
HETATM   18  C   UNK N   1      18.943  17.423   8.975  0.00  0.00     0.024 A 
HETATM   19  C   UNK N   1      19.544  18.556   9.535  0.00  0.00     0.121 A 
HETATM   20  N   UNK N   1      18.852  19.337  10.405  0.00  0.00    -0.201 N 
HETATM   21  C   UNK N   1      17.569  19.039  10.743  0.00  0.00     0.675 A 
HETATM   22  H   UNK N   1      19.286  20.130  10.796  0.00  0.00     0.183 HD
HETATM   23  N   UNK N   1      16.938  19.781  11.569  0.00  0.00    -0.234 N 
HETATM   24  N   UNK N   1      16.960  17.952  10.204  0.00  0.00    -0.201 N 
HETATM   25  H   UNK N   1      16.069  19.488  11.928  0.00  0.00     0.174 HD
ATOM     26  HN  UNK N   1      17.333  20.676  11.857  1.00  0.00     0.174 HD
HETATM   27  C   UNK N   1      17.621  17.144   9.337  0.00  0.00     0.121 A 
ATOM     28  HN  UNK N   1      15.994  17.740  10.456  1.00  0.00     0.183 HD
ENDBRANCH   8  18
BRANCH  16  29
HETATM   29  S   UNK N   1      22.761  12.393   7.542  0.00  0.00     0.230 S 
HETATM   30  C   UNK N   1      24.401  12.022   8.219  0.00  0.00     0.186 C 
HETATM   31  O   UNK N   1      22.704  11.794   8.957  0.00  0.00    -0.206 OA
HETATM   32  O   UNK N   1      23.563  13.671   7.838  0.00  0.00    -0.206 OA
ENDBRANCH  16  29
TORSDOF 2
ENDMDL
MODEL 2
REMARK VINA RESULT:      -7.5      1.704      5.038
REMARK  2 active torsions:
REMARK  status: ('A' for Active; 'I' for Inactive)
REMARK    1  A    between atoms: C_12  and  C_10 
REMARK       I    between atoms: N_16  and  C_14 
REMARK       I    between atoms: N_25  and  C_15 
REMARK    2  A    between atoms: S_30  and  N_26 
ROOT
HETATM    1  C   UNK N   1      20.721  18.083   6.353  0.00  0.00     0.066 A 
HETATM    2  C   UNK N   1      21.518  17.739   5.060  0.00  0.00     0.148 A 
HETATM    3  C   UNK N   1      21.176  12.740  10.139  0.00  0.00     0.167 C 
HETATM    4  C   UNK N   1      22.561  12.182   8.159  0.00  0.00     0.167 C 
HETATM    5  C   UNK N   1      22.364  12.250  10.972  0.00  0.00     0.188 C 
HETATM    6  C   UNK N   1      23.631  11.748   9.161  0.00  0.00     0.188 C 
HETATM    7  C   UNK N   1      20.874  16.845   7.179  0.00  0.00     0.017 A 
HETATM    8  C   UNK N   1      20.303  16.507   8.418  0.00  0.00     0.072 A 
HETATM    9  C   UNK N   1      21.656  15.949   6.540  0.00  0.00     0.141 A 
HETATM   10  C   UNK N   1      21.397  14.385   8.272  0.00  0.00     0.682 A 
HETATM   11  N   UNK N   1      20.588  15.272   8.935  0.00  0.00    -0.190 N 
ATOM     12  HN  UNK N   1      20.189  15.005   9.835  1.00  0.00     0.184 HD
HETATM   13  N   UNK N   1      21.921  14.725   7.057  0.00  0.00    -0.175 N 
ATOM     14  HN  UNK N   1      22.506  14.065   6.546  1.00  0.00     0.186 HD
HETATM   15  N   UNK N   1      21.674  13.107   8.831  0.00  0.00    -0.213 N 
HETATM   16  N   UNK N   1      22.093  16.425   5.299  0.00  0.00    -0.260 N 
HETATM   17  O   UNK N   1      23.008  11.192  10.297  0.00  0.00    -0.388 OA
ENDROOT
BRANCH   8  18
HETATM   18  C   UNK N   1      19.375  17.414   9.146  0.00  0.00     0.024 A 
HETATM   19  C   UNK N   1      19.823  18.651   9.621  0.00  0.00     0.121 A 
HETATM   20  N   UNK N   1      18.987  19.455  10.329  0.00  0.00    -0.201 N 
HETATM   21  C   UNK N   1      17.706  19.079  10.583  0.00  0.00     0.675 A 
HETATM   22  H   UNK N   1      19.315  20.322  10.663  0.00  0.00     0.183 HD
HETATM   23  N   UNK N   1      16.938  19.845  11.257  0.00  0.00    -0.234 N 
HETATM   24  N   UNK N   1      17.243  17.889  10.122  0.00  0.00    -0.201 N 
HETATM   25  H   UNK N   1      16.063  19.514  11.568  0.00  0.00     0.174 HD
ATOM     26  HN  UNK N   1      17.228  20.799  11.473  1.00  0.00     0.174 HD
HETATM   27  C   UNK N   1      18.050  17.056   9.417  0.00  0.00     0.121 A 
ATOM     28  HN  UNK N   1      16.277  17.618  10.308  1.00  0.00     0.183 HD
ENDBRANCH   8  18
BRANCH  16  29
HETATM   29  S   UNK N   1      22.750  15.376   4.008  0.00  0.00     0.230 S 
HETATM   30  C   UNK N   1      22.015  14.785   2.461  0.00  0.00     0.186 C 
HETATM   31  O   UNK N   1      22.207  16.515   3.130  0.00  0.00    -0.206 OA
HETATM   32  O   UNK N   1      21.447  14.596   4.252  0.00  0.00    -0.206 OA
ENDBRANCH  16  29
TORSDOF 2
ENDMDL
MODEL 3
REMARK VINA RESULT:      -7.1     10.850     13.663
REMARK  2 active torsions:
REMARK  status: ('A' for Active; 'I' for Inactive)
REMARK    1  A    between atoms: C_12  and  C_10 
REMARK       I    between atoms: N_16  and  C_14 
REMARK       I    between atoms: N_25  and  C_15 
REMARK    2  A    between atoms: S_30  and  N_26 
ROOT
HETATM    1  C   UNK N   1      35.139  14.502   7.233  0.00  0.00     0.066 A 
HETATM    2  C   UNK N   1      34.989  14.477   5.684  0.00  0.00     0.148 A 
HETATM    3  C   UNK N   1      30.020  17.984   9.412  0.00  0.00     0.167 C 
HETATM    4  C   UNK N   1      29.661  17.876   6.961  0.00  0.00     0.167 C 
HETATM    5  C   UNK N   1      28.553  17.563   9.536  0.00  0.00     0.188 C 
HETATM    6  C   UNK N   1      28.229  17.457   7.296  0.00  0.00     0.188 C 
HETATM    7  C   UNK N   1      33.944  15.287   7.673  0.00  0.00     0.017 A 
HETATM    8  C   UNK N   1      33.572  15.728   8.954  0.00  0.00     0.072 A 
HETATM    9  C   UNK N   1      33.188  15.624   6.607  0.00  0.00     0.141 A 
HETATM   10  C   UNK N   1      31.670  16.792   7.966  0.00  0.00     0.682 A 
HETATM   11  N   UNK N   1      32.430  16.475   9.063  0.00  0.00    -0.190 N 
ATOM     12  HN  UNK N   1      32.135  16.803   9.983  1.00  0.00     0.184 HD
HETATM   13  N   UNK N   1      32.066  16.374   6.727  0.00  0.00    -0.175 N 
ATOM     14  HN  UNK N   1      31.520  16.623   5.901  1.00  0.00     0.186 HD
HETATM   15  N   UNK N   1      30.490  17.573   8.108  0.00  0.00    -0.213 N 
HETATM   16  N   UNK N   1      33.732  15.153   5.407  0.00  0.00    -0.260 N 
HETATM   17  O   UNK N   1      27.813  18.116   8.471  0.00  0.00    -0.388 OA
ENDROOT
BRANCH   8  18
HETATM   18  C   UNK N   1      34.393  15.456  10.164  0.00  0.00     0.024 A 
HETATM   19  C   UNK N   1      35.412  16.338  10.541  0.00  0.00     0.121 A 
HETATM   20  N   UNK N   1      36.192  16.060  11.618  0.00  0.00    -0.201 N 
HETATM   21  C   UNK N   1      35.996  14.932  12.350  0.00  0.00     0.675 A 
HETATM   22  H   UNK N   1      36.909  16.686  11.872  0.00  0.00     0.183 HD
HETATM   23  N   UNK N   1      36.746  14.684  13.354  0.00  0.00    -0.234 N 
HETATM   24  N   UNK N   1      35.007  14.066  12.012  0.00  0.00    -0.201 N 
HETATM   25  H   UNK N   1      36.706  13.803  13.793  0.00  0.00     0.174 HD
ATOM     26  HN  UNK N   1      37.386  15.398  13.702  1.00  0.00     0.174 HD
HETATM   27  C   UNK N   1      34.211  14.305  10.939  0.00  0.00     0.121 A 
ATOM     28  HN  UNK N   1      34.860  13.225  12.572  1.00  0.00     0.183 HD
ENDBRANCH   8  18
BRANCH  16  29
HETATM   29  S   UNK N   1      33.269  15.773   3.795  0.00  0.00     0.230 S 
HETATM   30  C   UNK N   1      32.032  17.001   3.298  0.00  0.00     0.186 C 
HETATM   31  O   UNK N   1      33.432  17.116   4.524  0.00  0.00    -0.206 OA
HETATM   32  O   UNK N   1      31.857  15.392   4.272  0.00  0.00    -0.206 OA
ENDBRANCH  16  29
TORSDOF 2
ENDMDL
MODEL 4
REMARK VINA RESULT:      -6.9      3.619      6.264
REMARK  2 active torsions:
REMARK  status: ('A' for Active; 'I' for Inactive)
REMARK    1  A    between atoms: C_12  and  C_10 
REMARK       I    between atoms: N_16  and  C_14 
REMARK       I    between atoms: N_25  and  C_15 
REMARK    2  A    between atoms: S_30  and  N_26 
ROOT
HETATM    1  C   UNK N   1      19.996  16.789   5.242  0.00  0.00     0.066 A 
HETATM    2  C   UNK N   1      19.780  15.833   6.452  0.00  0.00     0.148 A 
HETATM    3  C   UNK N   1      26.506  17.295   4.576  0.00  0.00     0.167 C 
HETATM    4  C   UNK N   1      26.226  15.673   6.431  0.00  0.00     0.167 C 
HETATM    5  C   UNK N   1      27.494  16.284   3.986  0.00  0.00     0.188 C 
HETATM    6  C   UNK N   1      27.231  14.799   5.678  0.00  0.00     0.188 C 
HETATM    7  C   UNK N   1      21.486  16.852   5.127  0.00  0.00     0.017 A 
HETATM    8  C   UNK N   1      22.297  17.625   4.279  0.00  0.00     0.072 A 
HETATM    9  C   UNK N   1      22.061  16.049   6.048  0.00  0.00     0.141 A 
HETATM   10  C   UNK N   1      24.214  16.677   5.352  0.00  0.00     0.682 A 
HETATM   11  N   UNK N   1      23.654  17.511   4.417  0.00  0.00    -0.190 N 
ATOM     12  HN  UNK N   1      24.264  18.058   3.810  1.00  0.00     0.184 HD
HETATM   13  N   UNK N   1      23.406  15.955   6.183  0.00  0.00    -0.175 N 
ATOM     14  HN  UNK N   1      23.811  15.348   6.895  1.00  0.00     0.186 HD
HETATM   15  N   UNK N   1      25.627  16.581   5.476  0.00  0.00    -0.213 N 
HETATM   16  N   UNK N   1      21.112  15.397   6.842  0.00  0.00    -0.260 N 
HETATM   17  O   UNK N   1      28.173  15.625   5.031  0.00  0.00    -0.388 OA
ENDROOT
BRANCH   8  18
HETATM   18  C   UNK N   1      21.735  18.583   3.289  0.00  0.00     0.024 A 
HETATM   19  C   UNK N   1      20.791  18.157   2.349  0.00  0.00     0.121 A 
HETATM   20  N   UNK N   1      20.317  19.023   1.415  0.00  0.00    -0.201 N 
HETATM   21  C   UNK N   1      20.744  20.313   1.379  0.00  0.00     0.675 A 
HETATM   22  H   UNK N   1      19.656  18.711   0.756  0.00  0.00     0.183 HD
HETATM   23  N   UNK N   1      20.293  21.110   0.488  0.00  0.00    -0.234 N 
HETATM   24  N   UNK N   1      21.651  20.754   2.287  0.00  0.00    -0.201 N 
HETATM   25  H   UNK N   1      20.707  21.995   0.365  0.00  0.00     0.174 HD
ATOM     26  HN  UNK N   1      19.506  20.830  -0.096  1.00  0.00     0.174 HD
HETATM   27  C   UNK N   1      22.152  19.917   3.231  0.00  0.00     0.121 A 
ATOM     28  HN  UNK N   1      21.960  21.726   2.259  1.00  0.00     0.183 HD
ENDBRANCH   8  18
BRANCH  16  29
HETATM   29  S   UNK N   1      21.488  14.632   8.414  0.00  0.00     0.230 S 
HETATM   30  C   UNK N   1      20.414  14.127   9.783  0.00  0.00     0.186 C 
HETATM   31  O   UNK N   1      20.346  13.703   7.969  0.00  0.00    -0.206 OA
HETATM   32  O   UNK N   1      20.662  15.808   8.961  0.00  0.00    -0.206 OA
ENDBRANCH  16  29
TORSDOF 2
ENDMDL
MODEL 5
REMARK VINA RESULT:      -6.8      3.172      6.414
REMARK  2 active torsions:
REMARK  status: ('A' for Active; 'I' for Inactive)
REMARK    1  A    between atoms: C_12  and  C_10 
REMARK       I    between atoms: N_16  and  C_14 
REMARK       I    between atoms: N_25  and  C_15 
REMARK    2  A    between atoms: S_30  and  N_26 
ROOT
HETATM    1  C   UNK N   1      24.551  17.784   3.693  0.00  0.00     0.066 A 
HETATM    2  C   UNK N   1      25.695  16.892   4.258  0.00  0.00     0.148 A 
HETATM    3  C   UNK N   1      19.189  16.072   7.068  0.00  0.00     0.167 C 
HETATM    4  C   UNK N   1      20.992  14.712   8.092  0.00  0.00     0.167 C 
HETATM    5  C   UNK N   1      18.798  16.437   8.503  0.00  0.00     0.188 C 
HETATM    6  C   UNK N   1      20.451  15.200   9.437  0.00  0.00     0.188 C 
HETATM    7  C   UNK N   1      23.367  17.366   4.506  0.00  0.00     0.017 A 
HETATM    8  C   UNK N   1      22.018  17.747   4.403  0.00  0.00     0.072 A 
HETATM    9  C   UNK N   1      23.731  16.444   5.422  0.00  0.00     0.141 A 
HETATM   10  C   UNK N   1      21.523  16.244   6.197  0.00  0.00     0.682 A 
HETATM   11  N   UNK N   1      21.126  17.169   5.265  0.00  0.00    -0.190 N 
ATOM     12  HN  UNK N   1      20.142  17.432   5.215  1.00  0.00     0.184 HD
HETATM   13  N   UNK N   1      22.835  15.870   6.261  0.00  0.00    -0.175 N 
ATOM     14  HN  UNK N   1      23.138  15.167   6.936  1.00  0.00     0.186 HD
HETATM   15  N   UNK N   1      20.574  15.656   7.078  0.00  0.00    -0.213 N 
HETATM   16  N   UNK N   1      25.095  16.141   5.350  0.00  0.00    -0.260 N 
HETATM   17  O   UNK N   1      19.051  15.341   9.353  0.00  0.00    -0.388 OA
ENDROOT
BRANCH   8  18
HETATM   18  C   UNK N   1      21.533  18.703   3.373  0.00  0.00     0.024 A 
HETATM   19  C   UNK N   1      20.714  18.262   2.328  0.00  0.00     0.121 A 
HETATM   20  N   UNK N   1      20.313  19.128   1.360  0.00  0.00    -0.201 N 
HETATM   21  C   UNK N   1      20.692  20.433   1.391  0.00  0.00     0.675 A 
HETATM   22  H   UNK N   1      19.740  18.805   0.627  0.00  0.00     0.183 HD
HETATM   23  N   UNK N   1      20.312  21.230   0.468  0.00  0.00    -0.234 N 
HETATM   24  N   UNK N   1      21.477  20.889   2.400  0.00  0.00    -0.201 N 
HETATM   25  H   UNK N   1      20.704  22.132   0.405  0.00  0.00     0.174 HD
ATOM     26  HN  UNK N   1      19.605  20.933  -0.204  1.00  0.00     0.174 HD
HETATM   27  C   UNK N   1      21.903  20.053   3.381  0.00  0.00     0.121 A 
ATOM     28  HN  UNK N   1      21.750  21.872   2.421  1.00  0.00     0.183 HD
ENDBRANCH   8  18
BRANCH  16  29
HETATM   29  S   UNK N   1      25.828  14.679   6.074  0.00  0.00     0.230 S 
HETATM   30  C   UNK N   1      26.488  13.173   5.313  0.00  0.00     0.186 C 
HETATM   31  O   UNK N   1      26.890  14.967   5.001  0.00  0.00    -0.206 OA
HETATM   32  O   UNK N   1      24.777  13.964   5.208  0.00  0.00    -0.206 OA
ENDBRANCH  16  29
TORSDOF 2
ENDMDL
MODEL 6
REMARK VINA RESULT:      -6.6      8.388     10.703
REMARK  2 active torsions:
REMARK  status: ('A' for Active; 'I' for Inactive)
REMARK    1  A    between atoms: C_12  and  C_10 
REMARK       I    between atoms: N_16  and  C_14 
REMARK       I    between atoms: N_25  and  C_15 
REMARK    2  A    between atoms: S_30  and  N_26 
ROOT
HETATM    1  C   UNK N   1      30.899  14.320   5.315  0.00  0.00     0.066 A 
HETATM    2  C   UNK N   1      30.120  13.425   4.307  0.00  0.00     0.148 A 
HETATM    3  C   UNK N   1      27.852  20.133   5.181  0.00  0.00     0.167 C 
HETATM    4  C   UNK N   1      26.500  18.721   3.656  0.00  0.00     0.167 C 
HETATM    5  C   UNK N   1      26.518  20.534   5.816  0.00  0.00     0.188 C 
HETATM    6  C   UNK N   1      25.284  19.237   4.427  0.00  0.00     0.188 C 
HETATM    7  C   UNK N   1      30.154  15.617   5.256  0.00  0.00     0.017 A 
HETATM    8  C   UNK N   1      30.430  16.848   5.875  0.00  0.00     0.072 A 
HETATM    9  C   UNK N   1      29.099  15.512   4.421  0.00  0.00     0.141 A 
HETATM   10  C   UNK N   1      28.514  17.760   4.768  0.00  0.00     0.682 A 
HETATM   11  N   UNK N   1      29.589  17.895   5.611  0.00  0.00    -0.190 N 
ATOM     12  HN  UNK N   1      29.765  18.799   6.051  1.00  0.00     0.184 HD
HETATM   13  N   UNK N   1      28.281  16.560   4.159  0.00  0.00    -0.175 N 
ATOM     14  HN  UNK N   1      27.497  16.455   3.514  1.00  0.00     0.186 HD
HETATM   15  N   UNK N   1      27.659  18.866   4.510  0.00  0.00    -0.213 N 
HETATM   16  N   UNK N   1      29.004  14.238   3.850  0.00  0.00    -0.260 N 
HETATM   17  O   UNK N   1      25.516  20.570   4.825  0.00  0.00    -0.388 OA
ENDROOT
BRANCH   8  18
HETATM   18  C   UNK N   1      31.614  17.056   6.750  0.00  0.00     0.024 A 
HETATM   19  C   UNK N   1      31.508  16.889   8.135  0.00  0.00     0.121 A 
HETATM   20  N   UNK N   1      32.579  17.129   8.937  0.00  0.00    -0.201 N 
HETATM   21  C   UNK N   1      33.768  17.528   8.412  0.00  0.00     0.675 A 
HETATM   22  H   UNK N   1      32.492  17.011   9.911  0.00  0.00     0.183 HD
HETATM   23  N   UNK N   1      34.761  17.757   9.183  0.00  0.00    -0.234 N 
HETATM   24  N   UNK N   1      33.899  17.687   7.071  0.00  0.00    -0.201 N 
HETATM   25  H   UNK N   1      35.572  18.187   8.826  0.00  0.00     0.174 HD
ATOM     26  HN  UNK N   1      34.714  17.495  10.168  1.00  0.00     0.174 HD
HETATM   27  C   UNK N   1      32.851  17.463   6.239  0.00  0.00     0.121 A 
ATOM     28  HN  UNK N   1      34.798  17.978   6.684  1.00  0.00     0.183 HD
ENDBRANCH   8  18
BRANCH  16  29
HETATM   29  S   UNK N   1      28.035  13.872   2.393  0.00  0.00     0.230 S 
HETATM   30  C   UNK N   1      26.739  12.640   2.100  0.00  0.00     0.186 C 
HETATM   31  O   UNK N   1      26.893  13.948   3.419  0.00  0.00    -0.206 OA
HETATM   32  O   UNK N   1      28.529  12.441   2.666  0.00  0.00    -0.206 OA
ENDBRANCH  16  29
TORSDOF 2
ENDMDL
MODEL 7
REMARK VINA RESULT:      -6.6     16.741     18.240
REMARK  2 active torsions:
REMARK  status: ('A' for Active; 'I' for Inactive)
REMARK    1  A    between atoms: C_12  and  C_10 
REMARK       I    between atoms: N_16  and  C_14 
REMARK       I    between atoms: N_25  and  C_15 
REMARK    2  A    between atoms: S_30  and  N_26 
ROOT
HETATM    1  C   UNK N   1      25.797  25.945  -7.578  0.00  0.00     0.066 A 
HETATM    2  C   UNK N   1      25.563  24.797  -8.603  0.00  0.00     0.148 A 
HETATM    3  C   UNK N   1      30.021  23.507  -3.185  0.00  0.00     0.167 C 
HETATM    4  C   UNK N   1      29.783  21.685  -4.850  0.00  0.00     0.167 C 
HETATM    5  C   UNK N   1      31.530  23.287  -3.321  0.00  0.00     0.188 C 
HETATM    6  C   UNK N   1      31.311  21.627  -4.849  0.00  0.00     0.188 C 
HETATM    7  C   UNK N   1      26.775  25.342  -6.618  0.00  0.00     0.017 A 
HETATM    8  C   UNK N   1      27.302  25.856  -5.421  0.00  0.00     0.072 A 
HETATM    9  C   UNK N   1      27.111  24.096  -7.013  0.00  0.00     0.141 A 
HETATM   10  C   UNK N   1      28.497  23.802  -5.141  0.00  0.00     0.682 A 
HETATM   11  N   UNK N   1      28.160  25.061  -4.711  0.00  0.00    -0.190 N 
ATOM     12  HN  UNK N   1      28.561  25.413  -3.841  1.00  0.00     0.184 HD
HETATM   13  N   UNK N   1      27.953  23.315  -6.295  0.00  0.00    -0.175 N 
ATOM     14  HN  UNK N   1      28.180  22.372  -6.613  1.00  0.00     0.186 HD
HETATM   15  N   UNK N   1      29.389  22.997  -4.382  0.00  0.00    -0.213 N 
HETATM   16  N   UNK N   1      26.455  23.724  -8.192  0.00  0.00    -0.260 N 
HETATM   17  O   UNK N   1      31.787  21.920  -3.554  0.00  0.00    -0.388 OA
ENDROOT
BRANCH   8  18
HETATM   18  C   UNK N   1      26.922  27.191  -4.887  0.00  0.00     0.024 A 
HETATM   19  C   UNK N   1      27.469  28.355  -5.438  0.00  0.00     0.121 A 
HETATM   20  N   UNK N   1      27.159  29.571  -4.915  0.00  0.00    -0.201 N 
HETATM   21  C   UNK N   1      26.312  29.680  -3.858  0.00  0.00     0.675 A 
HETATM   22  H   UNK N   1      27.553  30.383  -5.309  0.00  0.00     0.183 HD
HETATM   23  N   UNK N   1      26.039  30.830  -3.375  0.00  0.00    -0.234 N 
HETATM   24  N   UNK N   1      25.759  28.567  -3.313  0.00  0.00    -0.201 N 
HETATM   25  H   UNK N   1      25.550  30.903  -2.523  0.00  0.00     0.174 HD
ATOM     26  HN  UNK N   1      26.327  31.674  -3.871  1.00  0.00     0.174 HD
HETATM   27  C   UNK N   1      26.050  27.335  -3.803  0.00  0.00     0.121 A 
ATOM     28  HN  UNK N   1      25.117  28.657  -2.524  1.00  0.00     0.183 HD
ENDBRANCH   8  18
BRANCH  16  29
HETATM   29  S   UNK N   1      26.302  22.033  -8.752  0.00  0.00     0.230 S 
HETATM   30  C   UNK N   1      26.715  21.259 -10.338  0.00  0.00     0.186 C 
HETATM   31  O   UNK N   1      27.754  22.292  -9.185  0.00  0.00    -0.206 OA
HETATM   32  O   UNK N   1      25.563  22.696  -9.926  0.00  0.00    -0.206 OA
ENDBRANCH  16  29
TORSDOF 2
ENDMDL
MODEL 8
REMARK VINA RESULT:      -6.6      4.610      7.028
REMARK  2 active torsions:
REMARK  status: ('A' for Active; 'I' for Inactive)
REMARK    1  A    between atoms: C_12  and  C_10 
REMARK       I    between atoms: N_16  and  C_14 
REMARK       I    between atoms: N_25  and  C_15 
REMARK    2  A    between atoms: S_30  and  N_26 
ROOT
HETATM    1  C   UNK N   1      25.052  18.559   3.941  0.00  0.00     0.066 A 
HETATM    2  C   UNK N   1      26.593  18.548   4.160  0.00  0.00     0.148 A 
HETATM    3  C   UNK N   1      22.759  13.563   7.528  0.00  0.00     0.167 C 
HETATM    4  C   UNK N   1      25.191  13.570   8.011  0.00  0.00     0.167 C 
HETATM    5  C   UNK N   1      22.568  13.475   9.045  0.00  0.00     0.188 C 
HETATM    6  C   UNK N   1      24.791  13.491   9.485  0.00  0.00     0.188 C 
HETATM    7  C   UNK N   1      24.585  17.419   4.791  0.00  0.00     0.017 A 
HETATM    8  C   UNK N   1      23.301  16.868   4.940  0.00  0.00     0.072 A 
HETATM    9  C   UNK N   1      25.629  16.862   5.440  0.00  0.00     0.141 A 
HETATM   10  C   UNK N   1      24.240  15.246   6.427  0.00  0.00     0.682 A 
HETATM   11  N   UNK N   1      23.165  15.785   5.767  0.00  0.00    -0.190 N 
ATOM     12  HN  UNK N   1      22.242  15.370   5.896  1.00  0.00     0.184 HD
HETATM   13  N   UNK N   1      25.483  15.783   6.247  0.00  0.00    -0.175 N 
ATOM     14  HN  UNK N   1      26.292  15.376   6.716  1.00  0.00     0.186 HD
HETATM   15  N   UNK N   1      24.070  14.119   7.278  0.00  0.00    -0.213 N 
HETATM   16  N   UNK N   1      26.837  17.497   5.136  0.00  0.00    -0.260 N 
HETATM   17  O   UNK N   1      23.617  12.720   9.609  0.00  0.00    -0.388 OA
ENDROOT
BRANCH   8  18
HETATM   18  C   UNK N   1      22.118  17.384   4.202  0.00  0.00     0.024 A 
HETATM   19  C   UNK N   1      21.613  18.660   4.476  0.00  0.00     0.121 A 
HETATM   20  N   UNK N   1      20.502  19.108   3.835  0.00  0.00    -0.201 N 
HETATM   21  C   UNK N   1      19.866  18.334   2.917  0.00  0.00     0.675 A 
HETATM   22  H   UNK N   1      20.154  20.006   4.039  0.00  0.00     0.183 HD
HETATM   23  N   UNK N   1      18.818  18.770   2.331  0.00  0.00    -0.234 N 
HETATM   24  N   UNK N   1      20.342  17.097   2.624  0.00  0.00    -0.201 N 
HETATM   25  H   UNK N   1      18.272  18.161   1.781  0.00  0.00     0.174 HD
ATOM     26  HN  UNK N   1      18.545  19.747   2.432  1.00  0.00     0.174 HD
HETATM   27  C   UNK N   1      21.445  16.612   3.249  0.00  0.00     0.121 A 
ATOM     28  HN  UNK N   1      19.863  16.525   1.927  1.00  0.00     0.183 HD
ENDBRANCH   8  18
BRANCH  16  29
HETATM   29  S   UNK N   1      28.444  16.775   5.441  0.00  0.00     0.230 S 
HETATM   30  C   UNK N   1      29.778  17.262   6.566  0.00  0.00     0.186 C 
HETATM   31  O   UNK N   1      27.975  16.924   6.897  0.00  0.00    -0.206 OA
HETATM   32  O   UNK N   1      28.922  18.213   5.178  0.00  0.00    -0.206 OA
ENDBRANCH  16  29
TORSDOF 2
ENDMDL
MODEL 9
REMARK VINA RESULT:      -6.6      9.706     12.482
REMARK  2 active torsions:
REMARK  status: ('A' for Active; 'I' for Inactive)
REMARK    1  A    between atoms: C_12  and  C_10 
REMARK       I    between atoms: N_16  and  C_14 
REMARK       I    between atoms: N_25  and  C_15 
REMARK    2  A    between atoms: S_30  and  N_26 
ROOT
HETATM    1  C   UNK N   1      30.918  18.073   8.999  0.00  0.00     0.066 A 
HETATM    2  C   UNK N   1      29.602  18.678   8.425  0.00  0.00     0.148 A 
HETATM    3  C   UNK N   1      32.327  12.981   5.106  0.00  0.00     0.167 C 
HETATM    4  C   UNK N   1      30.301  13.971   4.074  0.00  0.00     0.167 C 
HETATM    5  C   UNK N   1      32.916  12.985   3.692  0.00  0.00     0.188 C 
HETATM    6  C   UNK N   1      31.067  13.898   2.752  0.00  0.00     0.188 C 
HETATM    7  C   UNK N   1      31.198  16.936   8.068  0.00  0.00     0.017 A 
HETATM    8  C   UNK N   1      32.201  15.953   8.116  0.00  0.00     0.072 A 
HETATM    9  C   UNK N   1      30.269  16.893   7.090  0.00  0.00     0.141 A 
HETATM   10  C   UNK N   1      31.251  14.980   6.147  0.00  0.00     0.682 A 
HETATM   11  N   UNK N   1      32.199  14.994   7.140  0.00  0.00    -0.190 N 
ATOM     12  HN  UNK N   1      32.919  14.272   7.149  1.00  0.00     0.184 HD
HETATM   13  N   UNK N   1      30.271  15.931   6.136  0.00  0.00    -0.175 N 
ATOM     14  HN  UNK N   1      29.549  15.917   5.415  1.00  0.00     0.186 HD
HETATM   15  N   UNK N   1      31.271  13.969   5.148  0.00  0.00    -0.213 N 
HETATM   16  N   UNK N   1      29.316  17.909   7.224  0.00  0.00    -0.260 N 
HETATM   17  O   UNK N   1      31.890  12.753   2.753  0.00  0.00    -0.388 OA
ENDROOT
BRANCH   8  18
HETATM   18  C   UNK N   1      33.214  15.896   9.203  0.00  0.00     0.024 A 
HETATM   19  C   UNK N   1      34.196  16.887   9.309  0.00  0.00     0.121 A 
HETATM   20  N   UNK N   1      35.150  16.804  10.273  0.00  0.00    -0.201 N 
HETATM   21  C   UNK N   1      35.167  15.767  11.151  0.00  0.00     0.675 A 
HETATM   22  H   UNK N   1      35.838  17.506  10.335  0.00  0.00     0.183 HD
HETATM   23  N   UNK N   1      36.077  15.703  12.045  0.00  0.00    -0.234 N 
HETATM   24  N   UNK N   1      34.219  14.799  11.077  0.00  0.00    -0.201 N 
HETATM   25  H   UNK N   1      36.181  14.884  12.583  0.00  0.00     0.174 HD
ATOM     26  HN  UNK N   1      36.696  16.498  12.203  1.00  0.00     0.174 HD
HETATM   27  C   UNK N   1      33.253  14.843  10.124  0.00  0.00     0.121 A 
ATOM     28  HN  UNK N   1      34.232  14.028  11.746  1.00  0.00     0.183 HD
ENDBRANCH   8  18
BRANCH  16  29
HETATM   29  S   UNK N   1      27.726  17.895   6.406  0.00  0.00     0.230 S 
HETATM   30  C   UNK N   1      26.979  19.052   5.230  0.00  0.00     0.186 C 
HETATM   31  O   UNK N   1      28.617  18.163   5.182  0.00  0.00    -0.206 OA
HETATM   32  O   UNK N   1      27.641  19.320   6.978  0.00  0.00    -0.206 OA
ENDBRANCH  16  29
TORSDOF 2
ENDMDL
