MODEL 1
REMARK VINA RESULT:      -8.5      0.000      0.000
REMARK  15 active torsions:
REMARK  status: ('A' for Active; 'I' for Inactive)
REMARK    1  A    between atoms: C_2  and  C_3 
REMARK    2  A    between atoms: C_2  and  N_51 
REMARK       I    between atoms: C_3  and  N_5 
REMARK    3  A    between atoms: N_5  and  C_6 
REMARK    4  A    between atoms: C_6  and  C_8 
REMARK    5  A    between atoms: C_8  and  O_10 
REMARK    6  A    between atoms: O_10  and  C_11 
REMARK    7  A    between atoms: C_11  and  C_12 
REMARK    8  A    between atoms: C_12  and  O_13 
REMARK    9  A    between atoms: O_13  and  C_14 
REMARK   10  A    between atoms: C_17  and  C_20 
REMARK   11  A    between atoms: C_22  and  N_44 
REMARK   12  A    between atoms: C_25  and  S_29 
REMARK   13  A    between atoms: S_29  and  C_30 
REMARK   14  A    between atoms: C_30  and  C_31 
REMARK   15  A    between atoms: C_34  and  C_37 
ROOT
HETATM    1  C   UNK N   1      33.824  14.922   7.921  0.00  0.00     0.022 C 
HETATM    2  C   UNK N   1      33.621  13.644   7.382  0.00  0.00     0.101 C 
HETATM    3  C   UNK N   1      34.330  12.579   7.868  0.00  0.00     0.126 C 
HETATM    4  N   UNK N   1      35.076  12.735   9.002  0.00  0.00    -0.335 N 
ATOM      5  HN  UNK N   1      35.555  11.926   9.396  1.00  0.00     0.168 HD
HETATM    6  C   UNK N   1      35.199  13.954   9.626  0.00  0.00     0.093 C 
HETATM    7  C   UNK N   1      34.614  15.089   9.060  0.00  0.00     0.090 C 
HETATM    8  C   UNK N   1      34.913  16.391   9.620  0.00  0.00     0.103 C 
HETATM    9  N   UNK N   1      35.179  17.412  10.097  0.00  0.00    -0.191 NA
HETATM   10  C   UNK N   1      32.589  13.385   6.392  0.00  0.00     0.104 C 
HETATM   11  N   UNK N   1      31.738  13.197   5.632  0.00  0.00    -0.191 NA
ENDROOT
BRANCH   6  12
HETATM   12  S   UNK N   1      36.309  14.133  11.047  0.00  0.00    -0.105 SA
BRANCH  12  13
HETATM   13  C   UNK N   1      35.217  13.191  12.188  0.00  0.00     0.138 C 
BRANCH  13  14
HETATM   14  C   UNK N   1      35.572  13.604  13.565  0.00  0.00     0.026 A 
HETATM   15  C   UNK N   1      36.515  14.615  13.837  0.00  0.00     0.077 A 
HETATM   16  S   UNK N   1      36.822  14.463  15.464  0.00  0.00    -0.081 SA
HETATM   17  C   UNK N   1      35.831  13.179  15.760  0.00  0.00     0.084 A 
HETATM   18  N   UNK N   1      35.190  12.834  14.630  0.00  0.00    -0.352 N 
ATOM     19  HN  UNK N   1      34.500  12.086  14.573  1.00  0.00     0.166 HD
BRANCH  17  20
HETATM   20  C   UNK N   1      35.527  12.563  17.025  0.00  0.00    -0.002 A 
HETATM   21  C   UNK N   1      35.299  13.313  18.183  0.00  0.00     0.016 A 
HETATM   22  C   UNK N   1      35.076  12.657  19.397  0.00  0.00     0.024 A 
HETATM   23  C   UNK N   1      35.064  11.257  19.435  0.00  0.00     0.034 A 
HETATM   24  C   UNK N   1      35.298  10.520  18.276  0.00  0.00     0.024 A 
HETATM   25 Cl   UNK N   1      34.740  10.407  20.923  0.00  0.00    -0.084 Cl
HETATM   26  C   UNK N   1      35.554  11.175  17.080  0.00  0.00     0.016 A 
ENDBRANCH  17  20
ENDBRANCH  13  14
ENDBRANCH  12  13
ENDBRANCH   6  12
BRANCH   1  27
HETATM   27  C   UNK N   1      33.161  16.020   7.279  0.00  0.00    -0.022 A 
HETATM   28  C   UNK N   1      33.635  16.466   6.031  0.00  0.00     0.015 A 
HETATM   29  C   UNK N   1      32.760  17.051   5.147  0.00  0.00     0.037 A 
HETATM   30  C   UNK N   1      31.413  17.146   5.509  0.00  0.00     0.068 A 
HETATM   31  C   UNK N   1      30.985  16.775   6.777  0.00  0.00     0.037 A 
HETATM   32  C   UNK N   1      31.860  16.221   7.668  0.00  0.00     0.015 A 
BRANCH  30  33
HETATM   33  O   UNK N   1      30.511  17.687   4.689  0.00  0.00    -0.349 OA
BRANCH  33  34
HETATM   34  C   UNK N   1      29.665  16.907   3.949  0.00  0.00     0.202 C 
BRANCH  34  35
HETATM   35  C   UNK N   1      28.225  17.466   3.949  0.00  0.00     0.205 C 
BRANCH  35  36
HETATM   36  O   UNK N   1      27.678  17.745   5.198  0.00  0.00    -0.318 OA
BRANCH  36  37
HETATM   37  C   UNK N   1      27.048  18.907   5.543  0.00  0.00     0.281 C 
HETATM   38  O   UNK N   1      25.994  19.233   5.017  0.00  0.00    -0.263 OA
BRANCH  37  39
HETATM   39  C   UNK N   1      27.738  19.885   6.426  0.00  0.00     0.180 C 
HETATM   40  C   UNK N   1      27.352  21.331   6.186  0.00  0.00     0.043 C 
BRANCH  39  41
HETATM   41  N   UNK N   1      27.379  19.430   7.727  0.00  0.00    -0.346 N 
HETATM   42  C   UNK N   1      28.310  18.872   8.519  0.00  0.00     0.240 C 
HETATM   43  O   UNK N   1      29.488  19.184   8.411  0.00  0.00    -0.271 OA
HETATM   44  H   UNK N   1      26.452  19.525   8.044  0.00  0.00     0.163 HD
BRANCH  42  45
HETATM   45  C   UNK N   1      27.902  17.660   9.289  0.00  0.00     0.163 C 
HETATM   46  C   UNK N   1      29.061  17.006  10.011  0.00  0.00     0.041 C 
BRANCH  45  47
HETATM   47  N   UNK N   1      27.361  16.703   8.329  0.00  0.00    -0.419 N 
HETATM   48  H   UNK N   1      27.835  16.551   7.438  0.00  0.00     0.150 HD
HETATM   49  H   UNK N   1      26.509  16.187   8.548  0.00  0.00     0.150 HD
ENDBRANCH  45  47
ENDBRANCH  42  45
ENDBRANCH  39  41
ENDBRANCH  37  39
ENDBRANCH  36  37
ENDBRANCH  35  36
ENDBRANCH  34  35
ENDBRANCH  33  34
ENDBRANCH  30  33
ENDBRANCH   1  27
BRANCH   3  50
HETATM   50  N   UNK N   1      34.362  11.385   7.087  0.00  0.00    -0.366 N 
HETATM   51  C   UNK N   1      35.080  11.344   5.832  0.00  0.00     0.124 C 
HETATM   52  C   UNK N   1      34.504  10.178   5.075  0.00  0.00     0.021 C 
HETATM   53  C   UNK N   1      33.759   9.357   6.120  0.00  0.00     0.021 C 
HETATM   54  C   UNK N   1      33.512  10.271   7.318  0.00  0.00     0.124 C 
ENDBRANCH   3  50
TORSDOF 15
ENDMDL
MODEL 2
REMARK VINA RESULT:      -8.5      5.525     11.251
REMARK  15 active torsions:
REMARK  status: ('A' for Active; 'I' for Inactive)
REMARK    1  A    between atoms: C_2  and  C_3 
REMARK    2  A    between atoms: C_2  and  N_51 
REMARK       I    between atoms: C_3  and  N_5 
REMARK    3  A    between atoms: N_5  and  C_6 
REMARK    4  A    between atoms: C_6  and  C_8 
REMARK    5  A    between atoms: C_8  and  O_10 
REMARK    6  A    between atoms: O_10  and  C_11 
REMARK    7  A    between atoms: C_11  and  C_12 
REMARK    8  A    between atoms: C_12  and  O_13 
REMARK    9  A    between atoms: O_13  and  C_14 
REMARK   10  A    between atoms: C_17  and  C_20 
REMARK   11  A    between atoms: C_22  and  N_44 
REMARK   12  A    between atoms: C_25  and  S_29 
REMARK   13  A    between atoms: S_29  and  C_30 
REMARK   14  A    between atoms: C_30  and  C_31 
REMARK   15  A    between atoms: C_34  and  C_37 
ROOT
HETATM    1  C   UNK N   1      28.305  16.953   5.399  0.00  0.00     0.022 C 
HETATM    2  C   UNK N   1      27.286  17.906   5.266  0.00  0.00     0.101 C 
HETATM    3  C   UNK N   1      26.057  17.530   4.796  0.00  0.00     0.126 C 
HETATM    4  N   UNK N   1      25.776  16.200   4.654  0.00  0.00    -0.335 N 
ATOM      5  HN  UNK N   1      24.840  15.920   4.361  1.00  0.00     0.168 HD
HETATM    6  C   UNK N   1      26.721  15.230   4.894  0.00  0.00     0.093 C 
HETATM    7  C   UNK N   1      28.027  15.596   5.221  0.00  0.00     0.090 C 
HETATM    8  C   UNK N   1      29.053  14.575   5.280  0.00  0.00     0.103 C 
HETATM    9  N   UNK N   1      29.842  13.728   5.315  0.00  0.00    -0.191 NA
HETATM   10  C   UNK N   1      27.453  19.276   5.723  0.00  0.00     0.104 C 
HETATM   11  N   UNK N   1      27.598  20.351   6.126  0.00  0.00    -0.191 NA
ENDROOT
BRANCH   6  12
HETATM   12  S   UNK N   1      26.335  13.492   4.558  0.00  0.00    -0.105 SA
BRANCH  12  13
HETATM   13  C   UNK N   1      24.572  13.823   4.155  0.00  0.00     0.138 C 
BRANCH  13  14
HETATM   14  C   UNK N   1      23.756  13.055   5.124  0.00  0.00     0.026 A 
HETATM   15  C   UNK N   1      22.520  12.471   4.785  0.00  0.00     0.077 A 
HETATM   16  S   UNK N   1      21.849  12.050   6.245  0.00  0.00    -0.081 SA
HETATM   17  C   UNK N   1      23.058  12.609   7.216  0.00  0.00     0.084 A 
HETATM   18  N   UNK N   1      24.050  13.109   6.460  0.00  0.00    -0.352 N 
ATOM     19  HN  UNK N   1      24.919  13.485   6.837  1.00  0.00     0.166 HD
BRANCH  17  20
HETATM   20  C   UNK N   1      23.181  12.484   8.646  0.00  0.00    -0.002 A 
HETATM   21  C   UNK N   1      24.424  12.422   9.283  0.00  0.00     0.016 A 
HETATM   22  C   UNK N   1      24.480  12.231  10.668  0.00  0.00     0.024 A 
HETATM   23  C   UNK N   1      23.292  12.126  11.401  0.00  0.00     0.034 A 
HETATM   24  C   UNK N   1      22.060  12.182  10.753  0.00  0.00     0.024 A 
HETATM   25 Cl   UNK N   1      23.326  11.938  13.134  0.00  0.00    -0.084 Cl
HETATM   26  C   UNK N   1      22.008  12.336   9.376  0.00  0.00     0.016 A 
ENDBRANCH  17  20
ENDBRANCH  13  14
ENDBRANCH  12  13
ENDBRANCH   6  12
BRANCH   1  27
HETATM   27  C   UNK N   1      29.608  17.429   5.760  0.00  0.00    -0.022 A 
HETATM   28  C   UNK N   1      30.038  17.294   7.093  0.00  0.00     0.015 A 
HETATM   29  C   UNK N   1      31.381  17.173   7.360  0.00  0.00     0.037 A 
HETATM   30  C   UNK N   1      32.274  17.149   6.285  0.00  0.00     0.068 A 
HETATM   31  C   UNK N   1      31.834  17.367   4.985  0.00  0.00     0.037 A 
HETATM   32  C   UNK N   1      30.502  17.519   4.722  0.00  0.00     0.015 A 
BRANCH  30  33
HETATM   33  O   UNK N   1      33.587  17.016   6.476  0.00  0.00    -0.349 OA
BRANCH  33  34
HETATM   34  C   UNK N   1      34.103  15.940   7.145  0.00  0.00     0.202 C 
BRANCH  34  35
HETATM   35  C   UNK N   1      34.912  16.373   8.387  0.00  0.00     0.205 C 
BRANCH  35  36
HETATM   36  O   UNK N   1      35.084  15.405   9.372  0.00  0.00    -0.318 OA
BRANCH  36  37
HETATM   37  C   UNK N   1      36.094  15.383  10.291  0.00  0.00     0.281 C 
HETATM   38  O   UNK N   1      36.524  16.417  10.780  0.00  0.00    -0.263 OA
BRANCH  37  39
HETATM   39  C   UNK N   1      36.815  14.110  10.563  0.00  0.00     0.180 C 
HETATM   40  C   UNK N   1      38.111  13.945   9.793  0.00  0.00     0.043 C 
BRANCH  39  41
HETATM   41  N   UNK N   1      37.017  14.167  11.971  0.00  0.00    -0.346 N 
HETATM   42  C   UNK N   1      36.470  13.228  12.761  0.00  0.00     0.240 C 
HETATM   43  O   UNK N   1      36.260  12.101  12.336  0.00  0.00    -0.271 OA
HETATM   44  H   UNK N   1      37.555  14.891  12.363  0.00  0.00     0.163 HD
BRANCH  42  45
HETATM   45  C   UNK N   1      35.853  13.696  14.038  0.00  0.00     0.163 C 
HETATM   46  C   UNK N   1      36.877  13.977  15.117  0.00  0.00     0.041 C 
BRANCH  45  47
HETATM   47  N   UNK N   1      34.975  12.629  14.507  0.00  0.00    -0.419 N 
HETATM   48  H   UNK N   1      33.988  12.627  14.245  0.00  0.00     0.150 HD
HETATM   49  H   UNK N   1      35.347  11.885  15.096  0.00  0.00     0.150 HD
ENDBRANCH  45  47
ENDBRANCH  42  45
ENDBRANCH  39  41
ENDBRANCH  37  39
ENDBRANCH  36  37
ENDBRANCH  35  36
ENDBRANCH  34  35
ENDBRANCH  33  34
ENDBRANCH  30  33
ENDBRANCH   1  27
BRANCH   3  50
HETATM   50  N   UNK N   1      25.170  18.554   4.348  0.00  0.00    -0.366 N 
HETATM   51  C   UNK N   1      23.790  18.576   4.782  0.00  0.00     0.124 C 
HETATM   52  C   UNK N   1      23.064  19.425   3.773  0.00  0.00     0.021 C 
HETATM   53  C   UNK N   1      24.157  20.184   3.033  0.00  0.00     0.021 C 
HETATM   54  C   UNK N   1      25.468  19.439   3.278  0.00  0.00     0.124 C 
ENDBRANCH   3  50
TORSDOF 15
ENDMDL
MODEL 3
REMARK VINA RESULT:      -8.4      3.576      5.612
REMARK  15 active torsions:
REMARK  status: ('A' for Active; 'I' for Inactive)
REMARK    1  A    between atoms: C_2  and  C_3 
REMARK    2  A    between atoms: C_2  and  N_51 
REMARK       I    between atoms: C_3  and  N_5 
REMARK    3  A    between atoms: N_5  and  C_6 
REMARK    4  A    between atoms: C_6  and  C_8 
REMARK    5  A    between atoms: C_8  and  O_10 
REMARK    6  A    between atoms: O_10  and  C_11 
REMARK    7  A    between atoms: C_11  and  C_12 
REMARK    8  A    between atoms: C_12  and  O_13 
REMARK    9  A    between atoms: O_13  and  C_14 
REMARK   10  A    between atoms: C_17  and  C_20 
REMARK   11  A    between atoms: C_22  and  N_44 
REMARK   12  A    between atoms: C_25  and  S_29 
REMARK   13  A    between atoms: S_29  and  C_30 
REMARK   14  A    between atoms: C_30  and  C_31 
REMARK   15  A    between atoms: C_34  and  C_37 
ROOT
HETATM    1  C   UNK N   1      29.817  17.178   6.142  0.00  0.00     0.022 C 
HETATM    2  C   UNK N   1      30.376  16.437   5.092  0.00  0.00     0.101 C 
HETATM    3  C   UNK N   1      31.599  15.843   5.251  0.00  0.00     0.126 C 
HETATM    4  N   UNK N   1      32.167  15.809   6.493  0.00  0.00    -0.335 N 
ATOM      5  HN  UNK N   1      33.049  15.314   6.621  1.00  0.00     0.168 HD
HETATM    6  C   UNK N   1      31.582  16.426   7.574  0.00  0.00     0.093 C 
HETATM    7  C   UNK N   1      30.416  17.173   7.403  0.00  0.00     0.090 C 
HETATM    8  C   UNK N   1      29.921  17.972   8.506  0.00  0.00     0.103 C 
HETATM    9  N   UNK N   1      29.561  18.598   9.411  0.00  0.00    -0.191 NA
HETATM   10  C   UNK N   1      29.644  16.177   3.863  0.00  0.00     0.104 C 
HETATM   11  N   UNK N   1      29.028  15.954   2.910  0.00  0.00    -0.191 NA
ENDROOT
BRANCH   6  12
HETATM   12  S   UNK N   1      32.446  16.466   9.166  0.00  0.00    -0.105 SA
BRANCH  12  13
HETATM   13  C   UNK N   1      33.148  14.777   8.979  0.00  0.00     0.138 C 
BRANCH  13  14
HETATM   14  C   UNK N   1      34.315  14.691   9.887  0.00  0.00     0.026 A 
HETATM   15  C   UNK N   1      35.641  14.842   9.438  0.00  0.00     0.077 A 
HETATM   16  S   UNK N   1      36.569  14.319  10.714  0.00  0.00    -0.081 SA
HETATM   17  C   UNK N   1      35.340  13.914  11.734  0.00  0.00     0.084 A 
HETATM   18  N   UNK N   1      34.161  14.198  11.155  0.00  0.00    -0.352 N 
ATOM     19  HN  UNK N   1      33.257  14.062  11.607  1.00  0.00     0.166 HD
BRANCH  17  20
HETATM   20  C   UNK N   1      35.427  13.464  13.099  0.00  0.00    -0.002 A 
HETATM   21  C   UNK N   1      36.286  14.062  14.026  0.00  0.00     0.016 A 
HETATM   22  C   UNK N   1      36.379  13.537  15.319  0.00  0.00     0.024 A 
HETATM   23  C   UNK N   1      35.595  12.433  15.676  0.00  0.00     0.034 A 
HETATM   24  C   UNK N   1      34.748  11.842  14.741  0.00  0.00     0.024 A 
HETATM   25 Cl   UNK N   1      35.648  11.785  17.293  0.00  0.00    -0.084 Cl
HETATM   26  C   UNK N   1      34.684  12.343  13.449  0.00  0.00     0.016 A 
ENDBRANCH  17  20
ENDBRANCH  13  14
ENDBRANCH  12  13
ENDBRANCH   6  12
BRANCH   1  27
HETATM   27  C   UNK N   1      28.605  17.894   5.870  0.00  0.00    -0.022 A 
HETATM   28  C   UNK N   1      28.657  19.033   5.044  0.00  0.00     0.015 A 
HETATM   29  C   UNK N   1      27.552  19.381   4.304  0.00  0.00     0.037 A 
HETATM   30  C   UNK N   1      26.422  18.560   4.370  0.00  0.00     0.068 A 
HETATM   31  C   UNK N   1      26.365  17.490   5.255  0.00  0.00     0.037 A 
HETATM   32  C   UNK N   1      27.453  17.163   6.014  0.00  0.00     0.015 A 
BRANCH  30  33
HETATM   33  O   UNK N   1      25.324  18.833   3.664  0.00  0.00    -0.349 OA
BRANCH  33  34
HETATM   34  C   UNK N   1      25.213  19.991   2.942  0.00  0.00     0.202 C 
BRANCH  34  35
HETATM   35  C   UNK N   1      23.767  20.533   2.951  0.00  0.00     0.205 C 
BRANCH  35  36
HETATM   36  O   UNK N   1      22.793  19.669   3.441  0.00  0.00    -0.318 OA
BRANCH  36  37
HETATM   37  C   UNK N   1      21.452  19.774   3.206  0.00  0.00     0.281 C 
HETATM   38  O   UNK N   1      20.873  20.845   3.322  0.00  0.00    -0.263 OA
BRANCH  37  39
HETATM   39  C   UNK N   1      20.643  18.544   2.993  0.00  0.00     0.180 C 
HETATM   40  C   UNK N   1      20.237  18.300   1.552  0.00  0.00     0.043 C 
BRANCH  39  41
HETATM   41  N   UNK N   1      21.496  17.524   3.503  0.00  0.00    -0.346 N 
HETATM   42  C   UNK N   1      21.160  16.876   4.630  0.00  0.00     0.240 C 
HETATM   43  O   UNK N   1      19.986  16.744   4.947  0.00  0.00    -0.271 OA
HETATM   44  H   UNK N   1      22.328  17.296   3.030  0.00  0.00     0.163 HD
BRANCH  42  45
HETATM   45  C   UNK N   1      22.255  16.616   5.611  0.00  0.00     0.163 C 
HETATM   46  C   UNK N   1      21.738  16.178   6.966  0.00  0.00     0.041 C 
BRANCH  45  47
HETATM   47  N   UNK N   1      22.984  17.869   5.783  0.00  0.00    -0.419 N 
HETATM   48  H   UNK N   1      23.715  17.941   6.491  0.00  0.00     0.150 HD
HETATM   49  H   UNK N   1      22.763  18.672   5.194  0.00  0.00     0.150 HD
ENDBRANCH  45  47
ENDBRANCH  42  45
ENDBRANCH  39  41
ENDBRANCH  37  39
ENDBRANCH  36  37
ENDBRANCH  35  36
ENDBRANCH  34  35
ENDBRANCH  33  34
ENDBRANCH  30  33
ENDBRANCH   1  27
BRANCH   3  50
HETATM   50  N   UNK N   1      32.286  15.403   4.080  0.00  0.00    -0.366 N 
HETATM   51  C   UNK N   1      32.341  13.998   3.742  0.00  0.00     0.124 C 
HETATM   52  C   UNK N   1      33.507  13.854   2.802  0.00  0.00     0.021 C 
HETATM   53  C   UNK N   1      33.811  15.270   2.329  0.00  0.00     0.021 C 
HETATM   54  C   UNK N   1      33.164  16.227   3.328  0.00  0.00     0.124 C 
ENDBRANCH   3  50
TORSDOF 15
ENDMDL
MODEL 4
REMARK VINA RESULT:      -8.3      5.703     11.836
REMARK  15 active torsions:
REMARK  status: ('A' for Active; 'I' for Inactive)
REMARK    1  A    between atoms: C_2  and  C_3 
REMARK    2  A    between atoms: C_2  and  N_51 
REMARK       I    between atoms: C_3  and  N_5 
REMARK    3  A    between atoms: N_5  and  C_6 
REMARK    4  A    between atoms: C_6  and  C_8 
REMARK    5  A    between atoms: C_8  and  O_10 
REMARK    6  A    between atoms: O_10  and  C_11 
REMARK    7  A    between atoms: C_11  and  C_12 
REMARK    8  A    between atoms: C_12  and  O_13 
REMARK    9  A    between atoms: O_13  and  C_14 
REMARK   10  A    between atoms: C_17  and  C_20 
REMARK   11  A    between atoms: C_22  and  N_44 
REMARK   12  A    between atoms: C_25  and  S_29 
REMARK   13  A    between atoms: S_29  and  C_30 
REMARK   14  A    between atoms: C_30  and  C_31 
REMARK   15  A    between atoms: C_34  and  C_37 
ROOT
HETATM    1  C   UNK N   1      28.655  16.901   5.564  0.00  0.00     0.022 C 
HETATM    2  C   UNK N   1      27.641  17.855   5.405  0.00  0.00     0.101 C 
HETATM    3  C   UNK N   1      26.485  17.521   4.752  0.00  0.00     0.126 C 
HETATM    4  N   UNK N   1      26.250  16.212   4.441  0.00  0.00    -0.335 N 
ATOM      5  HN  UNK N   1      25.363  15.956   4.008  1.00  0.00     0.168 HD
HETATM    6  C   UNK N   1      27.178  15.229   4.694  0.00  0.00     0.093 C 
HETATM    7  C   UNK N   1      28.428  15.568   5.214  0.00  0.00     0.090 C 
HETATM    8  C   UNK N   1      29.459  14.554   5.293  0.00  0.00     0.103 C 
HETATM    9  N   UNK N   1      30.255  13.714   5.337  0.00  0.00    -0.191 NA
HETATM   10  C   UNK N   1      27.724  19.172   6.017  0.00  0.00     0.104 C 
HETATM   11  N   UNK N   1      27.798  20.199   6.543  0.00  0.00    -0.191 NA
ENDROOT
BRANCH   6  12
HETATM   12  S   UNK N   1      26.871  13.532   4.137  0.00  0.00    -0.105 SA
BRANCH  12  13
HETATM   13  C   UNK N   1      25.984  13.047   5.672  0.00  0.00     0.138 C 
BRANCH  13  14
HETATM   14  C   UNK N   1      24.556  13.387   5.472  0.00  0.00     0.026 A 
HETATM   15  C   UNK N   1      23.864  13.097   4.280  0.00  0.00     0.077 A 
HETATM   16  S   UNK N   1      22.453  13.966   4.402  0.00  0.00    -0.081 SA
HETATM   17  C   UNK N   1      22.747  14.667   5.864  0.00  0.00     0.084 A 
HETATM   18  N   UNK N   1      23.926  14.236   6.343  0.00  0.00    -0.352 N 
ATOM     19  HN  UNK N   1      24.307  14.508   7.248  1.00  0.00     0.166 HD
BRANCH  17  20
HETATM   20  C   UNK N   1      21.870  15.501   6.644  0.00  0.00    -0.002 A 
HETATM   21  C   UNK N   1      21.527  16.797   6.247  0.00  0.00     0.016 A 
HETATM   22  C   UNK N   1      20.726  17.585   7.080  0.00  0.00     0.024 A 
HETATM   23  C   UNK N   1      20.260  17.059   8.291  0.00  0.00     0.034 A 
HETATM   24  C   UNK N   1      20.614  15.768   8.679  0.00  0.00     0.024 A 
HETATM   25 Cl   UNK N   1      19.219  17.995   9.330  0.00  0.00    -0.084 Cl
HETATM   26  C   UNK N   1      21.437  15.002   7.867  0.00  0.00     0.016 A 
ENDBRANCH  17  20
ENDBRANCH  13  14
ENDBRANCH  12  13
ENDBRANCH   6  12
BRANCH   1  27
HETATM   27  C   UNK N   1      29.895  17.346   6.128  0.00  0.00    -0.022 A 
HETATM   28  C   UNK N   1      30.126  17.155   7.503  0.00  0.00     0.015 A 
HETATM   29  C   UNK N   1      31.414  17.007   7.958  0.00  0.00     0.037 A 
HETATM   30  C   UNK N   1      32.454  17.012   7.023  0.00  0.00     0.068 A 
HETATM   31  C   UNK N   1      32.210  17.286   5.683  0.00  0.00     0.037 A 
HETATM   32  C   UNK N   1      30.932  17.464   5.236  0.00  0.00     0.015 A 
BRANCH  30  33
HETATM   33  O   UNK N   1      33.725  16.856   7.397  0.00  0.00    -0.349 OA
BRANCH  33  34
HETATM   34  C   UNK N   1      34.307  17.700   8.304  0.00  0.00     0.202 C 
BRANCH  34  35
HETATM   35  C   UNK N   1      34.669  16.968   9.615  0.00  0.00     0.205 C 
BRANCH  35  36
HETATM   36  O   UNK N   1      35.744  16.088   9.547  0.00  0.00    -0.318 OA
BRANCH  36  37
HETATM   37  C   UNK N   1      35.649  14.738   9.358  0.00  0.00     0.281 C 
HETATM   38  O   UNK N   1      36.478  14.135   8.692  0.00  0.00    -0.263 OA
BRANCH  37  39
HETATM   39  C   UNK N   1      34.426  14.016   9.801  0.00  0.00     0.180 C 
HETATM   40  C   UNK N   1      33.549  13.514   8.671  0.00  0.00     0.043 C 
BRANCH  39  41
HETATM   41  N   UNK N   1      34.962  12.960  10.590  0.00  0.00    -0.346 N 
HETATM   42  C   UNK N   1      35.261  13.178  11.882  0.00  0.00     0.240 C 
HETATM   43  O   UNK N   1      34.653  14.020  12.528  0.00  0.00    -0.271 OA
HETATM   44  H   UNK N   1      35.113  12.073  10.191  0.00  0.00     0.163 HD
BRANCH  42  45
HETATM   45  C   UNK N   1      36.540  12.596  12.386  0.00  0.00     0.163 C 
HETATM   46  C   UNK N   1      36.721  12.781  13.878  0.00  0.00     0.041 C 
BRANCH  45  47
HETATM   47  N   UNK N   1      37.627  13.291  11.703  0.00  0.00    -0.419 N 
HETATM   48  H   UNK N   1      37.461  13.734  10.799  0.00  0.00     0.150 HD
HETATM   49  H   UNK N   1      38.552  13.334  12.130  0.00  0.00     0.150 HD
ENDBRANCH  45  47
ENDBRANCH  42  45
ENDBRANCH  39  41
ENDBRANCH  37  39
ENDBRANCH  36  37
ENDBRANCH  35  36
ENDBRANCH  34  35
ENDBRANCH  33  34
ENDBRANCH  30  33
ENDBRANCH   1  27
BRANCH   3  50
HETATM   50  N   UNK N   1      25.639  18.580   4.306  0.00  0.00    -0.366 N 
HETATM   51  C   UNK N   1      24.246  18.624   4.694  0.00  0.00     0.124 C 
HETATM   52  C   UNK N   1      23.575  19.520   3.689  0.00  0.00     0.021 C 
HETATM   53  C   UNK N   1      24.711  20.273   3.009  0.00  0.00     0.021 C 
HETATM   54  C   UNK N   1      25.995  19.489   3.274  0.00  0.00     0.124 C 
ENDBRANCH   3  50
TORSDOF 15
ENDMDL
MODEL 5
REMARK VINA RESULT:      -8.2      5.894     12.202
REMARK  15 active torsions:
REMARK  status: ('A' for Active; 'I' for Inactive)
REMARK    1  A    between atoms: C_2  and  C_3 
REMARK    2  A    between atoms: C_2  and  N_51 
REMARK       I    between atoms: C_3  and  N_5 
REMARK    3  A    between atoms: N_5  and  C_6 
REMARK    4  A    between atoms: C_6  and  C_8 
REMARK    5  A    between atoms: C_8  and  O_10 
REMARK    6  A    between atoms: O_10  and  C_11 
REMARK    7  A    between atoms: C_11  and  C_12 
REMARK    8  A    between atoms: C_12  and  O_13 
REMARK    9  A    between atoms: O_13  and  C_14 
REMARK   10  A    between atoms: C_17  and  C_20 
REMARK   11  A    between atoms: C_22  and  N_44 
REMARK   12  A    between atoms: C_25  and  S_29 
REMARK   13  A    between atoms: S_29  and  C_30 
REMARK   14  A    between atoms: C_30  and  C_31 
REMARK   15  A    between atoms: C_34  and  C_37 
ROOT
HETATM    1  C   UNK N   1      31.746  16.385   7.652  0.00  0.00     0.022 C 
HETATM    2  C   UNK N   1      32.085  15.573   6.561  0.00  0.00     0.101 C 
HETATM    3  C   UNK N   1      31.218  15.446   5.509  0.00  0.00     0.126 C 
HETATM    4  N   UNK N   1      30.128  16.267   5.441  0.00  0.00    -0.335 N 
ATOM      5  HN  UNK N   1      29.517  16.213   4.627  1.00  0.00     0.168 HD
HETATM    6  C   UNK N   1      29.832  17.164   6.441  0.00  0.00     0.093 C 
HETATM    7  C   UNK N   1      30.612  17.199   7.598  0.00  0.00     0.090 C 
HETATM    8  C   UNK N   1      30.177  18.007   8.719  0.00  0.00     0.103 C 
HETATM    9  N   UNK N   1      29.792  18.664   9.591  0.00  0.00    -0.191 NA
HETATM   10  C   UNK N   1      33.390  14.941   6.452  0.00  0.00     0.104 C 
HETATM   11  N   UNK N   1      34.447  14.479   6.371  0.00  0.00    -0.191 NA
ENDROOT
BRANCH   6  12
HETATM   12  S   UNK N   1      28.301  18.129   6.364  0.00  0.00    -0.105 SA
BRANCH  12  13
HETATM   13  C   UNK N   1      27.849  17.526   4.687  0.00  0.00     0.138 C 
BRANCH  13  14
HETATM   14  C   UNK N   1      26.901  18.510   4.115  0.00  0.00     0.026 A 
HETATM   15  C   UNK N   1      27.247  19.855   3.883  0.00  0.00     0.077 A 
HETATM   16  S   UNK N   1      25.795  20.609   3.589  0.00  0.00    -0.081 SA
HETATM   17  C   UNK N   1      24.818  19.294   3.778  0.00  0.00     0.084 A 
HETATM   18  N   UNK N   1      25.567  18.209   4.038  0.00  0.00    -0.352 N 
ATOM     19  HN  UNK N   1      25.187  17.271   4.162  1.00  0.00     0.166 HD
BRANCH  17  20
HETATM   20  C   UNK N   1      23.396  19.204   3.567  0.00  0.00    -0.002 A 
HETATM   21  C   UNK N   1      22.665  18.062   3.908  0.00  0.00     0.016 A 
HETATM   22  C   UNK N   1      21.298  18.007   3.616  0.00  0.00     0.024 A 
HETATM   23  C   UNK N   1      20.675  19.103   3.006  0.00  0.00     0.034 A 
HETATM   24  C   UNK N   1      21.417  20.232   2.666  0.00  0.00     0.024 A 
HETATM   25 Cl   UNK N   1      18.964  19.087   2.674  0.00  0.00    -0.084 Cl
HETATM   26  C   UNK N   1      22.778  20.270   2.925  0.00  0.00     0.016 A 
ENDBRANCH  17  20
ENDBRANCH  13  14
ENDBRANCH  12  13
ENDBRANCH   6  12
BRANCH   1  27
HETATM   27  C   UNK N   1      32.625  16.367   8.785  0.00  0.00    -0.022 A 
HETATM   28  C   UNK N   1      32.697  15.203   9.572  0.00  0.00     0.015 A 
HETATM   29  C   UNK N   1      33.861  14.914  10.244  0.00  0.00     0.037 A 
HETATM   30  C   UNK N   1      34.951  15.775  10.087  0.00  0.00     0.068 A 
HETATM   31  C   UNK N   1      34.829  16.960   9.373  0.00  0.00     0.037 A 
HETATM   32  C   UNK N   1      33.663  17.263   8.730  0.00  0.00     0.015 A 
BRANCH  30  33
HETATM   33  O   UNK N   1      36.114  15.542  10.698  0.00  0.00    -0.349 OA
BRANCH  33  34
HETATM   34  C   UNK N   1      36.990  14.605  10.223  0.00  0.00     0.202 C 
BRANCH  34  35
HETATM   35  C   UNK N   1      37.112  13.399  11.181  0.00  0.00     0.205 C 
BRANCH  35  36
HETATM   36  O   UNK N   1      36.103  13.269  12.131  0.00  0.00    -0.318 OA
BRANCH  36  37
HETATM   37  C   UNK N   1      35.298  12.176  12.284  0.00  0.00     0.281 C 
HETATM   38  O   UNK N   1      34.984  11.485  11.327  0.00  0.00    -0.263 OA
BRANCH  37  39
HETATM   39  C   UNK N   1      34.635  11.929  13.593  0.00  0.00     0.180 C 
HETATM   40  C   UNK N   1      34.024  10.548  13.737  0.00  0.00     0.043 C 
BRANCH  39  41
HETATM   41  N   UNK N   1      35.691  12.160  14.520  0.00  0.00    -0.346 N 
HETATM   42  C   UNK N   1      35.549  13.095  15.473  0.00  0.00     0.240 C 
HETATM   43  O   UNK N   1      34.440  13.382  15.904  0.00  0.00    -0.271 OA
HETATM   44  H   UNK N   1      36.522  11.636  14.462  0.00  0.00     0.163 HD
BRANCH  42  45
HETATM   45  C   UNK N   1      36.729  13.968  15.745  0.00  0.00     0.163 C 
HETATM   46  C   UNK N   1      36.514  14.898  16.920  0.00  0.00     0.041 C 
BRANCH  45  47
HETATM   47  N   UNK N   1      36.945  14.781  14.551  0.00  0.00    -0.419 N 
HETATM   48  H   UNK N   1      37.819  14.702  14.031  0.00  0.00     0.150 HD
HETATM   49  H   UNK N   1      36.222  15.428  14.238  0.00  0.00     0.150 HD
ENDBRANCH  45  47
ENDBRANCH  42  45
ENDBRANCH  39  41
ENDBRANCH  37  39
ENDBRANCH  36  37
ENDBRANCH  35  36
ENDBRANCH  34  35
ENDBRANCH  33  34
ENDBRANCH  30  33
ENDBRANCH   1  27
BRANCH   3  50
HETATM   50  N   UNK N   1      31.425  14.367   4.599  0.00  0.00    -0.366 N 
HETATM   51  C   UNK N   1      32.010  14.601   3.298  0.00  0.00     0.124 C 
HETATM   52  C   UNK N   1      31.621  13.413   2.460  0.00  0.00     0.021 C 
HETATM   53  C   UNK N   1      31.170  12.355   3.459  0.00  0.00     0.021 C 
HETATM   54  C   UNK N   1      30.854  13.077   4.768  0.00  0.00     0.124 C 
ENDBRANCH   3  50
TORSDOF 15
ENDMDL
MODEL 6
REMARK VINA RESULT:      -8.2      2.445      3.685
REMARK  15 active torsions:
REMARK  status: ('A' for Active; 'I' for Inactive)
REMARK    1  A    between atoms: C_2  and  C_3 
REMARK    2  A    between atoms: C_2  and  N_51 
REMARK       I    between atoms: C_3  and  N_5 
REMARK    3  A    between atoms: N_5  and  C_6 
REMARK    4  A    between atoms: C_6  and  C_8 
REMARK    5  A    between atoms: C_8  and  O_10 
REMARK    6  A    between atoms: O_10  and  C_11 
REMARK    7  A    between atoms: C_11  and  C_12 
REMARK    8  A    between atoms: C_12  and  O_13 
REMARK    9  A    between atoms: O_13  and  C_14 
REMARK   10  A    between atoms: C_17  and  C_20 
REMARK   11  A    between atoms: C_22  and  N_44 
REMARK   12  A    between atoms: C_25  and  S_29 
REMARK   13  A    between atoms: S_29  and  C_30 
REMARK   14  A    between atoms: C_30  and  C_31 
REMARK   15  A    between atoms: C_34  and  C_37 
ROOT
HETATM    1  C   UNK N   1      35.034  15.017   7.623  0.00  0.00     0.022 C 
HETATM    2  C   UNK N   1      35.480  14.373   6.461  0.00  0.00     0.101 C 
HETATM    3  C   UNK N   1      36.670  13.697   6.469  0.00  0.00     0.126 C 
HETATM    4  N   UNK N   1      37.309  13.487   7.659  0.00  0.00    -0.335 N 
ATOM      5  HN  UNK N   1      38.164  12.932   7.671  1.00  0.00     0.168 HD
HETATM    6  C   UNK N   1      36.831  14.006   8.840  0.00  0.00     0.093 C 
HETATM    7  C   UNK N   1      35.706  14.832   8.833  0.00  0.00     0.090 C 
HETATM    8  C   UNK N   1      35.330  15.524  10.049  0.00  0.00     0.103 C 
HETATM    9  N   UNK N   1      35.066  16.059  11.041  0.00  0.00    -0.191 NA
HETATM   10  C   UNK N   1      34.660  14.299   5.262  0.00  0.00     0.104 C 
HETATM   11  N   UNK N   1      33.974  14.222   4.334  0.00  0.00    -0.191 NA
ENDROOT
BRANCH   6  12
HETATM   12  S   UNK N   1      37.790  13.813  10.364  0.00  0.00    -0.105 SA
BRANCH  12  13
HETATM   13  C   UNK N   1      37.250  12.077  10.642  0.00  0.00     0.138 C 
BRANCH  13  14
HETATM   14  C   UNK N   1      37.343  11.824  12.098  0.00  0.00     0.026 A 
HETATM   15  C   UNK N   1      37.494  10.532  12.638  0.00  0.00     0.077 A 
HETATM   16  S   UNK N   1      37.193  10.726  14.261  0.00  0.00    -0.081 SA
HETATM   17  C   UNK N   1      36.872  12.342  14.237  0.00  0.00     0.084 A 
HETATM   18  N   UNK N   1      37.019  12.813  12.987  0.00  0.00    -0.352 N 
ATOM     19  HN  UNK N   1      36.903  13.793  12.730  1.00  0.00     0.166 HD
BRANCH  17  20
HETATM   20  C   UNK N   1      36.615  13.215  15.353  0.00  0.00    -0.002 A 
HETATM   21  C   UNK N   1      35.729  12.871  16.378  0.00  0.00     0.016 A 
HETATM   22  C   UNK N   1      35.468  13.789  17.401  0.00  0.00     0.024 A 
HETATM   23  C   UNK N   1      36.112  15.033  17.396  0.00  0.00     0.034 A 
HETATM   24  C   UNK N   1      36.987  15.366  16.365  0.00  0.00     0.024 A 
HETATM   25 Cl   UNK N   1      35.848  16.180  18.681  0.00  0.00    -0.084 Cl
HETATM   26  C   UNK N   1      37.217  14.468  15.334  0.00  0.00     0.016 A 
ENDBRANCH  17  20
ENDBRANCH  13  14
ENDBRANCH  12  13
ENDBRANCH   6  12
BRANCH   1  27
HETATM   27  C   UNK N   1      33.855  15.826   7.515  0.00  0.00    -0.022 A 
HETATM   28  C   UNK N   1      32.631  15.313   7.985  0.00  0.00     0.015 A 
HETATM   29  C   UNK N   1      31.667  16.179   8.441  0.00  0.00     0.037 A 
HETATM   30  C   UNK N   1      31.955  17.547   8.459  0.00  0.00     0.068 A 
HETATM   31  C   UNK N   1      33.135  18.036   7.914  0.00  0.00     0.037 A 
HETATM   32  C   UNK N   1      34.082  17.177   7.432  0.00  0.00     0.015 A 
BRANCH  30  33
HETATM   33  O   UNK N   1      31.068  18.437   8.906  0.00  0.00    -0.349 OA
BRANCH  33  34
HETATM   34  C   UNK N   1      29.792  18.066   9.233  0.00  0.00     0.202 C 
BRANCH  34  35
HETATM   35  C   UNK N   1      28.741  18.931   8.504  0.00  0.00     0.205 C 
BRANCH  35  36
HETATM   36  O   UNK N   1      28.279  18.437   7.288  0.00  0.00    -0.318 OA
BRANCH  36  37
HETATM   37  C   UNK N   1      27.813  19.195   6.252  0.00  0.00     0.281 C 
HETATM   38  O   UNK N   1      27.234  20.251   6.455  0.00  0.00    -0.263 OA
BRANCH  37  39
HETATM   39  C   UNK N   1      27.835  18.645   4.870  0.00  0.00     0.180 C 
HETATM   40  C   UNK N   1      27.131  19.506   3.840  0.00  0.00     0.043 C 
BRANCH  39  41
HETATM   41  N   UNK N   1      29.230  18.515   4.614  0.00  0.00    -0.346 N 
HETATM   42  C   UNK N   1      29.735  17.321   4.261  0.00  0.00     0.240 C 
HETATM   43  O   UNK N   1      29.044  16.503   3.669  0.00  0.00    -0.271 OA
HETATM   44  H   UNK N   1      29.822  19.298   4.696  0.00  0.00     0.163 HD
BRANCH  42  45
HETATM   45  C   UNK N   1      31.031  16.925   4.887  0.00  0.00     0.163 C 
HETATM   46  C   UNK N   1      32.226  17.583   4.230  0.00  0.00     0.041 C 
BRANCH  45  47
HETATM   47  N   UNK N   1      31.160  15.479   4.727  0.00  0.00    -0.419 N 
HETATM   48  H   UNK N   1      31.379  15.084   3.812  0.00  0.00     0.150 HD
HETATM   49  H   UNK N   1      31.031  14.865   5.530  0.00  0.00     0.150 HD
ENDBRANCH  45  47
ENDBRANCH  42  45
ENDBRANCH  39  41
ENDBRANCH  37  39
ENDBRANCH  36  37
ENDBRANCH  35  36
ENDBRANCH  34  35
ENDBRANCH  33  34
ENDBRANCH  30  33
ENDBRANCH   1  27
BRANCH   3  50
HETATM   50  N   UNK N   1      37.256  13.358   5.213  0.00  0.00    -0.366 N 
HETATM   51  C   UNK N   1      37.005  12.069   4.607  0.00  0.00     0.124 C 
HETATM   52  C   UNK N   1      38.121  11.865   3.618  0.00  0.00     0.021 C 
HETATM   53  C   UNK N   1      38.733  13.245   3.420  0.00  0.00     0.021 C 
HETATM   54  C   UNK N   1      38.301  14.104   4.607  0.00  0.00     0.124 C 
ENDBRANCH   3  50
TORSDOF 15
ENDMDL
MODEL 7
REMARK VINA RESULT:      -8.1      5.701     12.139
REMARK  15 active torsions:
REMARK  status: ('A' for Active; 'I' for Inactive)
REMARK    1  A    between atoms: C_2  and  C_3 
REMARK    2  A    between atoms: C_2  and  N_51 
REMARK       I    between atoms: C_3  and  N_5 
REMARK    3  A    between atoms: N_5  and  C_6 
REMARK    4  A    between atoms: C_6  and  C_8 
REMARK    5  A    between atoms: C_8  and  O_10 
REMARK    6  A    between atoms: O_10  and  C_11 
REMARK    7  A    between atoms: C_11  and  C_12 
REMARK    8  A    between atoms: C_12  and  O_13 
REMARK    9  A    between atoms: O_13  and  C_14 
REMARK   10  A    between atoms: C_17  and  C_20 
REMARK   11  A    between atoms: C_22  and  N_44 
REMARK   12  A    between atoms: C_25  and  S_29 
REMARK   13  A    between atoms: S_29  and  C_30 
REMARK   14  A    between atoms: C_30  and  C_31 
REMARK   15  A    between atoms: C_34  and  C_37 
ROOT
HETATM    1  C   UNK N   1      31.293  16.687   6.622  0.00  0.00     0.022 C 
HETATM    2  C   UNK N   1      31.133  16.132   5.344  0.00  0.00     0.101 C 
HETATM    3  C   UNK N   1      29.879  15.981   4.818  0.00  0.00     0.126 C 
HETATM    4  N   UNK N   1      28.815  16.555   5.456  0.00  0.00    -0.335 N 
ATOM      5  HN  UNK N   1      27.890  16.492   5.031  1.00  0.00     0.168 HD
HETATM    6  C   UNK N   1      28.958  17.213   6.655  0.00  0.00     0.093 C 
HETATM    7  C   UNK N   1      30.200  17.243   7.290  0.00  0.00     0.090 C 
HETATM    8  C   UNK N   1      30.293  17.769   8.636  0.00  0.00     0.103 C 
HETATM    9  N   UNK N   1      30.323  18.196   9.712  0.00  0.00    -0.191 NA
HETATM   10  C   UNK N   1      32.272  15.813   4.499  0.00  0.00     0.104 C 
HETATM   11  N   UNK N   1      33.193  15.600   3.832  0.00  0.00    -0.191 NA
ENDROOT
BRANCH   6  12
HETATM   12  S   UNK N   1      27.494  17.835   7.522  0.00  0.00    -0.105 SA
BRANCH  12  13
HETATM   13  C   UNK N   1      27.689  19.553   6.897  0.00  0.00     0.138 C 
BRANCH  13  14
HETATM   14  C   UNK N   1      27.065  19.598   5.555  0.00  0.00     0.026 A 
HETATM   15  C   UNK N   1      27.733  20.099   4.420  0.00  0.00     0.077 A 
HETATM   16  S   UNK N   1      26.537  20.268   3.279  0.00  0.00    -0.081 SA
HETATM   17  C   UNK N   1      25.272  19.756   4.204  0.00  0.00     0.084 A 
HETATM   18  N   UNK N   1      25.718  19.396   5.419  0.00  0.00    -0.352 N 
ATOM     19  HN  UNK N   1      25.122  19.017   6.155  1.00  0.00     0.166 HD
BRANCH  17  20
HETATM   20  C   UNK N   1      23.903  19.553   3.805  0.00  0.00    -0.002 A 
HETATM   21  C   UNK N   1      23.234  20.445   2.962  0.00  0.00     0.016 A 
HETATM   22  C   UNK N   1      21.883  20.232   2.665  0.00  0.00     0.024 A 
HETATM   23  C   UNK N   1      21.225  19.117   3.200  0.00  0.00     0.034 A 
HETATM   24  C   UNK N   1      21.901  18.240   4.044  0.00  0.00     0.024 A 
HETATM   25 Cl   UNK N   1      19.556  18.795   2.810  0.00  0.00    -0.084 Cl
HETATM   26  C   UNK N   1      23.230  18.473   4.365  0.00  0.00     0.016 A 
ENDBRANCH  17  20
ENDBRANCH  13  14
ENDBRANCH  12  13
ENDBRANCH   6  12
BRANCH   1  27
HETATM   27  C   UNK N   1      32.615  16.689   7.177  0.00  0.00    -0.022 A 
HETATM   28  C   UNK N   1      33.320  17.905   7.251  0.00  0.00     0.015 A 
HETATM   29  C   UNK N   1      34.258  18.083   8.241  0.00  0.00     0.037 A 
HETATM   30  C   UNK N   1      34.448  17.054   9.169  0.00  0.00     0.068 A 
HETATM   31  C   UNK N   1      33.801  15.833   9.026  0.00  0.00     0.037 A 
HETATM   32  C   UNK N   1      32.892  15.645   8.024  0.00  0.00     0.015 A 
BRANCH  30  33
HETATM   33  O   UNK N   1      35.330  17.171  10.163  0.00  0.00    -0.349 OA
BRANCH  33  34
HETATM   34  C   UNK N   1      36.160  16.137  10.501  0.00  0.00     0.202 C 
BRANCH  34  35
HETATM   35  C   UNK N   1      35.811  15.553  11.887  0.00  0.00     0.205 C 
BRANCH  35  36
HETATM   36  O   UNK N   1      36.455  14.369  12.232  0.00  0.00    -0.318 OA
BRANCH  36  37
HETATM   37  C   UNK N   1      35.984  13.111  11.982  0.00  0.00     0.281 C 
HETATM   38  O   UNK N   1      34.972  12.937  11.318  0.00  0.00    -0.263 OA
BRANCH  37  39
HETATM   39  C   UNK N   1      36.591  11.946  12.679  0.00  0.00     0.180 C 
HETATM   40  C   UNK N   1      37.808  11.363  11.987  0.00  0.00     0.043 C 
BRANCH  39  41
HETATM   41  N   UNK N   1      36.895  12.481  13.963  0.00  0.00    -0.346 N 
HETATM   42  C   UNK N   1      35.965  12.456  14.932  0.00  0.00     0.240 C 
HETATM   43  O   UNK N   1      35.106  11.585  14.949  0.00  0.00    -0.271 OA
HETATM   44  H   UNK N   1      37.782  12.867  14.139  0.00  0.00     0.163 HD
BRANCH  42  45
HETATM   45  C   UNK N   1      35.836  13.681  15.776  0.00  0.00     0.163 C 
HETATM   46  C   UNK N   1      37.090  14.529  15.776  0.00  0.00     0.041 C 
BRANCH  45  47
HETATM   47  N   UNK N   1      35.585  13.235  17.144  0.00  0.00    -0.419 N 
HETATM   48  H   UNK N   1      34.641  13.276  17.528  0.00  0.00     0.150 HD
HETATM   49  H   UNK N   1      36.353  12.884  17.714  0.00  0.00     0.150 HD
ENDBRANCH  45  47
ENDBRANCH  42  45
ENDBRANCH  39  41
ENDBRANCH  37  39
ENDBRANCH  36  37
ENDBRANCH  35  36
ENDBRANCH  34  35
ENDBRANCH  33  34
ENDBRANCH  30  33
ENDBRANCH   1  27
BRANCH   3  50
HETATM   50  N   UNK N   1      29.725  15.114   3.696  0.00  0.00    -0.366 N 
HETATM   51  C   UNK N   1      29.115  15.591   2.474  0.00  0.00     0.124 C 
HETATM   52  C   UNK N   1      28.667  14.357   1.739  0.00  0.00     0.021 C 
HETATM   53  C   UNK N   1      29.416  13.207   2.399  0.00  0.00     0.021 C 
HETATM   54  C   UNK N   1      29.894  13.705   3.762  0.00  0.00     0.124 C 
ENDBRANCH   3  50
TORSDOF 15
ENDMDL
MODEL 8
REMARK VINA RESULT:      -8.1      9.081     13.419
REMARK  15 active torsions:
REMARK  status: ('A' for Active; 'I' for Inactive)
REMARK    1  A    between atoms: C_2  and  C_3 
REMARK    2  A    between atoms: C_2  and  N_51 
REMARK       I    between atoms: C_3  and  N_5 
REMARK    3  A    between atoms: N_5  and  C_6 
REMARK    4  A    between atoms: C_6  and  C_8 
REMARK    5  A    between atoms: C_8  and  O_10 
REMARK    6  A    between atoms: O_10  and  C_11 
REMARK    7  A    between atoms: C_11  and  C_12 
REMARK    8  A    between atoms: C_12  and  O_13 
REMARK    9  A    between atoms: O_13  and  C_14 
REMARK   10  A    between atoms: C_17  and  C_20 
REMARK   11  A    between atoms: C_22  and  N_44 
REMARK   12  A    between atoms: C_25  and  S_29 
REMARK   13  A    between atoms: S_29  and  C_30 
REMARK   14  A    between atoms: C_30  and  C_31 
REMARK   15  A    between atoms: C_34  and  C_37 
ROOT
HETATM    1  C   UNK N   1      23.702  13.876   6.337  0.00  0.00     0.022 C 
HETATM    2  C   UNK N   1      23.178  13.239   7.470  0.00  0.00     0.101 C 
HETATM    3  C   UNK N   1      22.310  13.909   8.289  0.00  0.00     0.126 C 
HETATM    4  N   UNK N   1      21.809  15.115   7.886  0.00  0.00    -0.335 N 
ATOM      5  HN  UNK N   1      21.117  15.584   8.470  1.00  0.00     0.168 HD
HETATM    6  C   UNK N   1      22.213  15.713   6.716  0.00  0.00     0.093 C 
HETATM    7  C   UNK N   1      23.215  15.124   5.943  0.00  0.00     0.090 C 
HETATM    8  C   UNK N   1      23.765  15.858   4.821  0.00  0.00     0.103 C 
HETATM    9  N   UNK N   1      24.177  16.479   3.936  0.00  0.00    -0.191 NA
HETATM   10  C   UNK N   1      23.436  11.836   7.749  0.00  0.00     0.104 C 
HETATM   11  N   UNK N   1      23.627  10.709   7.929  0.00  0.00    -0.191 NA
ENDROOT
BRANCH   6  12
HETATM   12  S   UNK N   1      21.620  17.373   6.299  0.00  0.00    -0.105 SA
BRANCH  12  13
HETATM   13  C   UNK N   1      20.087  16.765   5.484  0.00  0.00     0.138 C 
BRANCH  13  14
HETATM   14  C   UNK N   1      20.385  16.645   4.039  0.00  0.00     0.026 A 
HETATM   15  C   UNK N   1      19.878  17.544   3.080  0.00  0.00     0.077 A 
HETATM   16  S   UNK N   1      20.181  16.805   1.622  0.00  0.00    -0.081 SA
HETATM   17  C   UNK N   1      20.883  15.434   2.209  0.00  0.00     0.084 A 
HETATM   18  N   UNK N   1      20.951  15.499   3.549  0.00  0.00    -0.352 N 
ATOM     19  HN  UNK N   1      21.374  14.779   4.133  1.00  0.00     0.166 HD
BRANCH  17  20
HETATM   20  C   UNK N   1      21.490  14.358   1.468  0.00  0.00    -0.002 A 
HETATM   21  C   UNK N   1      20.825  13.152   1.228  0.00  0.00     0.016 A 
HETATM   22  C   UNK N   1      21.491  12.118   0.562  0.00  0.00     0.024 A 
HETATM   23  C   UNK N   1      22.808  12.311   0.126  0.00  0.00     0.034 A 
HETATM   24  C   UNK N   1      23.462  13.515   0.378  0.00  0.00     0.024 A 
HETATM   25 Cl   UNK N   1      23.650  11.061  -0.751  0.00  0.00    -0.084 Cl
HETATM   26  C   UNK N   1      22.811  14.525   1.069  0.00  0.00     0.016 A 
ENDBRANCH  17  20
ENDBRANCH  13  14
ENDBRANCH  12  13
ENDBRANCH   6  12
BRANCH   1  27
HETATM   27  C   UNK N   1      24.713  13.178   5.597  0.00  0.00    -0.022 A 
HETATM   28  C   UNK N   1      24.366  12.572   4.375  0.00  0.00     0.015 A 
HETATM   29  C   UNK N   1      25.321  12.428   3.398  0.00  0.00     0.037 A 
HETATM   30  C   UNK N   1      26.604  12.929   3.642  0.00  0.00     0.068 A 
HETATM   31  C   UNK N   1      26.944  13.447   4.886  0.00  0.00     0.037 A 
HETATM   32  C   UNK N   1      26.002  13.562   5.868  0.00  0.00     0.015 A 
BRANCH  30  33
HETATM   33  O   UNK N   1      27.571  12.836   2.729  0.00  0.00    -0.349 OA
BRANCH  33  34
HETATM   34  C   UNK N   1      28.753  13.509   2.875  0.00  0.00     0.202 C 
BRANCH  34  35
HETATM   35  C   UNK N   1      28.766  14.824   2.065  0.00  0.00     0.205 C 
BRANCH  35  36
HETATM   36  O   UNK N   1      29.258  15.945   2.726  0.00  0.00    -0.318 OA
BRANCH  36  37
HETATM   37  C   UNK N   1      28.549  16.724   3.595  0.00  0.00     0.281 C 
HETATM   38  O   UNK N   1      27.368  16.971   3.401  0.00  0.00    -0.263 OA
BRANCH  37  39
HETATM   39  C   UNK N   1      29.260  17.441   4.689  0.00  0.00     0.180 C 
HETATM   40  C   UNK N   1      30.771  17.437   4.565  0.00  0.00     0.043 C 
BRANCH  39  41
HETATM   41  N   UNK N   1      28.706  18.750   4.606  0.00  0.00    -0.346 N 
HETATM   42  C   UNK N   1      28.038  19.259   5.655  0.00  0.00     0.240 C 
HETATM   43  O   UNK N   1      28.305  18.904   6.795  0.00  0.00    -0.271 OA
HETATM   44  H   UNK N   1      28.813  19.281   3.784  0.00  0.00     0.163 HD
BRANCH  42  45
HETATM   45  C   UNK N   1      26.781  20.007   5.357  0.00  0.00     0.163 C 
HETATM   46  C   UNK N   1      26.434  21.022   6.425  0.00  0.00     0.041 C 
BRANCH  45  47
HETATM   47  N   UNK N   1      25.703  19.025   5.290  0.00  0.00    -0.419 N 
HETATM   48  H   UNK N   1      24.744  19.330   5.122  0.00  0.00     0.150 HD
HETATM   49  H   UNK N   1      25.909  18.033   5.412  0.00  0.00     0.150 HD
ENDBRANCH  45  47
ENDBRANCH  42  45
ENDBRANCH  39  41
ENDBRANCH  37  39
ENDBRANCH  36  37
ENDBRANCH  35  36
ENDBRANCH  34  35
ENDBRANCH  33  34
ENDBRANCH  30  33
ENDBRANCH   1  27
BRANCH   3  50
HETATM   50  N   UNK N   1      22.073  13.376   9.591  0.00  0.00    -0.366 N 
HETATM   51  C   UNK N   1      23.176  13.012  10.452  0.00  0.00     0.124 C 
HETATM   52  C   UNK N   1      22.601  12.061  11.466  0.00  0.00     0.021 C 
HETATM   53  C   UNK N   1      21.093  12.250  11.376  0.00  0.00     0.021 C 
HETATM   54  C   UNK N   1      20.802  12.919  10.033  0.00  0.00     0.124 C 
ENDBRANCH   3  50
TORSDOF 15
ENDMDL
MODEL 9
REMARK VINA RESULT:      -8.1      4.804      8.930
REMARK  15 active torsions:
REMARK  status: ('A' for Active; 'I' for Inactive)
REMARK    1  A    between atoms: C_2  and  C_3 
REMARK    2  A    between atoms: C_2  and  N_51 
REMARK       I    between atoms: C_3  and  N_5 
REMARK    3  A    between atoms: N_5  and  C_6 
REMARK    4  A    between atoms: C_6  and  C_8 
REMARK    5  A    between atoms: C_8  and  O_10 
REMARK    6  A    between atoms: O_10  and  C_11 
REMARK    7  A    between atoms: C_11  and  C_12 
REMARK    8  A    between atoms: C_12  and  O_13 
REMARK    9  A    between atoms: O_13  and  C_14 
REMARK   10  A    between atoms: C_17  and  C_20 
REMARK   11  A    between atoms: C_22  and  N_44 
REMARK   12  A    between atoms: C_25  and  S_29 
REMARK   13  A    between atoms: S_29  and  C_30 
REMARK   14  A    between atoms: C_30  and  C_31 
REMARK   15  A    between atoms: C_34  and  C_37 
ROOT
HETATM    1  C   UNK N   1      28.004  16.059   3.472  0.00  0.00     0.022 C 
HETATM    2  C   UNK N   1      27.594  17.309   3.956  0.00  0.00     0.101 C 
HETATM    3  C   UNK N   1      28.527  18.215   4.383  0.00  0.00     0.126 C 
HETATM    4  N   UNK N   1      29.850  17.971   4.147  0.00  0.00    -0.335 N 
ATOM      5  HN  UNK N   1      30.539  18.674   4.413  1.00  0.00     0.168 HD
HETATM    6  C   UNK N   1      30.279  16.802   3.562  0.00  0.00     0.093 C 
HETATM    7  C   UNK N   1      29.359  15.795   3.263  0.00  0.00     0.090 C 
HETATM    8  C   UNK N   1      29.845  14.502   2.829  0.00  0.00     0.103 C 
HETATM    9  N   UNK N   1      30.275  13.482   2.487  0.00  0.00    -0.191 NA
HETATM   10  C   UNK N   1      26.203  17.729   3.913  0.00  0.00     0.104 C 
HETATM   11  N   UNK N   1      25.095  18.054   3.834  0.00  0.00    -0.191 NA
ENDROOT
BRANCH   6  12
HETATM   12  S   UNK N   1      32.052  16.472   3.398  0.00  0.00    -0.105 SA
BRANCH  12  13
HETATM   13  C   UNK N   1      32.473  17.190   5.038  0.00  0.00     0.138 C 
BRANCH  13  14
HETATM   14  C   UNK N   1      32.858  16.063   5.918  0.00  0.00     0.026 A 
HETATM   15  C   UNK N   1      32.413  14.744   5.704  0.00  0.00     0.077 A 
HETATM   16  S   UNK N   1      32.802  13.946   7.109  0.00  0.00    -0.081 SA
HETATM   17  C   UNK N   1      33.464  15.222   7.915  0.00  0.00     0.084 A 
HETATM   18  N   UNK N   1      33.450  16.310   7.127  0.00  0.00    -0.352 N 
ATOM     19  HN  UNK N   1      33.835  17.215   7.398  1.00  0.00     0.166 HD
BRANCH  17  20
HETATM   20  C   UNK N   1      34.113  15.223   9.201  0.00  0.00    -0.002 A 
HETATM   21  C   UNK N   1      34.600  16.395   9.788  0.00  0.00     0.016 A 
HETATM   22  C   UNK N   1      35.282  16.324  11.007  0.00  0.00     0.024 A 
HETATM   23  C   UNK N   1      35.451  15.083  11.634  0.00  0.00     0.034 A 
HETATM   24  C   UNK N   1      34.966  13.922  11.036  0.00  0.00     0.024 A 
HETATM   25 Cl   UNK N   1      36.252  14.965  13.178  0.00  0.00    -0.084 Cl
HETATM   26  C   UNK N   1      34.321  13.992   9.811  0.00  0.00     0.016 A 
ENDBRANCH  17  20
ENDBRANCH  13  14
ENDBRANCH  12  13
ENDBRANCH   6  12
BRANCH   1  27
HETATM   27  C   UNK N   1      26.980  15.101   3.173  0.00  0.00    -0.022 A 
HETATM   28  C   UNK N   1      26.334  14.440   4.234  0.00  0.00     0.015 A 
HETATM   29  C   UNK N   1      25.040  14.006   4.072  0.00  0.00     0.037 A 
HETATM   30  C   UNK N   1      24.395  14.275   2.860  0.00  0.00     0.068 A 
HETATM   31  C   UNK N   1      25.080  14.855   1.799  0.00  0.00     0.037 A 
HETATM   32  C   UNK N   1      26.376  15.258   1.950  0.00  0.00     0.015 A 
BRANCH  30  33
HETATM   33  O   UNK N   1      23.135  13.896   2.646  0.00  0.00    -0.349 OA
BRANCH  33  34
HETATM   34  C   UNK N   1      22.269  13.688   3.686  0.00  0.00     0.202 C 
BRANCH  34  35
HETATM   35  C   UNK N   1      21.067  14.657   3.630  0.00  0.00     0.205 C 
BRANCH  35  36
HETATM   36  O   UNK N   1      21.375  16.014   3.630  0.00  0.00    -0.318 OA
BRANCH  36  37
HETATM   37  C   UNK N   1      20.611  16.998   4.190  0.00  0.00     0.281 C 
HETATM   38  O   UNK N   1      19.402  17.034   4.014  0.00  0.00    -0.263 OA
BRANCH  37  39
HETATM   39  C   UNK N   1      21.271  18.150   4.861  0.00  0.00     0.180 C 
HETATM   40  C   UNK N   1      22.309  17.763   5.897  0.00  0.00     0.043 C 
BRANCH  39  41
HETATM   41  N   UNK N   1      21.830  18.865   3.765  0.00  0.00    -0.346 N 
HETATM   42  C   UNK N   1      21.136  19.866   3.198  0.00  0.00     0.240 C 
HETATM   43  O   UNK N   1      20.330  20.513   3.852  0.00  0.00    -0.271 OA
HETATM   44  H   UNK N   1      22.722  18.626   3.423  0.00  0.00     0.163 HD
BRANCH  42  45
HETATM   45  C   UNK N   1      21.155  19.942   1.708  0.00  0.00     0.163 C 
HETATM   46  C   UNK N   1      20.608  21.251   1.179  0.00  0.00     0.041 C 
BRANCH  45  47
HETATM   47  N   UNK N   1      20.309  18.859   1.213  0.00  0.00    -0.419 N 
HETATM   48  H   UNK N   1      19.379  19.065   0.846  0.00  0.00     0.150 HD
HETATM   49  H   UNK N   1      20.648  17.898   1.234  0.00  0.00     0.150 HD
ENDBRANCH  45  47
ENDBRANCH  42  45
ENDBRANCH  39  41
ENDBRANCH  37  39
ENDBRANCH  36  37
ENDBRANCH  35  36
ENDBRANCH  34  35
ENDBRANCH  33  34
ENDBRANCH  30  33
ENDBRANCH   1  27
BRANCH   3  50
HETATM   50  N   UNK N   1      28.079  19.312   5.178  0.00  0.00    -0.366 N 
HETATM   51  C   UNK N   1      27.845  19.149   6.596  0.00  0.00     0.124 C 
HETATM   52  C   UNK N   1      26.940  20.285   6.989  0.00  0.00     0.021 C 
HETATM   53  C   UNK N   1      27.033  21.282   5.841  0.00  0.00     0.021 C 
HETATM   54  C   UNK N   1      27.583  20.526   4.632  0.00  0.00     0.124 C 
ENDBRANCH   3  50
TORSDOF 15
ENDMDL
