REMARK  11 active torsions:
REMARK  status: ('A' for Active; 'I' for Inactive)
REMARK    1  A    between atoms: C_2  and  O_3 
REMARK    2  A    between atoms: O_3  and  C_4 
REMARK    3  A    between atoms: C_9  and  N_10 
REMARK       I    between atoms: N_10  and  C_11 
REMARK    4  A    between atoms: C_11  and  C_13 
REMARK    5  A    between atoms: C_14  and  C_15 
REMARK    6  A    between atoms: C_15  and  N_16 
REMARK    7  A    between atoms: C_19  and  N_26 
REMARK    8  A    between atoms: N_26  and  C_27 
REMARK    9  A    between atoms: C_30  and  O_34 
REMARK   10  A    between atoms: O_34  and  C_35 
REMARK   11  A    between atoms: C_35  and  C_36 
ROOT
HETATM    1  C   UNK N   1      -1.566  -2.165   0.175  0.00  0.00     0.097 C 
HETATM    2  C   UNK N   1      -0.468  -2.985   0.536  0.00  0.00     0.069 C 
HETATM    3  C   UNK N   1       0.775  -2.486   0.596  0.00  0.00     0.047 C 
HETATM    4  C   UNK N   1       0.895  -1.160   0.358  0.00  0.00     0.021 C 
HETATM    5  C   UNK N   1      -0.190  -0.317   0.395  0.00  0.00     0.048 C 
HETATM    6  C   UNK N   1      -1.443  -0.723   0.306  0.00  0.00     0.069 C 
HETATM    7  C   UNK N   1       2.043  -0.684  -0.164  0.00  0.00     0.064 C 
HETATM    8  C   UNK N   1       3.170  -1.498  -0.268  0.00  0.00     0.087 C 
HETATM    9  C   UNK N   1       3.059  -2.828   0.137  0.00  0.00     0.113 C 
HETATM   10  N   UNK N   1       1.847  -3.313   0.518  0.00  0.00    -0.364 N 
ATOM     11  HN  UNK N   1       1.743  -4.302   0.745  1.00  0.00     0.165 HD
HETATM   12  C   UNK N   1       4.429  -1.011  -0.737  0.00  0.00     0.103 C 
HETATM   13  N   UNK N   1       5.464  -0.657  -1.109  0.00  0.00    -0.191 NA
ENDROOT
BRANCH   7  14
HETATM   14  N   UNK N   1       1.965   0.607  -0.684  0.00  0.00    -0.377 N 
HETATM   15  H   UNK N   1       2.167   0.801  -1.628  0.00  0.00     0.160 HD
BRANCH  14  16
HETATM   16  C   UNK N   1       1.585   1.610   0.208  0.00  0.00     0.130 C 
HETATM   17  C   UNK N   1       1.228   2.745  -0.488  0.00  0.00     0.005 C 
HETATM   18  C   UNK N   1       2.237   3.592  -0.816  0.00  0.00     0.037 C 
HETATM   19  C   UNK N   1       3.498   3.310  -0.313  0.00  0.00     0.090 C 
HETATM   20  C   UNK N   1       3.708   2.295   0.666  0.00  0.00     0.066 C 
HETATM   21  C   UNK N   1       2.609   1.651   1.111  0.00  0.00     0.028 C 
HETATM   22 Cl   UNK N   1       5.236   1.774   1.359  0.00  0.00    -0.082 Cl
BRANCH  19  23
HETATM   23  O   UNK N   1       4.392   4.200  -0.522  0.00  0.00    -0.345 OA
BRANCH  23  24
HETATM   24  C   UNK N   1       4.648   4.917   0.601  0.00  0.00     0.214 C 
BRANCH  24  25
HETATM   25  C   UNK N   1       6.032   5.094   0.537  0.00  0.00    -0.031 A 
HETATM   26  C   UNK N   1       6.456   6.350   0.200  0.00  0.00     0.009 A 
HETATM   27  C   UNK N   1       7.754   6.514  -0.237  0.00  0.00     0.004 A 
HETATM   28  C   UNK N   1       8.595   5.399  -0.368  0.00  0.00     0.042 A 
HETATM   29  C   UNK N   1       8.141   4.124  -0.021  0.00  0.00     0.117 A 
HETATM   30  C   UNK N   1       6.854   3.975   0.424  0.00  0.00     0.051 A 
HETATM   31  F   UNK N   1       8.920   3.031  -0.178  0.00  0.00    -0.206 F 
ENDBRANCH  24  25
ENDBRANCH  23  24
ENDBRANCH  19  23
ENDBRANCH  14  16
ENDBRANCH   7  14
BRANCH   6  32
HETATM   32  N   UNK N   1      -2.289   0.417   0.102  0.00  0.00    -0.321 N 
HETATM   33  C   UNK N   1      -3.571   0.689  -0.190  0.00  0.00     0.245 C 
HETATM   34  O   UNK N   1      -3.911   1.852  -0.346  0.00  0.00    -0.268 OA
HETATM   35  H   UNK N   1      -1.775   1.250   0.206  0.00  0.00     0.169 HD
BRANCH  33  36
HETATM   36  C   UNK N   1      -4.531  -0.345  -0.397  0.00  0.00     0.072 C 
HETATM   37  C   UNK N   1      -4.531  -1.437   0.329  0.00  0.00     0.008 C 
BRANCH  37  38
HETATM   38  C   UNK N   1      -5.302  -2.547  -0.249  0.00  0.00     0.299 C 
BRANCH  38  39
HETATM   39  N   UNK N   1      -5.345  -3.708   0.604  0.00  0.00     0.083 N 
HETATM   40  C   UNK N   1      -4.734  -4.802  -0.111  0.00  0.00     0.309 C 
HETATM   41  C   UNK N   1      -6.737  -4.060   0.552  0.00  0.00     0.309 C 
ENDBRANCH  38  39
ENDBRANCH  37  38
ENDBRANCH  33  36
ENDBRANCH   6  32
BRANCH   1  42
HETATM   42  O   UNK N   1      -2.550  -2.806  -0.476  0.00  0.00    -0.349 OA
BRANCH  42  43
HETATM   43  C   UNK N   1      -2.281  -4.014  -1.141  0.00  0.00     0.171 C 
HETATM   44  C   UNK N   1      -1.908  -5.163  -0.176  0.00  0.00     0.034 C 
ENDBRANCH  42  43
ENDBRANCH   1  42
TORSDOF 11
