MODEL 1
REMARK VINA RESULT:      -7.5      0.000      0.000
REMARK  11 active torsions:
REMARK  status: ('A' for Active; 'I' for Inactive)
REMARK    1  A    between atoms: C_11  and  N_22 
REMARK    2  A    between atoms: C_14  and  C_15 
REMARK       I    between atoms: N_22  and  C_23 
REMARK    3  A    between atoms: C_25  and  C_23 
REMARK    4  A    between atoms: C_25  and  C_26 
REMARK    5  A    between atoms: C_25  and  C_32 
REMARK    6  A    between atoms: C_26  and  C_27 
REMARK    7  A    between atoms: C_27  and  C_28 
REMARK    8  A    between atoms: C_32  and  C_33 
REMARK    9  A    between atoms: C_32  and  C_39 
REMARK   10  A    between atoms: C_33  and  C_34 
REMARK   11  A    between atoms: C_34  and  C_35 
REMARK       I    between atoms: C_39  and  N_41 
ROOT
HETATM    1  N   UNK N   1      21.739  16.636   7.165  0.00  0.00    -0.332 N 
HETATM    2  C   UNK N   1      21.732  17.464   6.089  0.00  0.00     0.224 C 
HETATM    3  O   UNK N   1      21.792  18.670   6.264  0.00  0.00    -0.273 OA
HETATM    4  H   UNK N   1      21.681  17.012   8.074  0.00  0.00     0.165 HD
ENDROOT
BRANCH   1   5
HETATM    5  C   UNK N   1      21.832  15.213   6.985  0.00  0.00     0.279 C 
HETATM    6  C   UNK N   1      20.872  14.285   7.598  0.00  0.00     0.264 C 
HETATM    7  N   UNK N   1      21.223  13.443   8.584  0.00  0.00    -0.323 N 
HETATM    8  O   UNK N   1      19.706  14.311   7.228  0.00  0.00    -0.269 OA
HETATM    9  C   UNK N   1      22.504  13.198   9.169  0.00  0.00     0.053 A 
HETATM   10  H   UNK N   1      20.484  12.913   8.962  0.00  0.00     0.169 HD
HETATM   11  C   UNK N   1      23.781  13.529   8.574  0.00  0.00     0.018 A 
HETATM   12  C   UNK N   1      22.482  12.531  10.419  0.00  0.00    -0.034 A 
HETATM   13  C   UNK N   1      24.931  13.163   9.297  0.00  0.00     0.016 A 
HETATM   14  C   UNK N   1      24.033  14.211   7.233  0.00  0.00     0.053 C 
HETATM   15  C   UNK N   1      24.881  12.516  10.522  0.00  0.00     0.002 A 
HETATM   16  C   UNK N   1      23.659  12.202  11.081  0.00  0.00     0.009 A 
HETATM   17  N   UNK N   1      23.128  14.834   6.570  0.00  0.00    -0.360 N 
ATOM     18  HN  UNK N   1      23.378  15.088   5.614  1.00  0.00     0.162 HD
HETATM   19  C   UNK N   1      21.191  12.161  11.069  0.00  0.00     0.050 C 
BRANCH  14  20
HETATM   20  C   UNK N   1      25.418  14.400   6.670  0.00  0.00    -0.006 A 
HETATM   21  C   UNK N   1      25.916  13.396   5.816  0.00  0.00     0.014 A 
HETATM   22  C   UNK N   1      27.139  13.532   5.166  0.00  0.00     0.004 A 
HETATM   23  C   UNK N   1      27.899  14.680   5.362  0.00  0.00     0.042 A 
HETATM   24  C   UNK N   1      27.433  15.685   6.212  0.00  0.00     0.117 A 
HETATM   25  C   UNK N   1      26.196  15.553   6.855  0.00  0.00     0.056 A 
HETATM   26  F   UNK N   1      28.178  16.798   6.401  0.00  0.00    -0.206 F 
ENDBRANCH  14  20
ENDBRANCH   1   5
BRANCH   2  27
HETATM   27  C   UNK N   1      21.516  16.907   4.687  0.00  0.00     0.091 C 
BRANCH  27  28
HETATM   28  C   UNK N   1      20.425  17.685   3.952  0.00  0.00     0.023 C 
BRANCH  28  29
HETATM   29  C   UNK N   1      20.973  18.388   2.716  0.00  0.00     0.118 C 
BRANCH  29  30
HETATM   30  C   UNK N   1      21.314  19.847   2.986  0.00  0.00     0.387 C 
HETATM   31  F   UNK N   1      21.227  20.545   1.798  0.00  0.00    -0.171 F 
HETATM   32  F   UNK N   1      22.595  19.980   3.484  0.00  0.00    -0.171 F 
HETATM   33  F   UNK N   1      20.418  20.376   3.894  0.00  0.00    -0.171 F 
ENDBRANCH  29  30
ENDBRANCH  28  29
ENDBRANCH  27  28
BRANCH  27  34
HETATM   34  C   UNK N   1      22.751  16.652   3.798  0.00  0.00     0.091 C 
BRANCH  34  35
HETATM   35  C   UNK N   1      24.064  17.084   4.433  0.00  0.00     0.023 C 
BRANCH  35  36
HETATM   36  C   UNK N   1      25.018  17.516   3.336  0.00  0.00     0.118 C 
BRANCH  36  37
HETATM   37  C   UNK N   1      26.104  18.422   3.890  0.00  0.00     0.387 C 
HETATM   38  F   UNK N   1      27.332  17.821   3.699  0.00  0.00    -0.171 F 
HETATM   39  F   UNK N   1      25.903  18.628   5.242  0.00  0.00    -0.171 F 
HETATM   40  F   UNK N   1      26.090  19.638   3.230  0.00  0.00    -0.171 F 
ENDBRANCH  36  37
ENDBRANCH  35  36
ENDBRANCH  34  35
BRANCH  34  41
HETATM   41  C   UNK N   1      22.791  15.298   3.147  0.00  0.00     0.220 C 
HETATM   42  O   UNK N   1      23.321  14.350   3.705  0.00  0.00    -0.273 OA
HETATM   43  N   UNK N   1      22.305  15.152   1.900  0.00  0.00    -0.370 N 
HETATM   44  H   UNK N   1      21.768  15.609   1.214  0.00  0.00     0.159 HD
HETATM   45  H   UNK N   1      22.588  14.275   1.550  0.00  0.00     0.159 HD
ENDBRANCH  34  41
ENDBRANCH  27  34
ENDBRANCH   2  27
TORSDOF 11
ENDMDL
MODEL 2
REMARK VINA RESULT:      -7.4      6.006      9.929
REMARK  11 active torsions:
REMARK  status: ('A' for Active; 'I' for Inactive)
REMARK    1  A    between atoms: C_11  and  N_22 
REMARK    2  A    between atoms: C_14  and  C_15 
REMARK       I    between atoms: N_22  and  C_23 
REMARK    3  A    between atoms: C_25  and  C_23 
REMARK    4  A    between atoms: C_25  and  C_26 
REMARK    5  A    between atoms: C_25  and  C_32 
REMARK    6  A    between atoms: C_26  and  C_27 
REMARK    7  A    between atoms: C_27  and  C_28 
REMARK    8  A    between atoms: C_32  and  C_33 
REMARK    9  A    between atoms: C_32  and  C_39 
REMARK   10  A    between atoms: C_33  and  C_34 
REMARK   11  A    between atoms: C_34  and  C_35 
REMARK       I    between atoms: C_39  and  N_41 
ROOT
HETATM    1  N   UNK N   1      31.354  16.152   4.309  0.00  0.00    -0.332 N 
HETATM    2  C   UNK N   1      32.416  16.570   5.044  0.00  0.00     0.224 C 
HETATM    3  O   UNK N   1      33.334  17.152   4.488  0.00  0.00    -0.273 OA
HETATM    4  H   UNK N   1      31.379  16.220   3.326  0.00  0.00     0.165 HD
ENDROOT
BRANCH   1   5
HETATM    5  C   UNK N   1      30.192  15.611   4.958  0.00  0.00     0.279 C 
HETATM    6  C   UNK N   1      29.880  14.174   4.930  0.00  0.00     0.264 C 
HETATM    7  N   UNK N   1      28.827  13.685   4.256  0.00  0.00    -0.323 N 
HETATM    8  O   UNK N   1      30.631  13.397   5.503  0.00  0.00    -0.269 OA
HETATM    9  C   UNK N   1      27.797  14.371   3.540  0.00  0.00     0.053 A 
HETATM   10  H   UNK N   1      28.752  12.703   4.255  0.00  0.00     0.169 HD
HETATM   11  C   UNK N   1      27.445  15.766   3.696  0.00  0.00     0.018 A 
HETATM   12  C   UNK N   1      27.047  13.571   2.642  0.00  0.00    -0.034 A 
HETATM   13  C   UNK N   1      26.366  16.238   2.925  0.00  0.00     0.016 A 
HETATM   14  C   UNK N   1      28.092  16.790   4.623  0.00  0.00     0.053 C 
HETATM   15  C   UNK N   1      25.654  15.434   2.048  0.00  0.00     0.002 A 
HETATM   16  C   UNK N   1      25.995  14.104   1.908  0.00  0.00     0.009 A 
HETATM   17  N   UNK N   1      29.226  16.614   5.197  0.00  0.00    -0.360 N 
ATOM     18  HN  UNK N   1      29.461  17.289   5.925  1.00  0.00     0.162 HD
HETATM   19  C   UNK N   1      27.366  12.125   2.453  0.00  0.00     0.050 C 
BRANCH  14  20
HETATM   20  C   UNK N   1      27.559  18.190   4.778  0.00  0.00    -0.006 A 
HETATM   21  C   UNK N   1      27.542  18.742   6.074  0.00  0.00     0.014 A 
HETATM   22  C   UNK N   1      27.168  20.063   6.301  0.00  0.00     0.004 A 
HETATM   23  C   UNK N   1      26.791  20.865   5.229  0.00  0.00     0.042 A 
HETATM   24  C   UNK N   1      26.788  20.340   3.934  0.00  0.00     0.117 A 
HETATM   25  C   UNK N   1      27.179  19.014   3.707  0.00  0.00     0.056 A 
HETATM   26  F   UNK N   1      26.419  21.124   2.896  0.00  0.00    -0.206 F 
ENDBRANCH  14  20
ENDBRANCH   1   5
BRANCH   2  27
HETATM   27  C   UNK N   1      32.529  16.201   6.518  0.00  0.00     0.091 C 
BRANCH  27  28
HETATM   28  C   UNK N   1      33.712  15.263   6.757  0.00  0.00     0.023 C 
BRANCH  28  29
HETATM   29  C   UNK N   1      33.299  14.033   7.558  0.00  0.00     0.118 C 
BRANCH  29  30
HETATM   30  C   UNK N   1      33.970  13.982   8.923  0.00  0.00     0.387 C 
HETATM   31  F   UNK N   1      34.179  12.660   9.260  0.00  0.00    -0.171 F 
HETATM   32  F   UNK N   1      33.182  14.567   9.894  0.00  0.00    -0.171 F 
HETATM   33  F   UNK N   1      35.186  14.637   8.870  0.00  0.00    -0.171 F 
ENDBRANCH  29  30
ENDBRANCH  28  29
ENDBRANCH  27  28
BRANCH  27  34
HETATM   34  C   UNK N   1      32.458  17.331   7.567  0.00  0.00     0.091 C 
BRANCH  34  35
HETATM   35  C   UNK N   1      31.430  17.088   8.661  0.00  0.00     0.023 C 
BRANCH  35  36
HETATM   36  C   UNK N   1      30.228  17.978   8.408  0.00  0.00     0.118 C 
BRANCH  36  37
HETATM   37  C   UNK N   1      29.376  18.104   9.659  0.00  0.00     0.387 C 
HETATM   38  F   UNK N   1      29.450  16.925  10.374  0.00  0.00    -0.171 F 
HETATM   39  F   UNK N   1      28.060  18.345   9.313  0.00  0.00    -0.171 F 
HETATM   40  F   UNK N   1      29.844  19.139  10.449  0.00  0.00    -0.171 F 
ENDBRANCH  36  37
ENDBRANCH  35  36
ENDBRANCH  34  35
BRANCH  34  41
HETATM   41  C   UNK N   1      33.790  17.816   8.063  0.00  0.00     0.220 C 
HETATM   42  O   UNK N   1      34.588  18.345   7.304  0.00  0.00    -0.273 OA
HETATM   43  N   UNK N   1      34.138  17.593   9.345  0.00  0.00    -0.370 N 
HETATM   44  H   UNK N   1      33.773  17.306  10.213  0.00  0.00     0.159 HD
HETATM   45  H   UNK N   1      35.099  17.783   9.451  0.00  0.00     0.159 HD
ENDBRANCH  34  41
ENDBRANCH  27  34
ENDBRANCH   2  27
TORSDOF 11
ENDMDL
MODEL 3
REMARK VINA RESULT:      -7.4     14.078     16.590
REMARK  11 active torsions:
REMARK  status: ('A' for Active; 'I' for Inactive)
REMARK    1  A    between atoms: C_11  and  N_22 
REMARK    2  A    between atoms: C_14  and  C_15 
REMARK       I    between atoms: N_22  and  C_23 
REMARK    3  A    between atoms: C_25  and  C_23 
REMARK    4  A    between atoms: C_25  and  C_26 
REMARK    5  A    between atoms: C_25  and  C_32 
REMARK    6  A    between atoms: C_26  and  C_27 
REMARK    7  A    between atoms: C_27  and  C_28 
REMARK    8  A    between atoms: C_32  and  C_33 
REMARK    9  A    between atoms: C_32  and  C_39 
REMARK   10  A    between atoms: C_33  and  C_34 
REMARK   11  A    between atoms: C_34  and  C_35 
REMARK       I    between atoms: C_39  and  N_41 
ROOT
HETATM    1  N   UNK N   1      29.463  23.628  -3.847  0.00  0.00    -0.332 N 
HETATM    2  C   UNK N   1      30.378  22.625  -3.893  0.00  0.00     0.224 C 
HETATM    3  O   UNK N   1      30.356  21.758  -3.035  0.00  0.00    -0.273 OA
HETATM    4  H   UNK N   1      28.865  23.712  -3.068  0.00  0.00     0.165 HD
ENDROOT
BRANCH   1   5
HETATM    5  C   UNK N   1      29.364  24.569  -4.928  0.00  0.00     0.279 C 
HETATM    6  C   UNK N   1      29.726  25.984  -4.768  0.00  0.00     0.264 C 
HETATM    7  N   UNK N   1      28.809  26.965  -4.803  0.00  0.00    -0.323 N 
HETATM    8  O   UNK N   1      30.895  26.273  -4.551  0.00  0.00    -0.269 OA
HETATM    9  C   UNK N   1      27.406  26.899  -5.065  0.00  0.00     0.053 A 
HETATM   10  H   UNK N   1      29.157  27.868  -4.621  0.00  0.00     0.169 HD
HETATM   11  C   UNK N   1      26.720  25.809  -5.723  0.00  0.00     0.018 A 
HETATM   12  C   UNK N   1      26.662  28.039  -4.672  0.00  0.00    -0.034 A 
HETATM   13  C   UNK N   1      25.335  25.959  -5.925  0.00  0.00     0.016 A 
HETATM   14  C   UNK N   1      27.326  24.513  -6.254  0.00  0.00     0.053 C 
HETATM   15  C   UNK N   1      24.631  27.084  -5.523  0.00  0.00     0.002 A 
HETATM   16  C   UNK N   1      25.293  28.121  -4.898  0.00  0.00     0.009 A 
HETATM   17  N   UNK N   1      28.498  24.096  -5.940  0.00  0.00    -0.360 N 
ATOM     18  HN  UNK N   1      28.852  23.317  -6.495  1.00  0.00     0.162 HD
HETATM   19  C   UNK N   1      27.325  29.194  -3.997  0.00  0.00     0.050 C 
BRANCH  14  20
HETATM   20  C   UNK N   1      26.521  23.501  -7.025  0.00  0.00    -0.006 A 
HETATM   21  C   UNK N   1      26.755  23.400  -8.411  0.00  0.00     0.014 A 
HETATM   22  C   UNK N   1      26.138  22.424  -9.187  0.00  0.00     0.004 A 
HETATM   23  C   UNK N   1      25.261  21.524  -8.592  0.00  0.00     0.042 A 
HETATM   24  C   UNK N   1      25.002  21.609  -7.222  0.00  0.00     0.117 A 
HETATM   25  C   UNK N   1      25.635  22.583  -6.440  0.00  0.00     0.056 A 
HETATM   26  F   UNK N   1      24.146  20.733  -6.649  0.00  0.00    -0.206 F 
ENDBRANCH  14  20
ENDBRANCH   1   5
BRANCH   2  27
HETATM   27  C   UNK N   1      31.502  22.652  -4.922  0.00  0.00     0.091 C 
BRANCH  27  28
HETATM   28  C   UNK N   1      32.860  22.449  -4.251  0.00  0.00     0.023 C 
BRANCH  28  29
HETATM   29  C   UNK N   1      33.639  21.307  -4.894  0.00  0.00     0.118 C 
BRANCH  29  30
HETATM   30  C   UNK N   1      33.744  20.095  -3.979  0.00  0.00     0.387 C 
HETATM   31  F   UNK N   1      33.690  20.528  -2.669  0.00  0.00    -0.171 F 
HETATM   32  F   UNK N   1      34.934  19.420  -4.172  0.00  0.00    -0.171 F 
HETATM   33  F   UNK N   1      32.691  19.235  -4.219  0.00  0.00    -0.171 F 
ENDBRANCH  29  30
ENDBRANCH  28  29
ENDBRANCH  27  28
BRANCH  27  34
HETATM   34  C   UNK N   1      31.349  21.802  -6.201  0.00  0.00     0.091 C 
BRANCH  34  35
HETATM   35  C   UNK N   1      30.191  20.817  -6.149  0.00  0.00     0.023 C 
BRANCH  35  36
HETATM   36  C   UNK N   1      30.470  19.684  -7.118  0.00  0.00     0.118 C 
BRANCH  36  37
HETATM   37  C   UNK N   1      29.219  19.321  -7.898  0.00  0.00     0.387 C 
HETATM   38  F   UNK N   1      29.514  19.320  -9.247  0.00  0.00    -0.171 F 
HETATM   39  F   UNK N   1      28.221  20.244  -7.650  0.00  0.00    -0.171 F 
HETATM   40  F   UNK N   1      28.782  18.059  -7.532  0.00  0.00    -0.171 F 
ENDBRANCH  36  37
ENDBRANCH  35  36
ENDBRANCH  34  35
BRANCH  34  41
HETATM   41  C   UNK N   1      31.452  22.573  -7.486  0.00  0.00     0.220 C 
HETATM   42  O   UNK N   1      30.469  23.108  -7.977  0.00  0.00    -0.273 OA
HETATM   43  N   UNK N   1      32.628  22.608  -8.142  0.00  0.00    -0.370 N 
HETATM   44  H   UNK N   1      33.584  22.399  -8.040  0.00  0.00     0.159 HD
HETATM   45  H   UNK N   1      32.476  22.970  -9.046  0.00  0.00     0.159 HD
ENDBRANCH  34  41
ENDBRANCH  27  34
ENDBRANCH   2  27
TORSDOF 11
ENDMDL
MODEL 4
REMARK VINA RESULT:      -7.3      3.669      7.272
REMARK  11 active torsions:
REMARK  status: ('A' for Active; 'I' for Inactive)
REMARK    1  A    between atoms: C_11  and  N_22 
REMARK    2  A    between atoms: C_14  and  C_15 
REMARK       I    between atoms: N_22  and  C_23 
REMARK    3  A    between atoms: C_25  and  C_23 
REMARK    4  A    between atoms: C_25  and  C_26 
REMARK    5  A    between atoms: C_25  and  C_32 
REMARK    6  A    between atoms: C_26  and  C_27 
REMARK    7  A    between atoms: C_27  and  C_28 
REMARK    8  A    between atoms: C_32  and  C_33 
REMARK    9  A    between atoms: C_32  and  C_39 
REMARK   10  A    between atoms: C_33  and  C_34 
REMARK   11  A    between atoms: C_34  and  C_35 
REMARK       I    between atoms: C_39  and  N_41 
ROOT
HETATM    1  N   UNK N   1      22.901  15.211   4.572  0.00  0.00    -0.332 N 
HETATM    2  C   UNK N   1      23.334  14.152   5.302  0.00  0.00     0.224 C 
HETATM    3  O   UNK N   1      23.752  13.161   4.725  0.00  0.00    -0.273 OA
HETATM    4  H   UNK N   1      22.824  15.134   3.593  0.00  0.00     0.165 HD
ENDROOT
BRANCH   1   5
HETATM    5  C   UNK N   1      22.556  16.446   5.221  0.00  0.00     0.279 C 
HETATM    6  C   UNK N   1      21.175  16.949   5.257  0.00  0.00     0.264 C 
HETATM    7  N   UNK N   1      20.797  18.049   4.584  0.00  0.00    -0.323 N 
HETATM    8  O   UNK N   1      20.335  16.320   5.884  0.00  0.00    -0.269 OA
HETATM    9  C   UNK N   1      21.578  18.964   3.813  0.00  0.00     0.053 A 
HETATM   10  H   UNK N   1      19.836  18.256   4.630  0.00  0.00     0.169 HD
HETATM   11  C   UNK N   1      23.013  19.126   3.891  0.00  0.00     0.018 A 
HETATM   12  C   UNK N   1      20.840  19.802   2.939  0.00  0.00    -0.034 A 
HETATM   13  C   UNK N   1      23.585  20.119   3.074  0.00  0.00     0.016 A 
HETATM   14  C   UNK N   1      23.988  18.361   4.781  0.00  0.00     0.053 C 
HETATM   15  C   UNK N   1      22.840  20.920   2.222  0.00  0.00     0.002 A 
HETATM   16  C   UNK N   1      21.471  20.761   2.155  0.00  0.00     0.009 A 
HETATM   17  N   UNK N   1      23.691  17.271   5.388  0.00  0.00    -0.360 N 
ATOM     18  HN  UNK N   1      24.365  16.957   6.086  1.00  0.00     0.162 HD
HETATM   19  C   UNK N   1      19.356  19.679   2.828  0.00  0.00     0.050 C 
BRANCH  14  20
HETATM   20  C   UNK N   1      25.453  18.702   4.853  0.00  0.00    -0.006 A 
HETATM   21  C   UNK N   1      26.350  17.879   4.143  0.00  0.00     0.014 A 
HETATM   22  C   UNK N   1      27.707  18.175   4.064  0.00  0.00     0.004 A 
HETATM   23  C   UNK N   1      28.203  19.306   4.705  0.00  0.00     0.042 A 
HETATM   24  C   UNK N   1      27.338  20.133   5.424  0.00  0.00     0.117 A 
HETATM   25  C   UNK N   1      25.970  19.840   5.491  0.00  0.00     0.056 A 
HETATM   26  F   UNK N   1      27.826  21.229   6.047  0.00  0.00    -0.206 F 
ENDBRANCH  14  20
ENDBRANCH   1   5
BRANCH   2  27
HETATM   27  C   UNK N   1      23.175  14.141   6.818  0.00  0.00     0.091 C 
BRANCH  27  28
HETATM   28  C   UNK N   1      22.126  13.117   7.250  0.00  0.00     0.023 C 
BRANCH  28  29
HETATM   29  C   UNK N   1      20.866  13.794   7.777  0.00  0.00     0.118 C 
BRANCH  29  30
HETATM   30  C   UNK N   1      20.791  13.768   9.297  0.00  0.00     0.387 C 
HETATM   31  F   UNK N   1      21.809  14.552   9.800  0.00  0.00    -0.171 F 
HETATM   32  F   UNK N   1      20.938  12.484   9.787  0.00  0.00    -0.171 F 
HETATM   33  F   UNK N   1      19.576  14.275   9.714  0.00  0.00    -0.171 F 
ENDBRANCH  29  30
ENDBRANCH  28  29
ENDBRANCH  27  28
BRANCH  27  34
HETATM   34  C   UNK N   1      24.446  14.080   7.691  0.00  0.00     0.091 C 
BRANCH  34  35
HETATM   35  C   UNK N   1      24.604  12.774   8.454  0.00  0.00     0.023 C 
BRANCH  35  36
HETATM   36  C   UNK N   1      24.823  13.090   9.922  0.00  0.00     0.118 C 
BRANCH  36  37
HETATM   37  C   UNK N   1      24.085  12.098  10.803  0.00  0.00     0.387 C 
HETATM   38  F   UNK N   1      23.122  12.771  11.529  0.00  0.00    -0.171 F 
HETATM   39  F   UNK N   1      24.969  11.489  11.674  0.00  0.00    -0.171 F 
HETATM   40  F   UNK N   1      23.469  11.135  10.022  0.00  0.00    -0.171 F 
ENDBRANCH  36  37
ENDBRANCH  35  36
ENDBRANCH  34  35
BRANCH  34  41
HETATM   41  C   UNK N   1      25.699  14.560   7.014  0.00  0.00     0.220 C 
HETATM   42  O   UNK N   1      26.387  13.797   6.353  0.00  0.00    -0.273 OA
HETATM   43  N   UNK N   1      26.107  15.829   7.207  0.00  0.00    -0.370 N 
HETATM   44  H   UNK N   1      25.812  16.697   7.563  0.00  0.00     0.159 HD
HETATM   45  H   UNK N   1      27.030  15.920   6.872  0.00  0.00     0.159 HD
ENDBRANCH  34  41
ENDBRANCH  27  34
ENDBRANCH   2  27
TORSDOF 11
ENDMDL
MODEL 5
REMARK VINA RESULT:      -7.2      4.537      7.455
REMARK  11 active torsions:
REMARK  status: ('A' for Active; 'I' for Inactive)
REMARK    1  A    between atoms: C_11  and  N_22 
REMARK    2  A    between atoms: C_14  and  C_15 
REMARK       I    between atoms: N_22  and  C_23 
REMARK    3  A    between atoms: C_25  and  C_23 
REMARK    4  A    between atoms: C_25  and  C_26 
REMARK    5  A    between atoms: C_25  and  C_32 
REMARK    6  A    between atoms: C_26  and  C_27 
REMARK    7  A    between atoms: C_27  and  C_28 
REMARK    8  A    between atoms: C_32  and  C_33 
REMARK    9  A    between atoms: C_32  and  C_39 
REMARK   10  A    between atoms: C_33  and  C_34 
REMARK   11  A    between atoms: C_34  and  C_35 
REMARK       I    between atoms: C_39  and  N_41 
ROOT
HETATM    1  N   UNK N   1      27.218  15.283   4.897  0.00  0.00    -0.332 N 
HETATM    2  C   UNK N   1      26.723  16.255   5.705  0.00  0.00     0.224 C 
HETATM    3  O   UNK N   1      26.154  15.940   6.737  0.00  0.00    -0.273 OA
HETATM    4  H   UNK N   1      27.021  14.337   5.089  0.00  0.00     0.165 HD
ENDROOT
BRANCH   1   5
HETATM    5  C   UNK N   1      28.029  15.628   3.762  0.00  0.00     0.279 C 
HETATM    6  C   UNK N   1      27.738  15.123   2.412  0.00  0.00     0.264 C 
HETATM    7  N   UNK N   1      28.539  14.242   1.791  0.00  0.00    -0.323 N 
HETATM    8  O   UNK N   1      26.710  15.483   1.857  0.00  0.00    -0.269 OA
HETATM    9  C   UNK N   1      29.793  13.694   2.203  0.00  0.00     0.053 A 
HETATM   10  H   UNK N   1      28.213  13.926   0.917  0.00  0.00     0.169 HD
HETATM   11  C   UNK N   1      30.668  14.250   3.212  0.00  0.00     0.018 A 
HETATM   12  C   UNK N   1      30.203  12.529   1.506  0.00  0.00    -0.034 A 
HETATM   13  C   UNK N   1      31.884  13.578   3.439  0.00  0.00     0.016 A 
HETATM   14  C   UNK N   1      30.441  15.504   4.051  0.00  0.00     0.053 C 
HETATM   15  C   UNK N   1      32.256  12.435   2.747  0.00  0.00     0.002 A 
HETATM   16  C   UNK N   1      31.418  11.913   1.784  0.00  0.00     0.009 A 
HETATM   17  N   UNK N   1      29.303  16.087   4.164  0.00  0.00    -0.360 N 
ATOM     18  HN  UNK N   1      29.322  17.007   4.604  1.00  0.00     0.162 HD
HETATM   19  C   UNK N   1      29.340  11.922   0.450  0.00  0.00     0.050 C 
BRANCH  14  20
HETATM   20  C   UNK N   1      31.483  16.045   4.994  0.00  0.00    -0.006 A 
HETATM   21  C   UNK N   1      32.402  16.982   4.482  0.00  0.00     0.014 A 
HETATM   22  C   UNK N   1      33.332  17.616   5.300  0.00  0.00     0.004 A 
HETATM   23  C   UNK N   1      33.369  17.318   6.658  0.00  0.00     0.042 A 
HETATM   24  C   UNK N   1      32.477  16.384   7.190  0.00  0.00     0.117 A 
HETATM   25  C   UNK N   1      31.532  15.758   6.367  0.00  0.00     0.056 A 
HETATM   26  F   UNK N   1      32.519  16.097   8.511  0.00  0.00    -0.206 F 
ENDBRANCH  14  20
ENDBRANCH   1   5
BRANCH   2  27
HETATM   27  C   UNK N   1      26.754  17.715   5.267  0.00  0.00     0.091 C 
BRANCH  27  28
HETATM   28  C   UNK N   1      25.351  18.211   4.920  0.00  0.00     0.023 C 
BRANCH  28  29
HETATM   29  C   UNK N   1      25.229  18.563   3.442  0.00  0.00     0.118 C 
BRANCH  29  30
HETATM   30  C   UNK N   1      24.883  20.029   3.225  0.00  0.00     0.387 C 
HETATM   31  F   UNK N   1      25.030  20.696   4.425  0.00  0.00    -0.171 F 
HETATM   32  F   UNK N   1      23.580  20.180   2.792  0.00  0.00    -0.171 F 
HETATM   33  F   UNK N   1      25.738  20.578   2.290  0.00  0.00    -0.171 F 
ENDBRANCH  29  30
ENDBRANCH  28  29
ENDBRANCH  27  28
BRANCH  27  34
HETATM   34  C   UNK N   1      27.535  18.726   6.131  0.00  0.00     0.091 C 
BRANCH  34  35
HETATM   35  C   UNK N   1      28.619  18.092   6.991  0.00  0.00     0.023 C 
BRANCH  35  36
HETATM   36  C   UNK N   1      28.576  18.718   8.371  0.00  0.00     0.118 C 
BRANCH  36  37
HETATM   37  C   UNK N   1      29.786  18.302   9.190  0.00  0.00     0.387 C 
HETATM   38  F   UNK N   1      29.663  18.815  10.466  0.00  0.00    -0.171 F 
HETATM   39  F   UNK N   1      30.941  18.791   8.611  0.00  0.00    -0.171 F 
HETATM   40  F   UNK N   1      29.855  16.921   9.265  0.00  0.00    -0.171 F 
ENDBRANCH  36  37
ENDBRANCH  35  36
ENDBRANCH  34  35
BRANCH  34  41
HETATM   41  C   UNK N   1      27.964  19.973   5.411  0.00  0.00     0.220 C 
HETATM   42  O   UNK N   1      27.760  21.077   5.893  0.00  0.00    -0.273 OA
HETATM   43  N   UNK N   1      28.510  19.871   4.184  0.00  0.00    -0.370 N 
HETATM   44  H   UNK N   1      28.886  19.219   3.550  0.00  0.00     0.159 HD
HETATM   45  H   UNK N   1      28.542  20.767   3.776  0.00  0.00     0.159 HD
ENDBRANCH  34  41
ENDBRANCH  27  34
ENDBRANCH   2  27
TORSDOF 11
ENDMDL
MODEL 6
REMARK VINA RESULT:      -6.8      3.737      5.941
REMARK  11 active torsions:
REMARK  status: ('A' for Active; 'I' for Inactive)
REMARK    1  A    between atoms: C_11  and  N_22 
REMARK    2  A    between atoms: C_14  and  C_15 
REMARK       I    between atoms: N_22  and  C_23 
REMARK    3  A    between atoms: C_25  and  C_23 
REMARK    4  A    between atoms: C_25  and  C_26 
REMARK    5  A    between atoms: C_25  and  C_32 
REMARK    6  A    between atoms: C_26  and  C_27 
REMARK    7  A    between atoms: C_27  and  C_28 
REMARK    8  A    between atoms: C_32  and  C_33 
REMARK    9  A    between atoms: C_32  and  C_39 
REMARK   10  A    between atoms: C_33  and  C_34 
REMARK   11  A    between atoms: C_34  and  C_35 
REMARK       I    between atoms: C_39  and  N_41 
ROOT
HETATM    1  N   UNK N   1      20.425  13.253   5.014  0.00  0.00    -0.332 N 
HETATM    2  C   UNK N   1      19.700  14.400   5.041  0.00  0.00     0.224 C 
HETATM    3  O   UNK N   1      18.481  14.335   5.041  0.00  0.00    -0.273 OA
HETATM    4  H   UNK N   1      19.972  12.388   4.884  0.00  0.00     0.165 HD
ENDROOT
BRANCH   1   5
HETATM    5  C   UNK N   1      21.853  13.294   5.175  0.00  0.00     0.279 C 
HETATM    6  C   UNK N   1      22.772  12.962   4.077  0.00  0.00     0.264 C 
HETATM    7  N   UNK N   1      23.538  11.860   4.095  0.00  0.00    -0.323 N 
HETATM    8  O   UNK N   1      22.805  13.692   3.096  0.00  0.00    -0.269 OA
HETATM    9  C   UNK N   1      23.704  10.875   5.118  0.00  0.00     0.053 A 
HETATM   10  H   UNK N   1      24.067  11.707   3.279  0.00  0.00     0.169 HD
HETATM   11  C   UNK N   1      23.370  11.044   6.515  0.00  0.00     0.018 A 
HETATM   12  C   UNK N   1      24.292   9.657   4.695  0.00  0.00    -0.034 A 
HETATM   13  C   UNK N   1      23.654   9.963   7.370  0.00  0.00     0.016 A 
HETATM   14  C   UNK N   1      22.766  12.274   7.185  0.00  0.00     0.053 C 
HETATM   15  C   UNK N   1      24.224   8.779   6.929  0.00  0.00     0.002 A 
HETATM   16  C   UNK N   1      24.542   8.627   5.595  0.00  0.00     0.009 A 
HETATM   17  N   UNK N   1      22.215  13.237   6.539  0.00  0.00    -0.360 N 
ATOM     18  HN  UNK N   1      22.013  14.075   7.085  1.00  0.00     0.162 HD
HETATM   19  C   UNK N   1      24.663   9.437   3.266  0.00  0.00     0.050 C 
BRANCH  14  20
HETATM   20  C   UNK N   1      22.568  12.368   8.675  0.00  0.00    -0.006 A 
HETATM   21  C   UNK N   1      21.287  12.720   9.142  0.00  0.00     0.014 A 
HETATM   22  C   UNK N   1      20.980  12.729  10.499  0.00  0.00     0.004 A 
HETATM   23  C   UNK N   1      21.959  12.390  11.427  0.00  0.00     0.042 A 
HETATM   24  C   UNK N   1      23.241  12.048  10.992  0.00  0.00     0.117 A 
HETATM   25  C   UNK N   1      23.543  12.026   9.625  0.00  0.00     0.056 A 
HETATM   26  F   UNK N   1      24.189  11.722  11.900  0.00  0.00    -0.206 F 
ENDBRANCH  14  20
ENDBRANCH   1   5
BRANCH   2  27
HETATM   27  C   UNK N   1      20.391  15.754   4.935  0.00  0.00     0.091 C 
BRANCH  27  28
HETATM   28  C   UNK N   1      19.836  16.560   3.761  0.00  0.00     0.023 C 
BRANCH  28  29
HETATM   29  C   UNK N   1      20.842  16.655   2.619  0.00  0.00     0.118 C 
BRANCH  29  30
HETATM   30  C   UNK N   1      20.358  15.942   1.365  0.00  0.00     0.387 C 
HETATM   31  F   UNK N   1      21.427  15.281   0.795  0.00  0.00    -0.171 F 
HETATM   32  F   UNK N   1      19.848  16.835   0.443  0.00  0.00    -0.171 F 
HETATM   33  F   UNK N   1      19.379  15.025   1.696  0.00  0.00    -0.171 F 
ENDBRANCH  29  30
ENDBRANCH  28  29
ENDBRANCH  27  28
BRANCH  27  34
HETATM   34  C   UNK N   1      20.539  16.607   6.212  0.00  0.00     0.091 C 
BRANCH  34  35
HETATM   35  C   UNK N   1      20.230  15.850   7.495  0.00  0.00     0.023 C 
BRANCH  35  36
HETATM   36  C   UNK N   1      19.987  16.852   8.607  0.00  0.00     0.118 C 
BRANCH  36  37
HETATM   37  C   UNK N   1      18.539  16.814   9.061  0.00  0.00     0.387 C 
HETATM   38  F   UNK N   1      17.719  16.817   7.949  0.00  0.00    -0.171 F 
HETATM   39  F   UNK N   1      18.257  17.922   9.838  0.00  0.00    -0.171 F 
HETATM   40  F   UNK N   1      18.301  15.663   9.792  0.00  0.00    -0.171 F 
ENDBRANCH  36  37
ENDBRANCH  35  36
ENDBRANCH  34  35
BRANCH  34  41
HETATM   41  C   UNK N   1      21.783  17.446   6.270  0.00  0.00     0.220 C 
HETATM   42  O   UNK N   1      21.719  18.653   6.443  0.00  0.00    -0.273 OA
HETATM   43  N   UNK N   1      22.980  16.867   6.049  0.00  0.00    -0.370 N 
HETATM   44  H   UNK N   1      23.418  15.990   5.970  0.00  0.00     0.159 HD
HETATM   45  H   UNK N   1      23.655  17.573   5.920  0.00  0.00     0.159 HD
ENDBRANCH  34  41
ENDBRANCH  27  34
ENDBRANCH   2  27
TORSDOF 11
ENDMDL
MODEL 7
REMARK VINA RESULT:      -6.7     14.058     16.685
REMARK  11 active torsions:
REMARK  status: ('A' for Active; 'I' for Inactive)
REMARK    1  A    between atoms: C_11  and  N_22 
REMARK    2  A    between atoms: C_14  and  C_15 
REMARK       I    between atoms: N_22  and  C_23 
REMARK    3  A    between atoms: C_25  and  C_23 
REMARK    4  A    between atoms: C_25  and  C_26 
REMARK    5  A    between atoms: C_25  and  C_32 
REMARK    6  A    between atoms: C_26  and  C_27 
REMARK    7  A    between atoms: C_27  and  C_28 
REMARK    8  A    between atoms: C_32  and  C_33 
REMARK    9  A    between atoms: C_32  and  C_39 
REMARK   10  A    between atoms: C_33  and  C_34 
REMARK   11  A    between atoms: C_34  and  C_35 
REMARK       I    between atoms: C_39  and  N_41 
ROOT
HETATM    1  N   UNK N   1      29.359  23.425  -3.734  0.00  0.00    -0.332 N 
HETATM    2  C   UNK N   1      30.175  22.345  -3.840  0.00  0.00     0.224 C 
HETATM    3  O   UNK N   1      30.076  21.441  -3.027  0.00  0.00    -0.273 OA
HETATM    4  H   UNK N   1      28.775  23.524  -2.947  0.00  0.00     0.165 HD
ENDROOT
BRANCH   1   5
HETATM    5  C   UNK N   1      29.343  24.425  -4.766  0.00  0.00     0.279 C 
HETATM    6  C   UNK N   1      29.758  25.813  -4.515  0.00  0.00     0.264 C 
HETATM    7  N   UNK N   1      28.885  26.834  -4.531  0.00  0.00    -0.323 N 
HETATM    8  O   UNK N   1      30.928  26.037  -4.238  0.00  0.00    -0.269 OA
HETATM    9  C   UNK N   1      27.492  26.843  -4.850  0.00  0.00     0.053 A 
HETATM   10  H   UNK N   1      29.263  27.709  -4.287  0.00  0.00     0.169 HD
HETATM   11  C   UNK N   1      26.787  25.821  -5.592  0.00  0.00     0.018 A 
HETATM   12  C   UNK N   1      26.781  27.994  -4.423  0.00  0.00    -0.034 A 
HETATM   13  C   UNK N   1      25.419  26.043  -5.837  0.00  0.00     0.016 A 
HETATM   14  C   UNK N   1      27.360  24.530  -6.170  0.00  0.00     0.053 C 
HETATM   15  C   UNK N   1      24.747  27.175  -5.402  0.00  0.00     0.002 A 
HETATM   16  C   UNK N   1      25.427  28.147  -4.697  0.00  0.00     0.009 A 
HETATM   17  N   UNK N   1      28.499  24.045  -5.834  0.00  0.00    -0.360 N 
ATOM     18  HN  UNK N   1      28.842  23.282  -6.418  1.00  0.00     0.162 HD
HETATM   19  C   UNK N   1      27.465  29.080  -3.662  0.00  0.00     0.050 C 
BRANCH  14  20
HETATM   20  C   UNK N   1      26.544  23.596  -7.025  0.00  0.00    -0.006 A 
HETATM   21  C   UNK N   1      26.697  23.692  -8.422  0.00  0.00     0.014 A 
HETATM   22  C   UNK N   1      26.067  22.803  -9.288  0.00  0.00     0.004 A 
HETATM   23  C   UNK N   1      25.259  21.795  -8.772  0.00  0.00     0.042 A 
HETATM   24  C   UNK N   1      25.083  21.685  -7.391  0.00  0.00     0.117 A 
HETATM   25  C   UNK N   1      25.728  22.572  -6.520  0.00  0.00     0.056 A 
HETATM   26  F   UNK N   1      24.294  20.704  -6.895  0.00  0.00    -0.206 F 
ENDBRANCH  14  20
ENDBRANCH   1   5
BRANCH   2  27
HETATM   27  C   UNK N   1      31.292  22.319  -4.877  0.00  0.00     0.091 C 
BRANCH  27  28
HETATM   28  C   UNK N   1      32.606  22.819  -4.276  0.00  0.00     0.023 C 
BRANCH  28  29
HETATM   29  C   UNK N   1      33.338  23.756  -5.230  0.00  0.00     0.118 C 
BRANCH  29  30
HETATM   30  C   UNK N   1      34.720  23.236  -5.601  0.00  0.00     0.387 C 
HETATM   31  F   UNK N   1      34.652  22.668  -6.857  0.00  0.00    -0.171 F 
HETATM   32  F   UNK N   1      35.155  22.279  -4.705  0.00  0.00    -0.171 F 
HETATM   33  F   UNK N   1      35.623  24.282  -5.621  0.00  0.00    -0.171 F 
ENDBRANCH  29  30
ENDBRANCH  28  29
ENDBRANCH  27  28
BRANCH  27  34
HETATM   34  C   UNK N   1      31.484  21.042  -5.720  0.00  0.00     0.091 C 
BRANCH  34  35
HETATM   35  C   UNK N   1      31.543  21.299  -7.219  0.00  0.00     0.023 C 
BRANCH  35  36
HETATM   36  C   UNK N   1      30.626  20.315  -7.920  0.00  0.00     0.118 C 
BRANCH  36  37
HETATM   37  C   UNK N   1      29.280  20.951  -8.219  0.00  0.00     0.387 C 
HETATM   38  F   UNK N   1      29.481  22.239  -8.674  0.00  0.00    -0.171 F 
HETATM   39  F   UNK N   1      28.508  20.988  -7.072  0.00  0.00    -0.171 F 
HETATM   40  F   UNK N   1      28.620  20.226  -9.196  0.00  0.00    -0.171 F 
ENDBRANCH  36  37
ENDBRANCH  35  36
ENDBRANCH  34  35
BRANCH  34  41
HETATM   41  C   UNK N   1      32.537  20.101  -5.210  0.00  0.00     0.220 C 
HETATM   42  O   UNK N   1      33.535  19.857  -5.871  0.00  0.00    -0.273 OA
HETATM   43  N   UNK N   1      32.339  19.460  -4.042  0.00  0.00    -0.370 N 
HETATM   44  H   UNK N   1      31.761  19.452  -3.245  0.00  0.00     0.159 HD
HETATM   45  H   UNK N   1      33.009  18.743  -3.955  0.00  0.00     0.159 HD
ENDBRANCH  34  41
ENDBRANCH  27  34
ENDBRANCH   2  27
TORSDOF 11
ENDMDL
MODEL 8
REMARK VINA RESULT:      -6.7     14.445     16.192
REMARK  11 active torsions:
REMARK  status: ('A' for Active; 'I' for Inactive)
REMARK    1  A    between atoms: C_11  and  N_22 
REMARK    2  A    between atoms: C_14  and  C_15 
REMARK       I    between atoms: N_22  and  C_23 
REMARK    3  A    between atoms: C_25  and  C_23 
REMARK    4  A    between atoms: C_25  and  C_26 
REMARK    5  A    between atoms: C_25  and  C_32 
REMARK    6  A    between atoms: C_26  and  C_27 
REMARK    7  A    between atoms: C_27  and  C_28 
REMARK    8  A    between atoms: C_32  and  C_33 
REMARK    9  A    between atoms: C_32  and  C_39 
REMARK   10  A    between atoms: C_33  and  C_34 
REMARK   11  A    between atoms: C_34  and  C_35 
REMARK       I    between atoms: C_39  and  N_41 
ROOT
HETATM    1  N   UNK N   1      30.342  25.359  -4.830  0.00  0.00    -0.332 N 
HETATM    2  C   UNK N   1      29.414  26.339  -4.980  0.00  0.00     0.224 C 
HETATM    3  O   UNK N   1      29.740  27.395  -5.496  0.00  0.00    -0.273 OA
HETATM    4  H   UNK N   1      31.288  25.544  -5.034  0.00  0.00     0.165 HD
ENDROOT
BRANCH   1   5
HETATM    5  C   UNK N   1      29.951  24.054  -4.375  0.00  0.00     0.279 C 
HETATM    6  C   UNK N   1      30.647  23.369  -3.276  0.00  0.00     0.264 C 
HETATM    7  N   UNK N   1      31.393  22.270  -3.477  0.00  0.00    -0.323 N 
HETATM    8  O   UNK N   1      30.580  23.842  -2.150  0.00  0.00    -0.269 OA
HETATM    9  C   UNK N   1      31.607  21.514  -4.671  0.00  0.00     0.053 A 
HETATM   10  H   UNK N   1      31.863  21.934  -2.680  0.00  0.00     0.169 HD
HETATM   11  C   UNK N   1      30.770  21.541  -5.851  0.00  0.00     0.018 A 
HETATM   12  C   UNK N   1      32.721  20.638  -4.641  0.00  0.00    -0.034 A 
HETATM   13  C   UNK N   1      31.133  20.684  -6.906  0.00  0.00     0.016 A 
HETATM   14  C   UNK N   1      29.515  22.377  -6.081  0.00  0.00     0.053 C 
HETATM   15  C   UNK N   1      32.233  19.842  -6.853  0.00  0.00     0.002 A 
HETATM   16  C   UNK N   1      33.025  19.820  -5.723  0.00  0.00     0.009 A 
HETATM   17  N   UNK N   1      29.185  23.380  -5.353  0.00  0.00    -0.360 N 
ATOM     18  HN  UNK N   1      28.241  23.739  -5.498  1.00  0.00     0.162 HD
HETATM   19  C   UNK N   1      33.610  20.566  -3.444  0.00  0.00     0.050 C 
BRANCH  14  20
HETATM   20  C   UNK N   1      28.663  22.232  -7.314  0.00  0.00    -0.006 A 
HETATM   21  C   UNK N   1      29.109  22.862  -8.493  0.00  0.00     0.014 A 
HETATM   22  C   UNK N   1      28.446  22.698  -9.705  0.00  0.00     0.004 A 
HETATM   23  C   UNK N   1      27.310  21.899  -9.765  0.00  0.00     0.042 A 
HETATM   24  C   UNK N   1      26.840  21.271  -8.609  0.00  0.00     0.117 A 
HETATM   25  C   UNK N   1      27.516  21.426  -7.393  0.00  0.00     0.056 A 
HETATM   26  F   UNK N   1      25.733  20.497  -8.674  0.00  0.00    -0.206 F 
ENDBRANCH  14  20
ENDBRANCH   1   5
BRANCH   2  27
HETATM   27  C   UNK N   1      28.018  26.177  -4.391  0.00  0.00     0.091 C 
BRANCH  27  28
HETATM   28  C   UNK N   1      27.645  27.383  -3.529  0.00  0.00     0.023 C 
BRANCH  28  29
HETATM   29  C   UNK N   1      26.608  28.265  -4.216  0.00  0.00     0.118 C 
BRANCH  29  30
HETATM   30  C   UNK N   1      27.212  29.556  -4.749  0.00  0.00     0.387 C 
HETATM   31  F   UNK N   1      26.332  30.589  -4.494  0.00  0.00    -0.171 F 
HETATM   32  F   UNK N   1      27.430  29.486  -6.110  0.00  0.00    -0.171 F 
HETATM   33  F   UNK N   1      28.410  29.810  -4.110  0.00  0.00    -0.171 F 
ENDBRANCH  29  30
ENDBRANCH  28  29
ENDBRANCH  27  28
BRANCH  27  34
HETATM   34  C   UNK N   1      26.869  25.751  -5.328  0.00  0.00     0.091 C 
BRANCH  34  35
HETATM   35  C   UNK N   1      27.283  25.615  -6.785  0.00  0.00     0.023 C 
BRANCH  35  36
HETATM   36  C   UNK N   1      26.409  26.523  -7.629  0.00  0.00     0.118 C 
BRANCH  36  37
HETATM   37  C   UNK N   1      26.061  25.862  -8.950  0.00  0.00     0.387 C 
HETATM   38  F   UNK N   1      25.018  26.551  -9.537  0.00  0.00    -0.171 F 
HETATM   39  F   UNK N   1      25.677  24.551  -8.737  0.00  0.00    -0.171 F 
HETATM   40  F   UNK N   1      27.154  25.891  -9.799  0.00  0.00    -0.171 F 
ENDBRANCH  36  37
ENDBRANCH  35  36
ENDBRANCH  34  35
BRANCH  34  41
HETATM   41  C   UNK N   1      26.022  24.621  -4.815  0.00  0.00     0.220 C 
HETATM   42  O   UNK N   1      26.039  24.310  -3.634  0.00  0.00    -0.273 OA
HETATM   43  N   UNK N   1      25.296  23.893  -5.685  0.00  0.00    -0.370 N 
HETATM   44  H   UNK N   1      24.976  23.882  -6.616  0.00  0.00     0.159 HD
HETATM   45  H   UNK N   1      24.971  23.083  -5.228  0.00  0.00     0.159 HD
ENDBRANCH  34  41
ENDBRANCH  27  34
ENDBRANCH   2  27
TORSDOF 11
ENDMDL
MODEL 9
REMARK VINA RESULT:      -6.6      3.006      6.926
REMARK  11 active torsions:
REMARK  status: ('A' for Active; 'I' for Inactive)
REMARK    1  A    between atoms: C_11  and  N_22 
REMARK    2  A    between atoms: C_14  and  C_15 
REMARK       I    between atoms: N_22  and  C_23 
REMARK    3  A    between atoms: C_25  and  C_23 
REMARK    4  A    between atoms: C_25  and  C_26 
REMARK    5  A    between atoms: C_25  and  C_32 
REMARK    6  A    between atoms: C_26  and  C_27 
REMARK    7  A    between atoms: C_27  and  C_28 
REMARK    8  A    between atoms: C_32  and  C_33 
REMARK    9  A    between atoms: C_32  and  C_39 
REMARK   10  A    between atoms: C_33  and  C_34 
REMARK   11  A    between atoms: C_34  and  C_35 
REMARK       I    between atoms: C_39  and  N_41 
ROOT
HETATM    1  N   UNK N   1      23.652  15.156   4.412  0.00  0.00    -0.332 N 
HETATM    2  C   UNK N   1      24.899  14.738   4.749  0.00  0.00     0.224 C 
HETATM    3  O   UNK N   1      25.451  13.895   4.062  0.00  0.00    -0.273 OA
HETATM    4  H   UNK N   1      23.161  14.702   3.688  0.00  0.00     0.165 HD
ENDROOT
BRANCH   1   5
HETATM    5  C   UNK N   1      23.045  16.259   5.105  0.00  0.00     0.279 C 
HETATM    6  C   UNK N   1      21.587  16.439   5.159  0.00  0.00     0.264 C 
HETATM    7  N   UNK N   1      20.968  17.450   4.527  0.00  0.00    -0.323 N 
HETATM    8  O   UNK N   1      20.913  15.617   5.763  0.00  0.00    -0.269 OA
HETATM    9  C   UNK N   1      21.518  18.544   3.789  0.00  0.00     0.053 A 
HETATM   10  H   UNK N   1      19.985  17.435   4.581  0.00  0.00     0.169 HD
HETATM   11  C   UNK N   1      22.882  19.019   3.874  0.00  0.00     0.018 A 
HETATM   12  C   UNK N   1      20.605  19.225   2.946  0.00  0.00    -0.034 A 
HETATM   13  C   UNK N   1      23.212  20.143   3.093  0.00  0.00     0.016 A 
HETATM   14  C   UNK N   1      24.010  18.460   4.735  0.00  0.00     0.053 C 
HETATM   15  C   UNK N   1      22.300  20.787   2.271  0.00  0.00     0.002 A 
HETATM   16  C   UNK N   1      21.000  20.328   2.198  0.00  0.00     0.009 A 
HETATM   17  N   UNK N   1      23.969  17.310   5.302  0.00  0.00    -0.360 N 
ATOM     18  HN  UNK N   1      24.701  17.130   5.989  1.00  0.00     0.162 HD
HETATM   19  C   UNK N   1      19.185  18.779   2.831  0.00  0.00     0.050 C 
BRANCH  14  20
HETATM   20  C   UNK N   1      25.363  19.116   4.820  0.00  0.00    -0.006 A 
HETATM   21  C   UNK N   1      26.312  18.785   3.833  0.00  0.00     0.014 A 
HETATM   22  C   UNK N   1      27.549  19.417   3.767  0.00  0.00     0.004 A 
HETATM   23  C   UNK N   1      27.871  20.399   4.699  0.00  0.00     0.042 A 
HETATM   24  C   UNK N   1      26.952  20.739   5.695  0.00  0.00     0.117 A 
HETATM   25  C   UNK N   1      25.702  20.111   5.751  0.00  0.00     0.056 A 
HETATM   26  F   UNK N   1      27.272  21.692   6.599  0.00  0.00    -0.206 F 
ENDBRANCH  14  20
ENDBRANCH   1   5
BRANCH   2  27
HETATM   27  C   UNK N   1      25.549  15.213   6.043  0.00  0.00     0.091 C 
BRANCH  27  28
HETATM   28  C   UNK N   1      25.621  14.079   7.066  0.00  0.00     0.023 C 
BRANCH  28  29
HETATM   29  C   UNK N   1      24.267  13.827   7.720  0.00  0.00     0.118 C 
BRANCH  29  30
HETATM   30  C   UNK N   1      24.400  13.160   9.081  0.00  0.00     0.387 C 
HETATM   31  F   UNK N   1      25.583  13.575   9.659  0.00  0.00    -0.171 F 
HETATM   32  F   UNK N   1      24.422  11.784   8.968  0.00  0.00    -0.171 F 
HETATM   33  F   UNK N   1      23.343  13.532   9.889  0.00  0.00    -0.171 F 
ENDBRANCH  29  30
ENDBRANCH  28  29
ENDBRANCH  27  28
BRANCH  27  34
HETATM   34  C   UNK N   1      26.870  16.006   5.956  0.00  0.00     0.091 C 
BRANCH  34  35
HETATM   35  C   UNK N   1      27.423  16.430   7.308  0.00  0.00     0.023 C 
BRANCH  35  36
HETATM   36  C   UNK N   1      28.413  17.559   7.099  0.00  0.00     0.118 C 
BRANCH  36  37
HETATM   37  C   UNK N   1      28.707  18.269   8.408  0.00  0.00     0.387 C 
HETATM   38  F   UNK N   1      28.809  19.625   8.172  0.00  0.00    -0.171 F 
HETATM   39  F   UNK N   1      29.898  17.808   8.940  0.00  0.00    -0.171 F 
HETATM   40  F   UNK N   1      27.682  18.045   9.310  0.00  0.00    -0.171 F 
ENDBRANCH  36  37
ENDBRANCH  35  36
ENDBRANCH  34  35
BRANCH  34  41
HETATM   41  C   UNK N   1      27.893  15.425   5.021  0.00  0.00     0.220 C 
HETATM   42  O   UNK N   1      28.155  15.971   3.960  0.00  0.00    -0.273 OA
HETATM   43  N   UNK N   1      28.470  14.246   5.324  0.00  0.00    -0.370 N 
HETATM   44  H   UNK N   1      28.582  13.599   6.057  0.00  0.00     0.159 HD
HETATM   45  H   UNK N   1      28.948  13.913   4.530  0.00  0.00     0.159 HD
ENDBRANCH  34  41
ENDBRANCH  27  34
ENDBRANCH   2  27
TORSDOF 11
ENDMDL
