MODEL 1
REMARK VINA RESULT:      -7.5      0.000      0.000
REMARK  5 active torsions:
REMARK  status: ('A' for Active; 'I' for Inactive)
REMARK    1  A    between atoms: C_2  and  C_3 
REMARK    2  A    between atoms: C_9  and  O_26 
REMARK    3  A    between atoms: C_10  and  C_15 
REMARK       I    between atoms: C_15  and  N_17 
REMARK    4  A    between atoms: N_17  and  C_18 
REMARK    5  A    between atoms: N_17  and  C_20 
ROOT
HETATM    1  C   UNK N   1      32.507  17.105   5.026  0.00  0.00    -0.043 A 
HETATM    2  C   UNK N   1      33.686  16.880   5.740  0.00  0.00     0.008 A 
HETATM    3  C   UNK N   1      33.674  16.806   7.127  0.00  0.00     0.003 A 
HETATM    4  C   UNK N   1      32.477  16.948   7.821  0.00  0.00     0.031 A 
HETATM    5  C   UNK N   1      31.266  17.170   7.141  0.00  0.00     0.050 A 
HETATM    6  C   UNK N   1      31.269  17.256   5.725  0.00  0.00     0.032 A 
HETATM    7  C   UNK N   1      30.046  17.496   5.061  0.00  0.00     0.100 A 
HETATM    8  C   UNK N   1      28.836  17.588   5.784  0.00  0.00     0.134 A 
HETATM    9  C   UNK N   1      28.895  17.517   7.196  0.00  0.00     0.266 A 
HETATM   10  O   UNK N   1      27.870  17.622   7.853  0.00  0.00    -0.267 OA
HETATM   11  N   UNK N   1      30.098  17.312   7.842  0.00  0.00    -0.317 N 
HETATM   12  C   UNK N   1      30.110  17.239   9.304  0.00  0.00     0.159 C 
ENDROOT
BRANCH   8  13
HETATM   13  C   UNK N   1      27.504  17.825   5.099  0.00  0.00     0.266 C 
HETATM   14  O   UNK N   1      26.975  16.857   4.570  0.00  0.00    -0.267 OA
HETATM   15  N   UNK N   1      26.897  19.075   5.005  0.00  0.00    -0.314 N 
BRANCH  15  16
HETATM   16  C   UNK N   1      27.646  20.270   5.381  0.00  0.00     0.128 C 
HETATM   17  C   UNK N   1      27.061  20.961   6.610  0.00  0.00     0.027 C 
ENDBRANCH  15  16
BRANCH  15  18
HETATM   18  C   UNK N   1      25.582  19.257   4.416  0.00  0.00     0.037 A 
HETATM   19  C   UNK N   1      25.385  20.216   3.400  0.00  0.00     0.029 A 
HETATM   20  C   UNK N   1      24.122  20.440   2.848  0.00  0.00     0.002 A 
HETATM   21  C   UNK N   1      23.025  19.705   3.297  0.00  0.00     0.000 A 
HETATM   22  C   UNK N   1      23.194  18.746   4.296  0.00  0.00     0.002 A 
HETATM   23  C   UNK N   1      24.457  18.527   4.853  0.00  0.00     0.029 A 
ENDBRANCH  15  18
ENDBRANCH   8  13
BRANCH   7  24
HETATM   24  O   UNK N   1      30.041  17.703   3.736  0.00  0.00    -0.358 OA
HETATM   25  H   UNK N   1      30.792  17.586   3.188  0.00  0.00     0.217 HD
ENDBRANCH   7  24
BRANCH   1  26
HETATM   26  C   UNK N   1      32.616  17.143   3.534  0.00  0.00     0.035 C 
HETATM   27  C   UNK N   1      33.326  15.897   3.034  0.00  0.00     0.010 C 
ENDBRANCH   1  26
TORSDOF 5
ENDMDL
MODEL 2
REMARK VINA RESULT:      -6.9      1.292      3.262
REMARK  5 active torsions:
REMARK  status: ('A' for Active; 'I' for Inactive)
REMARK    1  A    between atoms: C_2  and  C_3 
REMARK    2  A    between atoms: C_9  and  O_26 
REMARK    3  A    between atoms: C_10  and  C_15 
REMARK       I    between atoms: C_15  and  N_17 
REMARK    4  A    between atoms: N_17  and  C_18 
REMARK    5  A    between atoms: N_17  and  C_20 
ROOT
HETATM    1  C   UNK N   1      30.161  17.782   8.256  0.00  0.00    -0.043 A 
HETATM    2  C   UNK N   1      31.504  17.587   8.586  0.00  0.00     0.008 A 
HETATM    3  C   UNK N   1      32.424  17.199   7.621  0.00  0.00     0.003 A 
HETATM    4  C   UNK N   1      32.014  17.007   6.306  0.00  0.00     0.031 A 
HETATM    5  C   UNK N   1      30.672  17.199   5.930  0.00  0.00     0.050 A 
HETATM    6  C   UNK N   1      29.723  17.587   6.910  0.00  0.00     0.032 A 
HETATM    7  C   UNK N   1      28.377  17.758   6.517  0.00  0.00     0.100 A 
HETATM    8  C   UNK N   1      27.994  17.606   5.166  0.00  0.00     0.134 A 
HETATM    9  C   UNK N   1      28.977  17.196   4.235  0.00  0.00     0.266 A 
HETATM   10  O   UNK N   1      28.672  17.027   3.064  0.00  0.00    -0.267 OA
HETATM   11  N   UNK N   1      30.285  17.002   4.630  0.00  0.00    -0.317 N 
HETATM   12  C   UNK N   1      31.270  16.583   3.631  0.00  0.00     0.159 C 
ENDROOT
BRANCH   8  13
HETATM   13  C   UNK N   1      26.561  17.802   4.708  0.00  0.00     0.266 C 
HETATM   14  O   UNK N   1      25.897  16.791   4.527  0.00  0.00    -0.267 OA
HETATM   15  N   UNK N   1      26.000  19.048   4.443  0.00  0.00    -0.314 N 
BRANCH  15  16
HETATM   16  C   UNK N   1      26.857  20.227   4.384  0.00  0.00     0.128 C 
HETATM   17  C   UNK N   1      26.803  21.052   5.667  0.00  0.00     0.027 C 
ENDBRANCH  15  16
BRANCH  15  18
HETATM   18  C   UNK N   1      24.600  19.209   4.087  0.00  0.00     0.037 A 
HETATM   19  C   UNK N   1      24.215  20.189   3.147  0.00  0.00     0.029 A 
HETATM   20  C   UNK N   1      22.873  20.392   2.820  0.00  0.00     0.002 A 
HETATM   21  C   UNK N   1      21.884  19.616   3.422  0.00  0.00     0.000 A 
HETATM   22  C   UNK N   1      22.238  18.636   4.350  0.00  0.00     0.002 A 
HETATM   23  C   UNK N   1      23.581  18.438   4.682  0.00  0.00     0.029 A 
ENDBRANCH  15  18
ENDBRANCH   8  13
BRANCH   7  24
HETATM   24  O   UNK N   1      27.442  18.005   7.445  0.00  0.00    -0.358 OA
HETATM   25  H   UNK N   1      26.594  18.353   7.250  0.00  0.00     0.217 HD
ENDBRANCH   7  24
BRANCH   1  26
HETATM   26  C   UNK N   1      29.251  18.226   9.359  0.00  0.00     0.035 C 
HETATM   27  C   UNK N   1      29.064  17.101  10.362  0.00  0.00     0.010 C 
ENDBRANCH   1  26
TORSDOF 5
ENDMDL
MODEL 3
REMARK VINA RESULT:      -6.8      7.191     11.791
REMARK  5 active torsions:
REMARK  status: ('A' for Active; 'I' for Inactive)
REMARK    1  A    between atoms: C_2  and  C_3 
REMARK    2  A    between atoms: C_9  and  O_26 
REMARK    3  A    between atoms: C_10  and  C_15 
REMARK       I    between atoms: C_15  and  N_17 
REMARK    4  A    between atoms: N_17  and  C_18 
REMARK    5  A    between atoms: N_17  and  C_20 
ROOT
HETATM    1  C   UNK N   1      33.276  15.267   8.489  0.00  0.00    -0.043 A 
HETATM    2  C   UNK N   1      33.271  15.483   7.109  0.00  0.00     0.008 A 
HETATM    3  C   UNK N   1      34.396  15.207   6.343  0.00  0.00     0.003 A 
HETATM    4  C   UNK N   1      35.543  14.704   6.946  0.00  0.00     0.031 A 
HETATM    5  C   UNK N   1      35.589  14.466   8.332  0.00  0.00     0.050 A 
HETATM    6  C   UNK N   1      34.448  14.753   9.125  0.00  0.00     0.032 A 
HETATM    7  C   UNK N   1      34.519  14.524  10.517  0.00  0.00     0.100 A 
HETATM    8  C   UNK N   1      35.677  13.965  11.100  0.00  0.00     0.134 A 
HETATM    9  C   UNK N   1      36.793  13.721  10.265  0.00  0.00     0.266 A 
HETATM   10  O   UNK N   1      37.822  13.266  10.744  0.00  0.00    -0.267 OA
HETATM   11  N   UNK N   1      36.729  13.974   8.910  0.00  0.00    -0.317 N 
HETATM   12  C   UNK N   1      37.907  13.700   8.084  0.00  0.00     0.159 C 
ENDROOT
BRANCH   8  13
HETATM   13  C   UNK N   1      35.778  13.689  12.588  0.00  0.00     0.266 C 
HETATM   14  O   UNK N   1      36.189  14.602  13.292  0.00  0.00    -0.267 OA
HETATM   15  N   UNK N   1      35.479  12.459  13.166  0.00  0.00    -0.314 N 
BRANCH  15  16
HETATM   16  C   UNK N   1      35.262  11.295  12.313  0.00  0.00     0.128 C 
HETATM   17  C   UNK N   1      34.015  10.508  12.708  0.00  0.00     0.027 C 
ENDBRANCH  15  16
BRANCH  15  18
HETATM   18  C   UNK N   1      35.504  12.250  14.604  0.00  0.00     0.037 A 
HETATM   19  C   UNK N   1      36.329  11.249  15.161  0.00  0.00     0.029 A 
HETATM   20  C   UNK N   1      36.339  11.000  16.535  0.00  0.00     0.002 A 
HETATM   21  C   UNK N   1      35.527  11.750  17.385  0.00  0.00     0.000 A 
HETATM   22  C   UNK N   1      34.707  12.749  16.860  0.00  0.00     0.002 A 
HETATM   23  C   UNK N   1      34.692  12.993  15.484  0.00  0.00     0.029 A 
ENDBRANCH  15  18
ENDBRANCH   8  13
BRANCH   7  24
HETATM   24  O   UNK N   1      33.500  14.900  11.303  0.00  0.00    -0.358 OA
HETATM   25  H   UNK N   1      33.386  14.603  12.184  0.00  0.00     0.217 HD
ENDBRANCH   7  24
BRANCH   1  26
HETATM   26  C   UNK N   1      32.008  15.568   9.226  0.00  0.00     0.035 C 
HETATM   27  C   UNK N   1      31.346  16.802   8.637  0.00  0.00     0.010 C 
ENDBRANCH   1  26
TORSDOF 5
ENDMDL
MODEL 4
REMARK VINA RESULT:      -6.8     11.277     13.796
REMARK  5 active torsions:
REMARK  status: ('A' for Active; 'I' for Inactive)
REMARK    1  A    between atoms: C_2  and  C_3 
REMARK    2  A    between atoms: C_9  and  O_26 
REMARK    3  A    between atoms: C_10  and  C_15 
REMARK       I    between atoms: C_15  and  N_17 
REMARK    4  A    between atoms: N_17  and  C_18 
REMARK    5  A    between atoms: N_17  and  C_20 
ROOT
HETATM    1  C   UNK N   1      29.695  21.567  -6.097  0.00  0.00    -0.043 A 
HETATM    2  C   UNK N   1      29.797  20.425  -6.894  0.00  0.00     0.008 A 
HETATM    3  C   UNK N   1      28.805  20.109  -7.813  0.00  0.00     0.003 A 
HETATM    4  C   UNK N   1      27.697  20.937  -7.954  0.00  0.00     0.031 A 
HETATM    5  C   UNK N   1      27.558  22.101  -7.174  0.00  0.00     0.050 A 
HETATM    6  C   UNK N   1      28.561  22.427  -6.227  0.00  0.00     0.032 A 
HETATM    7  C   UNK N   1      28.395  23.589  -5.442  0.00  0.00     0.100 A 
HETATM    8  C   UNK N   1      27.285  24.442  -5.637  0.00  0.00     0.134 A 
HETATM    9  C   UNK N   1      26.304  24.055  -6.580  0.00  0.00     0.266 A 
HETATM   10  O   UNK N   1      25.317  24.754  -6.751  0.00  0.00    -0.267 OA
HETATM   11  N   UNK N   1      26.457  22.902  -7.323  0.00  0.00    -0.317 N 
HETATM   12  C   UNK N   1      25.419  22.544  -8.292  0.00  0.00     0.159 C 
ENDROOT
BRANCH   8  13
HETATM   13  C   UNK N   1      27.088  25.707  -4.824  0.00  0.00     0.266 C 
HETATM   14  O   UNK N   1      26.320  25.638  -3.874  0.00  0.00    -0.267 OA
HETATM   15  N   UNK N   1      27.689  26.924  -5.133  0.00  0.00    -0.314 N 
BRANCH  15  16
HETATM   16  C   UNK N   1      28.375  27.085  -6.411  0.00  0.00     0.128 C 
HETATM   17  C   UNK N   1      27.438  27.553  -7.521  0.00  0.00     0.027 C 
ENDBRANCH  15  16
BRANCH  15  18
HETATM   18  C   UNK N   1      27.547  28.097  -4.288  0.00  0.00     0.037 A 
HETATM   19  C   UNK N   1      26.449  28.966  -4.458  0.00  0.00     0.029 A 
HETATM   20  C   UNK N   1      26.313  30.123  -3.687  0.00  0.00     0.002 A 
HETATM   21  C   UNK N   1      27.271  30.434  -2.724  0.00  0.00     0.000 A 
HETATM   22  C   UNK N   1      28.363  29.588  -2.530  0.00  0.00     0.002 A 
HETATM   23  C   UNK N   1      28.502  28.434  -3.307  0.00  0.00     0.029 A 
ENDBRANCH  15  18
ENDBRANCH   8  13
BRANCH   7  24
HETATM   24  O   UNK N   1      29.265  23.854  -4.457  0.00  0.00    -0.358 OA
HETATM   25  H   UNK N   1      30.086  23.413  -4.355  0.00  0.00     0.217 HD
ENDBRANCH   7  24
BRANCH   1  26
HETATM   26  C   UNK N   1      30.826  21.838  -5.154  0.00  0.00     0.035 C 
HETATM   27  C   UNK N   1      30.819  20.820  -4.027  0.00  0.00     0.010 C 
ENDBRANCH   1  26
TORSDOF 5
ENDMDL
MODEL 5
REMARK VINA RESULT:      -6.7      1.840      6.899
REMARK  5 active torsions:
REMARK  status: ('A' for Active; 'I' for Inactive)
REMARK    1  A    between atoms: C_2  and  C_3 
REMARK    2  A    between atoms: C_9  and  O_26 
REMARK    3  A    between atoms: C_10  and  C_15 
REMARK       I    between atoms: C_15  and  N_17 
REMARK    4  A    between atoms: N_17  and  C_18 
REMARK    5  A    between atoms: N_17  and  C_20 
ROOT
HETATM    1  C   UNK N   1      27.316  19.885   4.955  0.00  0.00    -0.043 A 
HETATM    2  C   UNK N   1      26.535  20.844   5.603  0.00  0.00     0.008 A 
HETATM    3  C   UNK N   1      26.565  20.968   6.986  0.00  0.00     0.003 A 
HETATM    4  C   UNK N   1      27.385  20.137   7.742  0.00  0.00     0.031 A 
HETATM    5  C   UNK N   1      28.193  19.162   7.128  0.00  0.00     0.050 A 
HETATM    6  C   UNK N   1      28.162  19.022   5.718  0.00  0.00     0.032 A 
HETATM    7  C   UNK N   1      28.967  18.026   5.121  0.00  0.00     0.100 A 
HETATM    8  C   UNK N   1      29.829  17.227   5.905  0.00  0.00     0.134 A 
HETATM    9  C   UNK N   1      29.801  17.395   7.310  0.00  0.00     0.266 A 
HETATM   10  O   UNK N   1      30.513  16.700   8.019  0.00  0.00    -0.267 OA
HETATM   11  N   UNK N   1      28.991  18.350   7.889  0.00  0.00    -0.317 N 
HETATM   12  C   UNK N   1      28.999  18.493   9.347  0.00  0.00     0.159 C 
ENDROOT
BRANCH   8  13
HETATM   13  C   UNK N   1      30.720  16.163   5.293  0.00  0.00     0.266 C 
HETATM   14  O   UNK N   1      30.226  15.055   5.135  0.00  0.00    -0.267 OA
HETATM   15  N   UNK N   1      32.055  16.373   4.959  0.00  0.00    -0.314 N 
BRANCH  15  16
HETATM   16  C   UNK N   1      32.725  17.593   5.399  0.00  0.00     0.128 C 
HETATM   17  C   UNK N   1      33.700  17.340   6.546  0.00  0.00     0.027 C 
ENDBRANCH  15  16
BRANCH  15  18
HETATM   18  C   UNK N   1      32.859  15.360   4.298  0.00  0.00     0.037 A 
HETATM   19  C   UNK N   1      33.252  14.198   4.996  0.00  0.00     0.029 A 
HETATM   20  C   UNK N   1      34.060  13.230   4.396  0.00  0.00     0.002 A 
HETATM   21  C   UNK N   1      34.490  13.399   3.081  0.00  0.00     0.000 A 
HETATM   22  C   UNK N   1      34.110  14.536   2.366  0.00  0.00     0.002 A 
HETATM   23  C   UNK N   1      33.308  15.508   2.969  0.00  0.00     0.029 A 
ENDBRANCH  15  18
ENDBRANCH   8  13
BRANCH   7  24
HETATM   24  O   UNK N   1      28.865  17.792   3.805  0.00  0.00    -0.358 OA
HETATM   25  H   UNK N   1      28.360  18.321   3.220  0.00  0.00     0.217 HD
ENDBRANCH   7  24
BRANCH   1  26
HETATM   26  C   UNK N   1      27.237  19.845   3.461  0.00  0.00     0.035 C 
HETATM   27  C   UNK N   1      25.915  20.430   2.995  0.00  0.00     0.010 C 
ENDBRANCH   1  26
TORSDOF 5
ENDMDL
MODEL 6
REMARK VINA RESULT:      -6.7      3.796      9.190
REMARK  5 active torsions:
REMARK  status: ('A' for Active; 'I' for Inactive)
REMARK    1  A    between atoms: C_2  and  C_3 
REMARK    2  A    between atoms: C_9  and  O_26 
REMARK    3  A    between atoms: C_10  and  C_15 
REMARK       I    between atoms: C_15  and  N_17 
REMARK    4  A    between atoms: N_17  and  C_18 
REMARK    5  A    between atoms: N_17  and  C_20 
ROOT
HETATM    1  C   UNK N   1      29.478  17.373   7.209  0.00  0.00    -0.043 A 
HETATM    2  C   UNK N   1      28.638  17.760   6.162  0.00  0.00     0.008 A 
HETATM    3  C   UNK N   1      29.127  17.881   4.868  0.00  0.00     0.003 A 
HETATM    4  C   UNK N   1      30.464  17.609   4.600  0.00  0.00     0.031 A 
HETATM    5  C   UNK N   1      31.342  17.210   5.625  0.00  0.00     0.050 A 
HETATM    6  C   UNK N   1      30.855  17.092   6.951  0.00  0.00     0.032 A 
HETATM    7  C   UNK N   1      31.756  16.707   7.969  0.00  0.00     0.100 A 
HETATM    8  C   UNK N   1      33.097  16.388   7.665  0.00  0.00     0.134 A 
HETATM    9  C   UNK N   1      33.535  16.546   6.328  0.00  0.00     0.266 A 
HETATM   10  O   UNK N   1      34.697  16.307   6.037  0.00  0.00    -0.267 OA
HETATM   11  N   UNK N   1      32.657  16.951   5.343  0.00  0.00    -0.317 N 
HETATM   12  C   UNK N   1      33.152  17.095   3.972  0.00  0.00     0.159 C 
ENDROOT
BRANCH   8  13
HETATM   13  C   UNK N   1      34.084  15.953   8.731  0.00  0.00     0.266 C 
HETATM   14  O   UNK N   1      34.853  16.806   9.152  0.00  0.00    -0.267 OA
HETATM   15  N   UNK N   1      34.184  14.647   9.203  0.00  0.00    -0.314 N 
BRANCH  15  16
HETATM   16  C   UNK N   1      33.473  13.575   8.513  0.00  0.00     0.128 C 
HETATM   17  C   UNK N   1      34.295  12.965   7.380  0.00  0.00     0.027 C 
ENDBRANCH  15  16
BRANCH  15  18
HETATM   18  C   UNK N   1      35.082  14.278  10.284  0.00  0.00     0.037 A 
HETATM   19  C   UNK N   1      36.384  13.814   9.999  0.00  0.00     0.029 A 
HETATM   20  C   UNK N   1      37.250  13.413  11.019  0.00  0.00     0.002 A 
HETATM   21  C   UNK N   1      36.835  13.472  12.349  0.00  0.00     0.000 A 
HETATM   22  C   UNK N   1      35.555  13.934  12.658  0.00  0.00     0.002 A 
HETATM   23  C   UNK N   1      34.686  14.328  11.637  0.00  0.00     0.029 A 
ENDBRANCH  15  18
ENDBRANCH   8  13
BRANCH   7  24
HETATM   24  O   UNK N   1      31.350  16.706   9.247  0.00  0.00    -0.358 OA
HETATM   25  H   UNK N   1      31.669  16.107   9.893  0.00  0.00     0.217 HD
ENDBRANCH   7  24
BRANCH   1  26
HETATM   26  C   UNK N   1      28.854  17.243   8.564  0.00  0.00     0.035 C 
HETATM   27  C   UNK N   1      28.201  18.556   8.963  0.00  0.00     0.010 C 
ENDBRANCH   1  26
TORSDOF 5
ENDMDL
MODEL 7
REMARK VINA RESULT:      -6.7      7.448     10.891
REMARK  5 active torsions:
REMARK  status: ('A' for Active; 'I' for Inactive)
REMARK    1  A    between atoms: C_2  and  C_3 
REMARK    2  A    between atoms: C_9  and  O_26 
REMARK    3  A    between atoms: C_10  and  C_15 
REMARK       I    between atoms: C_15  and  N_17 
REMARK    4  A    between atoms: N_17  and  C_18 
REMARK    5  A    between atoms: N_17  and  C_20 
ROOT
HETATM    1  C   UNK N   1      35.147  10.169  13.533  0.00  0.00    -0.043 A 
HETATM    2  C   UNK N   1      35.643   9.475  14.639  0.00  0.00     0.008 A 
HETATM    3  C   UNK N   1      36.374  10.132  15.621  0.00  0.00     0.003 A 
HETATM    4  C   UNK N   1      36.614  11.497  15.513  0.00  0.00     0.031 A 
HETATM    5  C   UNK N   1      36.128  12.235  14.419  0.00  0.00     0.050 A 
HETATM    6  C   UNK N   1      35.388  11.572  13.407  0.00  0.00     0.032 A 
HETATM    7  C   UNK N   1      34.923  12.327  12.307  0.00  0.00     0.100 A 
HETATM    8  C   UNK N   1      35.136  13.722  12.245  0.00  0.00     0.134 A 
HETATM    9  C   UNK N   1      35.900  14.326  13.270  0.00  0.00     0.266 A 
HETATM   10  O   UNK N   1      36.129  15.526  13.230  0.00  0.00    -0.267 OA
HETATM   11  N   UNK N   1      36.378  13.579  14.328  0.00  0.00    -0.317 N 
HETATM   12  C   UNK N   1      37.159  14.248  15.370  0.00  0.00     0.159 C 
ENDROOT
BRANCH   8  13
HETATM   13  C   UNK N   1      34.633  14.563  11.087  0.00  0.00     0.266 C 
HETATM   14  O   UNK N   1      33.435  14.810  11.065  0.00  0.00    -0.267 OA
HETATM   15  N   UNK N   1      35.446  15.012  10.050  0.00  0.00    -0.314 N 
BRANCH  15  16
HETATM   16  C   UNK N   1      36.803  14.492   9.920  0.00  0.00     0.128 C 
HETATM   17  C   UNK N   1      36.847  13.158   9.180  0.00  0.00     0.027 C 
ENDBRANCH  15  16
BRANCH  15  18
HETATM   18  C   UNK N   1      34.952  15.886   9.000  0.00  0.00     0.037 A 
HETATM   19  C   UNK N   1      34.645  15.362   7.726  0.00  0.00     0.029 A 
HETATM   20  C   UNK N   1      34.210  16.189   6.687  0.00  0.00     0.002 A 
HETATM   21  C   UNK N   1      34.067  17.559   6.901  0.00  0.00     0.000 A 
HETATM   22  C   UNK N   1      34.357  18.101   8.153  0.00  0.00     0.002 A 
HETATM   23  C   UNK N   1      34.800  17.275   9.190  0.00  0.00     0.029 A 
ENDBRANCH  15  18
ENDBRANCH   8  13
BRANCH   7  24
HETATM   24  O   UNK N   1      34.328  11.704  11.280  0.00  0.00    -0.358 OA
HETATM   25  H   UNK N   1      33.491  11.286  11.338  0.00  0.00     0.217 HD
ENDBRANCH   7  24
BRANCH   1  26
HETATM   26  C   UNK N   1      34.349   9.381  12.542  0.00  0.00     0.035 C 
HETATM   27  C   UNK N   1      35.142   8.171  12.081  0.00  0.00     0.010 C 
ENDBRANCH   1  26
TORSDOF 5
ENDMDL
MODEL 8
REMARK VINA RESULT:      -6.6      6.387      8.062
REMARK  5 active torsions:
REMARK  status: ('A' for Active; 'I' for Inactive)
REMARK    1  A    between atoms: C_2  and  C_3 
REMARK    2  A    between atoms: C_9  and  O_26 
REMARK    3  A    between atoms: C_10  and  C_15 
REMARK       I    between atoms: C_15  and  N_17 
REMARK    4  A    between atoms: N_17  and  C_18 
REMARK    5  A    between atoms: N_17  and  C_20 
ROOT
HETATM    1  C   UNK N   1      24.031  13.226   7.932  0.00  0.00    -0.043 A 
HETATM    2  C   UNK N   1      24.049  12.137   8.806  0.00  0.00     0.008 A 
HETATM    3  C   UNK N   1      22.994  11.911   9.681  0.00  0.00     0.003 A 
HETATM    4  C   UNK N   1      21.899  12.769   9.688  0.00  0.00     0.031 A 
HETATM    5  C   UNK N   1      21.838  13.873   8.819  0.00  0.00     0.050 A 
HETATM    6  C   UNK N   1      22.914  14.118   7.929  0.00  0.00     0.032 A 
HETATM    7  C   UNK N   1      22.843  15.242   7.076  0.00  0.00     0.100 A 
HETATM    8  C   UNK N   1      21.699  16.070   7.066  0.00  0.00     0.134 A 
HETATM    9  C   UNK N   1      20.665  15.793   7.992  0.00  0.00     0.266 A 
HETATM   10  O   UNK N   1      19.675  16.508   8.030  0.00  0.00    -0.267 OA
HETATM   11  N   UNK N   1      20.754  14.710   8.843  0.00  0.00    -0.317 N 
HETATM   12  C   UNK N   1      19.657  14.457   9.781  0.00  0.00     0.159 C 
ENDROOT
BRANCH   8  13
HETATM   13  C   UNK N   1      21.583  17.273   6.149  0.00  0.00     0.266 C 
HETATM   14  O   UNK N   1      21.643  18.376   6.676  0.00  0.00    -0.267 OA
HETATM   15  N   UNK N   1      21.366  17.179   4.777  0.00  0.00    -0.314 N 
BRANCH  15  16
HETATM   16  C   UNK N   1      21.015  15.890   4.190  0.00  0.00     0.128 C 
HETATM   17  C   UNK N   1      22.094  15.367   3.245  0.00  0.00     0.027 C 
ENDBRANCH  15  16
BRANCH  15  18
HETATM   18  C   UNK N   1      21.343  18.346   3.913  0.00  0.00     0.037 A 
HETATM   19  C   UNK N   1      20.160  18.700   3.228  0.00  0.00     0.029 A 
HETATM   20  C   UNK N   1      20.124  19.792   2.359  0.00  0.00     0.002 A 
HETATM   21  C   UNK N   1      21.270  20.560   2.158  0.00  0.00     0.000 A 
HETATM   22  C   UNK N   1      22.451  20.236   2.828  0.00  0.00     0.002 A 
HETATM   23  C   UNK N   1      22.488  19.139   3.692  0.00  0.00     0.029 A 
ENDBRANCH  15  18
ENDBRANCH   8  13
BRANCH   7  24
HETATM   24  O   UNK N   1      23.897  15.564   6.314  0.00  0.00    -0.358 OA
HETATM   25  H   UNK N   1      24.696  15.918   6.653  0.00  0.00     0.217 HD
ENDBRANCH   7  24
BRANCH   1  26
HETATM   26  C   UNK N   1      25.200  13.371   7.009  0.00  0.00     0.035 C 
HETATM   27  C   UNK N   1      25.154  12.294   5.939  0.00  0.00     0.010 C 
ENDBRANCH   1  26
TORSDOF 5
ENDMDL
MODEL 9
REMARK VINA RESULT:      -6.6      7.461     11.033
REMARK  5 active torsions:
REMARK  status: ('A' for Active; 'I' for Inactive)
REMARK    1  A    between atoms: C_2  and  C_3 
REMARK    2  A    between atoms: C_9  and  O_26 
REMARK    3  A    between atoms: C_10  and  C_15 
REMARK       I    between atoms: C_15  and  N_17 
REMARK    4  A    between atoms: N_17  and  C_18 
REMARK    5  A    between atoms: N_17  and  C_20 
ROOT
HETATM    1  C   UNK N   1      36.682  12.374  14.691  0.00  0.00    -0.043 A 
HETATM    2  C   UNK N   1      37.131  11.273  15.423  0.00  0.00     0.008 A 
HETATM    3  C   UNK N   1      37.710  10.184  14.785  0.00  0.00     0.003 A 
HETATM    4  C   UNK N   1      37.855  10.184  13.402  0.00  0.00     0.031 A 
HETATM    5  C   UNK N   1      37.422  11.275  12.627  0.00  0.00     0.050 A 
HETATM    6  C   UNK N   1      36.821  12.388  13.269  0.00  0.00     0.032 A 
HETATM    7  C   UNK N   1      36.377  13.467  12.472  0.00  0.00     0.100 A 
HETATM    8  C   UNK N   1      36.580  13.466  11.075  0.00  0.00     0.134 A 
HETATM    9  C   UNK N   1      37.163  12.320  10.486  0.00  0.00     0.266 A 
HETATM   10  O   UNK N   1      37.326  12.274   9.276  0.00  0.00    -0.267 OA
HETATM   11  N   UNK N   1      37.569  11.256  11.266  0.00  0.00    -0.317 N 
HETATM   12  C   UNK N   1      38.174  10.092  10.614  0.00  0.00     0.159 C 
ENDROOT
BRANCH   8  13
HETATM   13  C   UNK N   1      36.132  14.617  10.194  0.00  0.00     0.266 C 
HETATM   14  O   UNK N   1      36.870  15.592  10.143  0.00  0.00    -0.267 OA
HETATM   15  N   UNK N   1      34.925  14.633   9.500  0.00  0.00    -0.314 N 
BRANCH  15  16
HETATM   16  C   UNK N   1      33.922  13.609   9.775  0.00  0.00     0.128 C 
HETATM   17  C   UNK N   1      33.839  12.563   8.667  0.00  0.00     0.027 C 
ENDBRANCH  15  16
BRANCH  15  18
HETATM   18  C   UNK N   1      34.562  15.713   8.599  0.00  0.00     0.037 A 
HETATM   19  C   UNK N   1      33.915  16.865   9.096  0.00  0.00     0.029 A 
HETATM   20  C   UNK N   1      33.517  17.897   8.244  0.00  0.00     0.002 A 
HETATM   21  C   UNK N   1      33.762  17.804   6.874  0.00  0.00     0.000 A 
HETATM   22  C   UNK N   1      34.406  16.679   6.359  0.00  0.00     0.002 A 
HETATM   23  C   UNK N   1      34.798  15.642   7.211  0.00  0.00     0.029 A 
ENDBRANCH  15  18
ENDBRANCH   8  13
BRANCH   7  24
HETATM   24  O   UNK N   1      35.698  14.474  13.040  0.00  0.00    -0.358 OA
HETATM   25  H   UNK N   1      34.778  14.448  13.215  0.00  0.00     0.217 HD
ENDBRANCH   7  24
BRANCH   1  26
HETATM   26  C   UNK N   1      36.097  13.511  15.469  0.00  0.00     0.035 C 
HETATM   27  C   UNK N   1      34.947  13.015  16.328  0.00  0.00     0.010 C 
ENDBRANCH   1  26
TORSDOF 5
ENDMDL
