REMARK  28 active torsions:
REMARK  status: ('A' for Active; 'I' for Inactive)
REMARK    1  A    between atoms: C_2  and  C_4 
REMARK    2  A    between atoms: C_4  and  C_5 
REMARK    3  A    between atoms: C_5  and  C_6 
REMARK    4  A    between atoms: C_5  and  N_9 
REMARK    5  A    between atoms: C_6  and  O_8 
REMARK       I    between atoms: N_9  and  C_10 
REMARK    6  A    between atoms: C_10  and  C_12 
REMARK    7  A    between atoms: C_12  and  C_13 
REMARK    8  A    between atoms: C_12  and  N_18 
REMARK    9  A    between atoms: C_13  and  C_14 
REMARK   10  A    between atoms: C_14  and  C_15 
REMARK   11  A    between atoms: C_15  and  O_17 
REMARK       I    between atoms: N_18  and  C_19 
REMARK   12  A    between atoms: C_19  and  C_21 
REMARK   13  A    between atoms: C_21  and  C_22 
REMARK   14  A    between atoms: C_21  and  N_24 
REMARK   15  A    between atoms: C_22  and  S_23 
REMARK       I    between atoms: N_24  and  C_25 
REMARK   16  A    between atoms: C_25  and  C_27 
REMARK   17  A    between atoms: C_27  and  N_28 
REMARK       I    between atoms: N_28  and  C_29 
REMARK   18  A    between atoms: C_29  and  C_31 
REMARK   19  A    between atoms: C_31  and  C_32 
REMARK   20  A    between atoms: C_31  and  N_36 
REMARK   21  A    between atoms: C_32  and  C_33 
REMARK   22  A    between atoms: C_33  and  O_35 
REMARK       I    between atoms: N_36  and  C_37 
REMARK   23  A    between atoms: C_37  and  C_39 
REMARK   24  A    between atoms: C_39  and  C_40 
REMARK   25  A    between atoms: C_39  and  N_44 
REMARK   26  A    between atoms: C_40  and  C_41 
REMARK   27  A    between atoms: C_41  and  S_42 
REMARK   28  A    between atoms: N_44  and  C_45 
ROOT
HETATM    1  C   UNK N   1      17.376   6.597  -0.348  0.00  0.00     0.185 C 
ENDROOT
BRANCH   1   2
HETATM    2  C   UNK N   1      16.574   6.814   0.925  0.00  0.00     0.241 C 
HETATM    3  N   UNK N   1      15.385   7.471   0.914  0.00  0.00    -0.346 N 
HETATM    4  H   UNK N   1      14.879   7.518   1.757  0.00  0.00     0.163 HD
HETATM    5  O   UNK N   1      16.990   6.367   1.983  0.00  0.00    -0.271 OA
BRANCH   3   6
HETATM    6  C   UNK N   1      14.811   8.108  -0.255  0.00  0.00     0.177 C 
BRANCH   6   7
HETATM    7  C   UNK N   1      14.473   7.110  -1.338  0.00  0.00     0.241 C 
HETATM    8  N   UNK N   1      13.380   6.318  -1.225  0.00  0.00    -0.345 N 
HETATM    9  H   UNK N   1      13.182   5.667  -1.936  0.00  0.00     0.163 HD
HETATM   10  O   UNK N   1      15.157   7.045  -2.347  0.00  0.00    -0.271 OA
BRANCH   8  11
HETATM   11  C   UNK N   1      12.500   6.407  -0.086  0.00  0.00     0.182 C 
BRANCH  11  12
HETATM   12  C   UNK N   1      11.211   7.098  -0.509  0.00  0.00     0.040 C 
BRANCH  12  13
HETATM   13  C   UNK N   1      10.472   7.675   0.685  0.00  0.00    -0.020 C 
HETATM   14  C   UNK N   1       9.691   8.894   0.244  0.00  0.00     0.009 C 
HETATM   15  C   UNK N   1       9.512   6.647   1.250  0.00  0.00     0.009 C 
ENDBRANCH  12  13
ENDBRANCH  11  12
BRANCH  11  16
HETATM   16  C   UNK N   1      12.257   5.048   0.493  0.00  0.00     0.163 C 
HETATM   17  O   UNK N   1      12.591   4.810   1.641  0.00  0.00    -0.648 OA
BRANCH  16  18
HETATM   18  O   UNK N   1      11.670   4.087  -0.248  0.00  0.00    -0.775 OA
HETATM   19  H   UNK N   1      10.888   4.107  -0.763  0.00  0.00     0.167 HD
ENDBRANCH  16  18
ENDBRANCH  11  16
ENDBRANCH   8  11
ENDBRANCH   6   7
BRANCH   6  20
HETATM   20  C   UNK N   1      15.640   9.303  -0.715  0.00  0.00     0.045 C 
BRANCH  20  21
HETATM   21  C   UNK N   1      15.650  10.353   0.386  0.00  0.00     0.112 C 
BRANCH  21  22
HETATM   22  C   UNK N   1      16.350  11.589  -0.063  0.00  0.00     0.139 C 
HETATM   23  O   UNK N   1      15.748  12.649  -0.095  0.00  0.00    -0.650 OA
BRANCH  22  24
HETATM   24  O   UNK N   1      17.650  11.543  -0.410  0.00  0.00    -0.776 OA
HETATM   25  H   UNK N   1      18.075  10.744  -0.652  0.00  0.00     0.167 HD
ENDBRANCH  22  24
ENDBRANCH  21  22
ENDBRANCH  20  21
ENDBRANCH   6  20
ENDBRANCH   3   6
ENDBRANCH   1   2
BRANCH   1  26
HETATM   26  C   UNK N   1      17.977   5.193  -0.444  0.00  0.00     0.105 C 
BRANCH  26  27
HETATM   27  S   UNK N   1      16.698   3.902  -0.366  0.00  0.00    -0.180 SA
HETATM   28  H   UNK N   1      15.383   4.247  -0.308  0.00  0.00     0.101 HD
ENDBRANCH  26  27
ENDBRANCH   1  26
BRANCH   1  29
HETATM   29  N   UNK N   1      18.395   7.611  -0.565  0.00  0.00    -0.346 N 
HETATM   30  C   UNK N   1      19.372   7.895   0.331  0.00  0.00     0.236 C 
HETATM   31  O   UNK N   1      19.404   7.328   1.414  0.00  0.00    -0.272 OA
HETATM   32  H   UNK N   1      18.375   8.119  -1.408  0.00  0.00     0.163 HD
BRANCH  30  33
HETATM   33  C   UNK N   1      20.481   8.845  -0.023  0.00  0.00     0.225 C 
BRANCH  33  34
HETATM   34  N   UNK N   1      21.707   8.209   0.393  0.00  0.00    -0.351 N 
HETATM   35  C   UNK N   1      22.189   7.120  -0.246  0.00  0.00     0.241 C 
HETATM   36  O   UNK N   1      21.752   6.805  -1.347  0.00  0.00    -0.271 OA
HETATM   37  H   UNK N   1      22.204   8.577   1.159  0.00  0.00     0.163 HD
BRANCH  35  38
HETATM   38  C   UNK N   1      23.128   6.205   0.497  0.00  0.00     0.186 C 
BRANCH  38  39
HETATM   39  C   UNK N   1      23.236   4.803  -0.098  0.00  0.00     0.144 C 
BRANCH  39  40
HETATM   40  C   UNK N   1      21.876   4.156  -0.086  0.00  0.00     0.141 C 
HETATM   41  O   UNK N   1      21.287   3.981   0.970  0.00  0.00    -0.650 OA
BRANCH  40  42
HETATM   42  O   UNK N   1      21.281   3.823  -1.246  0.00  0.00    -0.776 OA
HETATM   43  H   UNK N   1      20.873   4.066  -2.053  0.00  0.00     0.167 HD
ENDBRANCH  40  42
ENDBRANCH  39  40
ENDBRANCH  38  39
BRANCH  38  44
HETATM   44  N   UNK N   1      24.397   6.848   0.758  0.00  0.00    -0.346 N 
HETATM   45  C   UNK N   1      25.262   7.219  -0.213  0.00  0.00     0.241 C 
HETATM   46  O   UNK N   1      25.061   6.916  -1.381  0.00  0.00    -0.271 OA
HETATM   47  H   UNK N   1      24.645   7.024   1.695  0.00  0.00     0.163 HD
BRANCH  45  48
HETATM   48  C   UNK N   1      26.347   8.195   0.136  0.00  0.00     0.176 C 
BRANCH  48  49
HETATM   49  C   UNK N   1      27.681   7.808  -0.475  0.00  0.00     0.045 C 
BRANCH  49  50
HETATM   50  C   UNK N   1      28.451   6.882   0.444  0.00  0.00     0.076 C 
BRANCH  50  51
HETATM   51  S   UNK N   1      30.085   6.555  -0.280  0.00  0.00    -0.173 SA
HETATM   52  C   UNK N   1      30.760   8.141   0.294  0.00  0.00     0.089 C 
ENDBRANCH  50  51
ENDBRANCH  49  50
ENDBRANCH  48  49
BRANCH  48  53
HETATM   53  N   UNK N   1      25.963   9.505  -0.328  0.00  0.00    -0.355 N 
HETATM   54  H   UNK N   1      26.510   9.966  -1.004  0.00  0.00     0.162 HD
BRANCH  53  55
HETATM   55  C   UNK N   1      24.853  10.101   0.162  0.00  0.00     0.349 C 
HETATM   56  O   UNK N   1      24.508  11.193  -0.254  0.00  0.00    -0.284 OA
ENDBRANCH  53  55
ENDBRANCH  48  53
ENDBRANCH  45  48
ENDBRANCH  38  44
ENDBRANCH  35  38
ENDBRANCH  33  34
ENDBRANCH  30  33
ENDBRANCH   1  29
TORSDOF 28
