MODEL 1
REMARK VINA RESULT:      -9.2      0.000      0.000
REMARK  4 active torsions:
REMARK  status: ('A' for Active; 'I' for Inactive)
REMARK    1  A    between atoms: C_24  and  C_13 
REMARK    2  A    between atoms: N_33  and  C_16 
REMARK    3  A    between atoms: C_23  and  C_21 
REMARK    4  A    between atoms: O_36  and  C_24 
REMARK       I    between atoms: N_33  and  C_25 
ROOT
HETATM    1  C   UNK N   1      30.963  14.166   4.381  0.00  0.00     0.025 A 
HETATM    2  C   UNK N   1      29.962  15.058   4.718  0.00  0.00     0.016 A 
HETATM    3  C   UNK N   1      32.157  14.838   6.344  0.00  0.00     0.038 A 
HETATM    4  C   UNK N   1      29.154  17.298   8.432  0.00  0.00     0.162 C 
HETATM    5  C   UNK N   1      27.591  18.541   7.027  0.00  0.00     0.117 A 
HETATM    6  C   UNK N   1      28.619  17.606   7.100  0.00  0.00     0.004 A 
HETATM    7  C   UNK N   1      32.076  14.071   5.189  0.00  0.00     0.035 A 
HETATM    8  C   UNK N   1      30.015  15.855   5.881  0.00  0.00     0.004 A 
HETATM    9  C   UNK N   1      31.141  15.714   6.768  0.00  0.00     0.005 A 
HETATM   10  C   UNK N   1      28.934  16.863   5.959  0.00  0.00     0.069 A 
HETATM   11  C   UNK N   1      31.439  16.540   8.023  0.00  0.00     0.056 C 
HETATM   12  C   UNK N   1      27.195  17.966   4.770  0.00  0.00     0.683 A 
HETATM   13 Cl   UNK N   1      33.391  13.012   4.742  0.00  0.00    -0.084 Cl
HETATM   14  N   UNK N   1      30.573  17.292   8.616  0.00  0.00    -0.384 N 
ATOM     15  HN  UNK N   1      30.944  17.960   9.293  1.00  0.00     0.160 HD
HETATM   16  N   UNK N   1      26.906  18.708   5.876  0.00  0.00    -0.201 N 
ATOM     17  HN  UNK N   1      26.159  19.403   5.832  1.00  0.00     0.183 HD
HETATM   18  N   UNK N   1      26.381  18.056   3.612  0.00  0.00    -0.192 N 
HETATM   19  N   UNK N   1      28.200  17.067   4.827  0.00  0.00    -0.190 N 
ATOM     20  HN  UNK N   1      28.419  16.521   3.993  1.00  0.00     0.184 HD
HETATM   21  H   UNK N   1      26.605  17.560   2.792  0.00  0.00     0.184 HD
ENDROOT
BRANCH  18  22
HETATM   22  C   UNK N   1      25.242  18.879   3.679  0.00  0.00     0.049 A 
HETATM   23  C   UNK N   1      25.259  20.103   3.005  0.00  0.00     0.031 A 
HETATM   24  C   UNK N   1      24.058  20.741   2.693  0.00  0.00     0.020 A 
HETATM   25  C   UNK N   1      22.837  20.142   3.034  0.00  0.00     0.037 A 
HETATM   26  C   UNK N   1      22.829  18.945   3.758  0.00  0.00     0.020 A 
HETATM   27  C   UNK N   1      24.025  18.310   4.066  0.00  0.00     0.031 A 
BRANCH  25  28
HETATM   28  C   UNK N   1      21.570  20.710   2.551  0.00  0.00     0.176 C 
HETATM   29  O   UNK N   1      21.387  20.874   1.355  0.00  0.00    -0.646 OA
BRANCH  28  30
HETATM   30  O   UNK N   1      20.637  21.126   3.429  0.00  0.00    -0.773 OA
HETATM   31  H   UNK N   1      19.984  20.909   4.065  0.00  0.00     0.167 HD
ENDBRANCH  28  30
ENDBRANCH  25  28
ENDBRANCH  18  22
BRANCH  11  32
HETATM   32  C   UNK N   1      32.783  16.456   8.713  0.00  0.00     0.068 A 
HETATM   33  C   UNK N   1      33.671  17.557   8.652  0.00  0.00     0.132 A 
HETATM   34  C   UNK N   1      34.907  17.511   9.302  0.00  0.00     0.043 A 
HETATM   35  F   UNK N   1      33.350  18.672   7.949  0.00  0.00    -0.205 F 
HETATM   36  C   UNK N   1      35.277  16.389  10.040  0.00  0.00     0.006 A 
HETATM   37  C   UNK N   1      34.398  15.319  10.159  0.00  0.00     0.043 A 
HETATM   38  C   UNK N   1      33.161  15.340   9.513  0.00  0.00     0.132 A 
HETATM   39  F   UNK N   1      32.311  14.316   9.768  0.00  0.00    -0.205 F 
ENDBRANCH  11  32
TORSDOF 4
ENDMDL
MODEL 2
REMARK VINA RESULT:      -8.9      5.498     10.047
REMARK  4 active torsions:
REMARK  status: ('A' for Active; 'I' for Inactive)
REMARK    1  A    between atoms: C_24  and  C_13 
REMARK    2  A    between atoms: N_33  and  C_16 
REMARK    3  A    between atoms: C_23  and  C_21 
REMARK    4  A    between atoms: O_36  and  C_24 
REMARK       I    between atoms: N_33  and  C_25 
ROOT
HETATM    1  C   UNK N   1      27.412  15.262   2.519  0.00  0.00     0.025 A 
HETATM    2  C   UNK N   1      28.108  15.797   3.587  0.00  0.00     0.016 A 
HETATM    3  C   UNK N   1      25.617  16.773   2.992  0.00  0.00     0.038 A 
HETATM    4  C   UNK N   1      27.439  19.429   6.001  0.00  0.00     0.162 C 
HETATM    5  C   UNK N   1      29.095  18.425   7.487  0.00  0.00     0.117 A 
HETATM    6  C   UNK N   1      28.265  18.277   6.380  0.00  0.00     0.004 A 
HETATM    7  C   UNK N   1      26.151  15.739   2.234  0.00  0.00     0.035 A 
HETATM    8  C   UNK N   1      27.593  16.845   4.380  0.00  0.00     0.004 A 
HETATM    9  C   UNK N   1      26.305  17.398   4.048  0.00  0.00     0.005 A 
HETATM   10  C   UNK N   1      28.418  17.146   5.572  0.00  0.00     0.069 A 
HETATM   11  C   UNK N   1      25.529  18.464   4.826  0.00  0.00     0.056 C 
HETATM   12  C   UNK N   1      30.203  16.406   6.957  0.00  0.00     0.683 A 
HETATM   13 Cl   UNK N   1      25.219  15.023   0.943  0.00  0.00    -0.084 Cl
HETATM   14  N   UNK N   1      26.049  19.218   5.736  0.00  0.00    -0.384 N 
ATOM     15  HN  UNK N   1      25.393  19.721   6.335  1.00  0.00     0.160 HD
HETATM   16  N   UNK N   1      30.037  17.496   7.759  0.00  0.00    -0.201 N 
ATOM     17  HN  UNK N   1      30.633  17.611   8.578  1.00  0.00     0.183 HD
HETATM   18  N   UNK N   1      31.281  15.512   7.176  0.00  0.00    -0.192 N 
HETATM   19  N   UNK N   1      29.394  16.247   5.889  0.00  0.00    -0.190 N 
ATOM     20  HN  UNK N   1      29.516  15.425   5.298  1.00  0.00     0.184 HD
HETATM   21  H   UNK N   1      31.387  14.698   6.633  0.00  0.00     0.184 HD
ENDROOT
BRANCH  18  22
HETATM   22  C   UNK N   1      32.195  15.832   8.197  0.00  0.00     0.049 A 
HETATM   23  C   UNK N   1      32.246  15.016   9.331  0.00  0.00     0.031 A 
HETATM   24  C   UNK N   1      33.379  15.032  10.147  0.00  0.00     0.020 A 
HETATM   25  C   UNK N   1      34.471  15.846   9.815  0.00  0.00     0.037 A 
HETATM   26  C   UNK N   1      34.390  16.701   8.711  0.00  0.00     0.020 A 
HETATM   27  C   UNK N   1      33.263  16.683   7.899  0.00  0.00     0.031 A 
BRANCH  25  28
HETATM   28  C   UNK N   1      35.733  15.735  10.560  0.00  0.00     0.176 C 
HETATM   29  O   UNK N   1      36.491  16.690  10.628  0.00  0.00    -0.646 OA
BRANCH  28  30
HETATM   30  O   UNK N   1      36.098  14.557  11.102  0.00  0.00    -0.773 OA
HETATM   31  H   UNK N   1      35.844  13.738  11.481  0.00  0.00     0.167 HD
ENDBRANCH  28  30
ENDBRANCH  25  28
ENDBRANCH  18  22
BRANCH  11  32
HETATM   32  C   UNK N   1      24.080  18.764   4.506  0.00  0.00     0.068 A 
HETATM   33  C   UNK N   1      23.767  19.689   3.481  0.00  0.00     0.132 A 
HETATM   34  C   UNK N   1      22.437  19.963   3.153  0.00  0.00     0.043 A 
HETATM   35  F   UNK N   1      24.748  20.342   2.808  0.00  0.00    -0.205 F 
HETATM   36  C   UNK N   1      21.397  19.313   3.813  0.00  0.00     0.006 A 
HETATM   37  C   UNK N   1      21.682  18.361   4.784  0.00  0.00     0.043 A 
HETATM   38  C   UNK N   1      23.003  18.076   5.134  0.00  0.00     0.132 A 
HETATM   39  F   UNK N   1      23.208  17.056   6.003  0.00  0.00    -0.205 F 
ENDBRANCH  11  32
TORSDOF 4
ENDMDL
MODEL 3
REMARK VINA RESULT:      -8.4      8.009     12.506
REMARK  4 active torsions:
REMARK  status: ('A' for Active; 'I' for Inactive)
REMARK    1  A    between atoms: C_24  and  C_13 
REMARK    2  A    between atoms: N_33  and  C_16 
REMARK    3  A    between atoms: C_23  and  C_21 
REMARK    4  A    between atoms: O_36  and  C_24 
REMARK       I    between atoms: N_33  and  C_25 
ROOT
HETATM    1  C   UNK N   1      33.736  10.676   8.256  0.00  0.00     0.025 A 
HETATM    2  C   UNK N   1      34.218  11.267   9.408  0.00  0.00     0.016 A 
HETATM    3  C   UNK N   1      33.588  12.846   7.259  0.00  0.00     0.038 A 
HETATM    4  C   UNK N   1      35.694  15.346  10.217  0.00  0.00     0.162 C 
HETATM    5  C   UNK N   1      35.513  14.662  12.553  0.00  0.00     0.117 A 
HETATM    6  C   UNK N   1      35.244  14.373  11.219  0.00  0.00     0.004 A 
HETATM    7  C   UNK N   1      33.400  11.473   7.183  0.00  0.00     0.035 A 
HETATM    8  C   UNK N   1      34.416  12.660   9.521  0.00  0.00     0.004 A 
HETATM    9  C   UNK N   1      34.133  13.496   8.382  0.00  0.00     0.005 A 
HETATM   10  C   UNK N   1      34.768  13.100  10.889  0.00  0.00     0.069 A 
HETATM   11  C   UNK N   1      34.190  15.025   8.320  0.00  0.00     0.056 C 
HETATM   12  C   UNK N   1      34.890  12.470  13.179  0.00  0.00     0.683 A 
HETATM   13 Cl   UNK N   1      32.712  10.757   5.745  0.00  0.00    -0.084 Cl
HETATM   14  N   UNK N   1      34.772  15.763   9.204  0.00  0.00    -0.384 N 
ATOM     15  HN  UNK N   1      34.549  16.759   9.179  1.00  0.00     0.160 HD
HETATM   16  N   UNK N   1      35.330  13.719  13.502  0.00  0.00    -0.201 N 
ATOM     17  HN  UNK N   1      35.523  13.946  14.478  1.00  0.00     0.183 HD
HETATM   18  N   UNK N   1      34.832  11.453  14.164  0.00  0.00    -0.192 N 
HETATM   19  N   UNK N   1      34.613  12.185  11.889  0.00  0.00    -0.190 N 
ATOM     20  HN  UNK N   1      34.274  11.252  11.654  1.00  0.00     0.184 HD
HETATM   21  H   UNK N   1      34.474  10.560  13.955  0.00  0.00     0.184 HD
ENDROOT
BRANCH  18  22
HETATM   22  C   UNK N   1      35.305  11.765  15.452  0.00  0.00     0.049 A 
HETATM   23  C   UNK N   1      34.821  12.914  16.084  0.00  0.00     0.031 A 
HETATM   24  C   UNK N   1      34.923  13.040  17.470  0.00  0.00     0.020 A 
HETATM   25  C   UNK N   1      35.489  12.004  18.228  0.00  0.00     0.037 A 
HETATM   26  C   UNK N   1      36.022  10.884  17.584  0.00  0.00     0.020 A 
HETATM   27  C   UNK N   1      35.918  10.759  16.204  0.00  0.00     0.031 A 
BRANCH  25  28
HETATM   28  C   UNK N   1      35.436  12.045  19.696  0.00  0.00     0.176 C 
HETATM   29  O   UNK N   1      35.792  11.077  20.350  0.00  0.00    -0.646 OA
BRANCH  28  30
HETATM   30  O   UNK N   1      34.921  13.118  20.326  0.00  0.00    -0.773 OA
HETATM   31  H   UNK N   1      34.992  13.754  21.010  0.00  0.00     0.167 HD
ENDBRANCH  28  30
ENDBRANCH  25  28
ENDBRANCH  18  22
BRANCH  11  32
HETATM   32  C   UNK N   1      33.621  15.780   7.138  0.00  0.00     0.068 A 
HETATM   33  C   UNK N   1      32.384  16.457   7.270  0.00  0.00     0.132 A 
HETATM   34  C   UNK N   1      31.852  17.181   6.200  0.00  0.00     0.043 A 
HETATM   35  F   UNK N   1      31.681  16.405   8.430  0.00  0.00    -0.205 F 
HETATM   36  C   UNK N   1      32.540  17.268   4.993  0.00  0.00     0.006 A 
HETATM   37  C   UNK N   1      33.782  16.657   4.859  0.00  0.00     0.043 A 
HETATM   38  C   UNK N   1      34.330  15.923   5.912  0.00  0.00     0.132 A 
HETATM   39  F   UNK N   1      35.591  15.455   5.750  0.00  0.00    -0.205 F 
ENDBRANCH  11  32
TORSDOF 4
ENDMDL
MODEL 4
REMARK VINA RESULT:      -8.4      4.574      6.313
REMARK  4 active torsions:
REMARK  status: ('A' for Active; 'I' for Inactive)
REMARK    1  A    between atoms: C_24  and  C_13 
REMARK    2  A    between atoms: N_33  and  C_16 
REMARK    3  A    between atoms: C_23  and  C_21 
REMARK    4  A    between atoms: O_36  and  C_24 
REMARK       I    between atoms: N_33  and  C_25 
ROOT
HETATM    1  C   UNK N   1      25.951  20.397   5.057  0.00  0.00     0.025 A 
HETATM    2  C   UNK N   1      25.488  19.262   4.418  0.00  0.00     0.016 A 
HETATM    3  C   UNK N   1      28.090  19.347   5.274  0.00  0.00     0.038 A 
HETATM    4  C   UNK N   1      27.602  15.766   2.750  0.00  0.00     0.162 C 
HETATM    5  C   UNK N   1      25.365  14.795   2.652  0.00  0.00     0.117 A 
HETATM    6  C   UNK N   1      26.177  15.834   3.095  0.00  0.00     0.004 A 
HETATM    7  C   UNK N   1      27.253  20.431   5.504  0.00  0.00     0.035 A 
HETATM    8  C   UNK N   1      26.310  18.141   4.173  0.00  0.00     0.004 A 
HETATM    9  C   UNK N   1      27.693  18.193   4.576  0.00  0.00     0.005 A 
HETATM   10  C   UNK N   1      25.575  16.972   3.640  0.00  0.00     0.069 A 
HETATM   11  C   UNK N   1      28.723  17.064   4.489  0.00  0.00     0.056 C 
HETATM   12  C   UNK N   1      23.433  16.019   3.246  0.00  0.00     0.683 A 
HETATM   13 Cl   UNK N   1      27.838  21.822   6.386  0.00  0.00    -0.084 Cl
HETATM   14  N   UNK N   1      28.568  15.995   3.781  0.00  0.00    -0.384 N 
ATOM     15  HN  UNK N   1      29.207  15.225   3.981  1.00  0.00     0.160 HD
HETATM   16  N   UNK N   1      24.021  14.899   2.739  0.00  0.00    -0.201 N 
ATOM     17  HN  UNK N   1      23.436  14.126   2.419  1.00  0.00     0.183 HD
HETATM   18  N   UNK N   1      22.024  16.170   3.206  0.00  0.00    -0.192 N 
HETATM   19  N   UNK N   1      24.213  17.026   3.691  0.00  0.00    -0.190 N 
ATOM     20  HN  UNK N   1      23.768  17.858   4.080  1.00  0.00     0.184 HD
HETATM   21  H   UNK N   1      21.583  16.953   3.610  0.00  0.00     0.184 HD
ENDROOT
BRANCH  18  22
HETATM   22  C   UNK N   1      21.278  15.162   2.567  0.00  0.00     0.049 A 
HETATM   23  C   UNK N   1      20.430  14.364   3.339  0.00  0.00     0.031 A 
HETATM   24  C   UNK N   1      19.389  13.663   2.728  0.00  0.00     0.020 A 
HETATM   25  C   UNK N   1      19.183  13.779   1.346  0.00  0.00     0.037 A 
HETATM   26  C   UNK N   1      20.070  14.535   0.572  0.00  0.00     0.020 A 
HETATM   27  C   UNK N   1      21.104  15.233   1.182  0.00  0.00     0.031 A 
BRANCH  25  28
HETATM   28  C   UNK N   1      17.986  13.196   0.722  0.00  0.00     0.176 C 
HETATM   29  O   UNK N   1      17.893  11.985   0.587  0.00  0.00    -0.646 OA
BRANCH  28  30
HETATM   30  O   UNK N   1      17.024  13.995   0.225  0.00  0.00    -0.773 OA
HETATM   31  H   UNK N   1      16.421  14.700   0.359  0.00  0.00     0.167 HD
ENDBRANCH  28  30
ENDBRANCH  25  28
ENDBRANCH  18  22
BRANCH  11  32
HETATM   32  C   UNK N   1      30.064  17.175   5.183  0.00  0.00     0.068 A 
HETATM   33  C   UNK N   1      30.141  17.007   6.587  0.00  0.00     0.132 A 
HETATM   34  C   UNK N   1      31.371  17.081   7.245  0.00  0.00     0.043 A 
HETATM   35  F   UNK N   1      29.024  16.789   7.325  0.00  0.00    -0.205 F 
HETATM   36  C   UNK N   1      32.545  17.299   6.528  0.00  0.00     0.006 A 
HETATM   37  C   UNK N   1      32.500  17.412   5.144  0.00  0.00     0.043 A 
HETATM   38  C   UNK N   1      31.282  17.347   4.466  0.00  0.00     0.132 A 
HETATM   39  F   UNK N   1      31.326  17.348   3.111  0.00  0.00    -0.205 F 
ENDBRANCH  11  32
TORSDOF 4
ENDMDL
MODEL 5
REMARK VINA RESULT:      -8.2      7.671     11.630
REMARK  4 active torsions:
REMARK  status: ('A' for Active; 'I' for Inactive)
REMARK    1  A    between atoms: C_24  and  C_13 
REMARK    2  A    between atoms: N_33  and  C_16 
REMARK    3  A    between atoms: C_23  and  C_21 
REMARK    4  A    between atoms: O_36  and  C_24 
REMARK       I    between atoms: N_33  and  C_25 
ROOT
HETATM    1  C   UNK N   1      34.996  13.085  16.579  0.00  0.00     0.025 A 
HETATM    2  C   UNK N   1      35.167  13.249  15.217  0.00  0.00     0.016 A 
HETATM    3  C   UNK N   1      36.232  11.041  16.441  0.00  0.00     0.038 A 
HETATM    4  C   UNK N   1      37.794  11.203  12.322  0.00  0.00     0.162 C 
HETATM    5  C   UNK N   1      36.392  12.320  10.664  0.00  0.00     0.117 A 
HETATM    6  C   UNK N   1      36.598  11.991  12.000  0.00  0.00     0.004 A 
HETATM    7  C   UNK N   1      35.515  11.964  17.189  0.00  0.00     0.035 A 
HETATM    8  C   UNK N   1      35.886  12.328  14.426  0.00  0.00     0.004 A 
HETATM    9  C   UNK N   1      36.491  11.187  15.065  0.00  0.00     0.005 A 
HETATM   10  C   UNK N   1      35.798  12.598  12.973  0.00  0.00     0.069 A 
HETATM   11  C   UNK N   1      37.228  10.030  14.387  0.00  0.00     0.056 C 
HETATM   12  C   UNK N   1      34.681  13.831  11.274  0.00  0.00     0.683 A 
HETATM   13 Cl   UNK N   1      35.242  11.693  18.893  0.00  0.00    -0.084 Cl
HETATM   14  N   UNK N   1      37.653  10.058  13.168  0.00  0.00    -0.384 N 
ATOM     15  HN  UNK N   1      37.919   9.160  12.762  1.00  0.00     0.160 HD
HETATM   16  N   UNK N   1      35.445  13.220  10.325  0.00  0.00    -0.201 N 
ATOM     17  HN  UNK N   1      35.297  13.447   9.341  1.00  0.00     0.183 HD
HETATM   18  N   UNK N   1      33.786  14.871  10.916  0.00  0.00    -0.192 N 
HETATM   19  N   UNK N   1      34.864  13.508  12.572  0.00  0.00    -0.190 N 
ATOM     20  HN  UNK N   1      34.283  13.961  13.278  1.00  0.00     0.184 HD
HETATM   21  H   UNK N   1      33.197  15.289  11.584  0.00  0.00     0.184 HD
ENDROOT
BRANCH  18  22
HETATM   22  C   UNK N   1      33.773  15.284   9.571  0.00  0.00     0.049 A 
HETATM   23  C   UNK N   1      32.862  14.686   8.695  0.00  0.00     0.031 A 
HETATM   24  C   UNK N   1      32.522  15.327   7.503  0.00  0.00     0.020 A 
HETATM   25  C   UNK N   1      33.075  16.579   7.198  0.00  0.00     0.037 A 
HETATM   26  C   UNK N   1      34.028  17.144   8.051  0.00  0.00     0.020 A 
HETATM   27  C   UNK N   1      34.364  16.506   9.238  0.00  0.00     0.031 A 
BRANCH  25  28
HETATM   28  C   UNK N   1      32.588  17.343   6.041  0.00  0.00     0.176 C 
HETATM   29  O   UNK N   1      31.392  17.396   5.799  0.00  0.00    -0.646 OA
BRANCH  28  30
HETATM   30  O   UNK N   1      33.462  17.924   5.197  0.00  0.00    -0.773 OA
HETATM   31  H   UNK N   1      33.746  18.072   4.316  0.00  0.00     0.167 HD
ENDBRANCH  28  30
ENDBRANCH  25  28
ENDBRANCH  18  22
BRANCH  11  32
HETATM   32  C   UNK N   1      37.587   8.775  15.154  0.00  0.00     0.068 A 
HETATM   33  C   UNK N   1      36.589   7.804  15.413  0.00  0.00     0.132 A 
HETATM   34  C   UNK N   1      36.903   6.628  16.098  0.00  0.00     0.043 A 
HETATM   35  F   UNK N   1      35.306   8.001  15.019  0.00  0.00    -0.205 F 
HETATM   36  C   UNK N   1      38.208   6.380  16.518  0.00  0.00     0.006 A 
HETATM   37  C   UNK N   1      39.214   7.293  16.225  0.00  0.00     0.043 A 
HETATM   38  C   UNK N   1      38.922   8.478  15.548  0.00  0.00     0.132 A 
HETATM   39  F   UNK N   1      39.969   9.264  15.196  0.00  0.00    -0.205 F 
ENDBRANCH  11  32
TORSDOF 4
ENDMDL
MODEL 6
REMARK VINA RESULT:      -8.1      3.337      4.609
REMARK  4 active torsions:
REMARK  status: ('A' for Active; 'I' for Inactive)
REMARK    1  A    between atoms: C_24  and  C_13 
REMARK    2  A    between atoms: N_33  and  C_16 
REMARK    3  A    between atoms: C_23  and  C_21 
REMARK    4  A    between atoms: O_36  and  C_24 
REMARK       I    between atoms: N_33  and  C_25 
ROOT
HETATM    1  C   UNK N   1      33.716  17.159   9.005  0.00  0.00     0.025 A 
HETATM    2  C   UNK N   1      32.925  17.294   7.879  0.00  0.00     0.016 A 
HETATM    3  C   UNK N   1      34.978  15.479   7.860  0.00  0.00     0.038 A 
HETATM    4  C   UNK N   1      33.424  15.823   3.749  0.00  0.00     0.162 C 
HETATM    5  C   UNK N   1      31.084  16.478   3.516  0.00  0.00     0.117 A 
HETATM    6  C   UNK N   1      32.170  16.275   4.362  0.00  0.00     0.004 A 
HETATM    7  C   UNK N   1      34.735  16.231   9.001  0.00  0.00     0.035 A 
HETATM    8  C   UNK N   1      33.141  16.542   6.705  0.00  0.00     0.004 A 
HETATM    9  C   UNK N   1      34.247  15.618   6.666  0.00  0.00     0.005 A 
HETATM   10  C   UNK N   1      32.080  16.711   5.688  0.00  0.00     0.069 A 
HETATM   11  C   UNK N   1      34.601  14.647   5.536  0.00  0.00     0.056 C 
HETATM   12  C   UNK N   1      29.896  17.548   5.257  0.00  0.00     0.683 A 
HETATM   13 Cl   UNK N   1      35.695  15.984  10.439  0.00  0.00    -0.084 Cl
HETATM   14  N   UNK N   1      34.118  14.721   4.341  0.00  0.00    -0.384 N 
ATOM     15  HN  UNK N   1      34.246  13.898   3.751  1.00  0.00     0.160 HD
HETATM   16  N   UNK N   1      29.975  17.099   3.972  0.00  0.00    -0.201 N 
ATOM     17  HN  UNK N   1      29.182  17.234   3.344  1.00  0.00     0.183 HD
HETATM   18  N   UNK N   1      28.783  18.315   5.682  0.00  0.00    -0.192 N 
HETATM   19  N   UNK N   1      30.938  17.343   6.089  0.00  0.00    -0.190 N 
ATOM     20  HN  UNK N   1      30.870  17.671   7.052  1.00  0.00     0.184 HD
HETATM   21  H   UNK N   1      28.692  18.607   6.618  0.00  0.00     0.184 HD
ENDROOT
BRANCH  18  22
HETATM   22  C   UNK N   1      27.814  18.647   4.717  0.00  0.00     0.049 A 
HETATM   23  C   UNK N   1      26.703  17.811   4.567  0.00  0.00     0.031 A 
HETATM   24  C   UNK N   1      25.547  18.296   3.954  0.00  0.00     0.020 A 
HETATM   25  C   UNK N   1      25.493  19.625   3.511  0.00  0.00     0.037 A 
HETATM   26  C   UNK N   1      26.626  20.438   3.613  0.00  0.00     0.020 A 
HETATM   27  C   UNK N   1      27.776  19.955   4.225  0.00  0.00     0.031 A 
BRANCH  25  28
HETATM   28  C   UNK N   1      24.226  20.197   3.033  0.00  0.00     0.176 C 
HETATM   29  O   UNK N   1      24.221  20.970   2.087  0.00  0.00    -0.646 OA
BRANCH  28  30
HETATM   30  O   UNK N   1      23.077  19.936   3.684  0.00  0.00    -0.773 OA
HETATM   31  H   UNK N   1      22.524  20.091   4.424  0.00  0.00     0.167 HD
ENDBRANCH  28  30
ENDBRANCH  25  28
ENDBRANCH  18  22
BRANCH  11  32
HETATM   32  C   UNK N   1      35.633  13.558   5.737  0.00  0.00     0.068 A 
HETATM   33  C   UNK N   1      37.010  13.870   5.623  0.00  0.00     0.132 A 
HETATM   34  C   UNK N   1      37.981  12.887   5.829  0.00  0.00     0.043 A 
HETATM   35  F   UNK N   1      37.416  15.123   5.297  0.00  0.00    -0.205 F 
HETATM   36  C   UNK N   1      37.611  11.588   6.170  0.00  0.00     0.006 A 
HETATM   37  C   UNK N   1      36.268  11.273   6.342  0.00  0.00     0.043 A 
HETATM   38  C   UNK N   1      35.281  12.238   6.135  0.00  0.00     0.132 A 
HETATM   39  F   UNK N   1      34.005  11.891   6.433  0.00  0.00    -0.205 F 
ENDBRANCH  11  32
TORSDOF 4
ENDMDL
MODEL 7
REMARK VINA RESULT:      -8.0      7.235     11.641
REMARK  4 active torsions:
REMARK  status: ('A' for Active; 'I' for Inactive)
REMARK    1  A    between atoms: C_24  and  C_13 
REMARK    2  A    between atoms: N_33  and  C_16 
REMARK    3  A    between atoms: C_23  and  C_21 
REMARK    4  A    between atoms: O_36  and  C_24 
REMARK       I    between atoms: N_33  and  C_25 
ROOT
HETATM    1  C   UNK N   1      33.937  11.290   7.106  0.00  0.00     0.025 A 
HETATM    2  C   UNK N   1      34.311  11.897   8.290  0.00  0.00     0.016 A 
HETATM    3  C   UNK N   1      33.326  13.440   6.250  0.00  0.00     0.038 A 
HETATM    4  C   UNK N   1      34.936  16.136   9.345  0.00  0.00     0.162 C 
HETATM    5  C   UNK N   1      34.948  15.288  11.634  0.00  0.00     0.117 A 
HETATM    6  C   UNK N   1      34.716  15.032  10.286  0.00  0.00     0.004 A 
HETATM    7  C   UNK N   1      33.422  12.065   6.089  0.00  0.00     0.035 A 
HETATM    8  C   UNK N   1      34.222  13.291   8.489  0.00  0.00     0.004 A 
HETATM    9  C   UNK N   1      33.750  14.118   7.408  0.00  0.00     0.005 A 
HETATM   10  C   UNK N   1      34.504  13.711   9.880  0.00  0.00     0.069 A 
HETATM   11  C   UNK N   1      33.491  15.627   7.443  0.00  0.00     0.056 C 
HETATM   12  C   UNK N   1      34.801  12.981  12.124  0.00  0.00     0.683 A 
HETATM   13 Cl   UNK N   1      32.866  11.311   4.614  0.00  0.00    -0.084 Cl
HETATM   14  N   UNK N   1      33.928  16.415   8.368  0.00  0.00    -0.384 N 
ATOM     15  HN  UNK N   1      33.505  17.343   8.408  1.00  0.00     0.160 HD
HETATM   16  N   UNK N   1      34.982  14.272  12.523  0.00  0.00    -0.201 N 
ATOM     17  HN  UNK N   1      35.144  14.474  13.510  1.00  0.00     0.183 HD
HETATM   18  N   UNK N   1      34.973  11.916  13.043  0.00  0.00    -0.192 N 
HETATM   19  N   UNK N   1      34.561  12.724  10.821  0.00  0.00    -0.190 N 
ATOM     20  HN  UNK N   1      34.416  11.757  10.530  1.00  0.00     0.184 HD
HETATM   21  H   UNK N   1      34.801  10.983  12.780  0.00  0.00     0.184 HD
ENDROOT
BRANCH  18  22
HETATM   22  C   UNK N   1      35.398  12.240  14.344  0.00  0.00     0.049 A 
HETATM   23  C   UNK N   1      36.450  13.147  14.499  0.00  0.00     0.031 A 
HETATM   24  C   UNK N   1      36.625  13.807  15.717  0.00  0.00     0.020 A 
HETATM   25  C   UNK N   1      35.732  13.577  16.773  0.00  0.00     0.037 A 
HETATM   26  C   UNK N   1      34.717  12.626  16.629  0.00  0.00     0.020 A 
HETATM   27  C   UNK N   1      34.543  11.971  15.417  0.00  0.00     0.031 A 
BRANCH  25  28
HETATM   28  C   UNK N   1      35.796  14.397  17.991  0.00  0.00     0.176 C 
HETATM   29  O   UNK N   1      35.192  14.052  18.995  0.00  0.00    -0.646 OA
BRANCH  28  30
HETATM   30  O   UNK N   1      36.455  15.571  17.983  0.00  0.00    -0.773 OA
HETATM   31  H   UNK N   1      36.526  16.446  17.656  0.00  0.00     0.167 HD
ENDBRANCH  28  30
ENDBRANCH  25  28
ENDBRANCH  18  22
BRANCH  11  32
HETATM   32  C   UNK N   1      32.755  16.320   6.317  0.00  0.00     0.068 A 
HETATM   33  C   UNK N   1      33.424  16.573   5.095  0.00  0.00     0.132 A 
HETATM   34  C   UNK N   1      32.757  17.189   4.033  0.00  0.00     0.043 A 
HETATM   35  F   UNK N   1      34.730  16.240   4.934  0.00  0.00    -0.205 F 
HETATM   36  C   UNK N   1      31.416  17.544   4.151  0.00  0.00     0.006 A 
HETATM   37  C   UNK N   1      30.724  17.255   5.321  0.00  0.00     0.043 A 
HETATM   38  C   UNK N   1      31.372  16.646   6.397  0.00  0.00     0.132 A 
HETATM   39  F   UNK N   1      30.608  16.290   7.459  0.00  0.00    -0.205 F 
ENDBRANCH  11  32
TORSDOF 4
ENDMDL
MODEL 8
REMARK VINA RESULT:      -8.0      6.147     10.085
REMARK  4 active torsions:
REMARK  status: ('A' for Active; 'I' for Inactive)
REMARK    1  A    between atoms: C_24  and  C_13 
REMARK    2  A    between atoms: N_33  and  C_16 
REMARK    3  A    between atoms: C_23  and  C_21 
REMARK    4  A    between atoms: O_36  and  C_24 
REMARK       I    between atoms: N_33  and  C_25 
ROOT
HETATM    1  C   UNK N   1      28.092  11.377   1.789  0.00  0.00     0.025 A 
HETATM    2  C   UNK N   1      28.439  12.534   2.460  0.00  0.00     0.016 A 
HETATM    3  C   UNK N   1      25.840  12.180   1.666  0.00  0.00     0.038 A 
HETATM    4  C   UNK N   1      26.285  16.338   3.060  0.00  0.00     0.162 C 
HETATM    5  C   UNK N   1      28.026  16.754   4.721  0.00  0.00     0.117 A 
HETATM    6  C   UNK N   1      27.421  15.851   3.852  0.00  0.00     0.004 A 
HETATM    7  C   UNK N   1      26.780  11.191   1.409  0.00  0.00     0.035 A 
HETATM    8  C   UNK N   1      27.509  13.557   2.742  0.00  0.00     0.004 A 
HETATM    9  C   UNK N   1      26.150  13.403   2.288  0.00  0.00     0.005 A 
HETATM   10  C   UNK N   1      28.045  14.622   3.618  0.00  0.00     0.069 A 
HETATM   11  C   UNK N   1      24.971  14.340   2.566  0.00  0.00     0.056 C 
HETATM   12  C   UNK N   1      29.824  15.259   5.062  0.00  0.00     0.683 A 
HETATM   13 Cl   UNK N   1      26.299   9.701   0.633  0.00  0.00    -0.084 Cl
HETATM   14  N   UNK N   1      25.094  15.546   3.011  0.00  0.00    -0.384 N 
ATOM     15  HN  UNK N   1      24.245  15.984   3.369  1.00  0.00     0.160 HD
HETATM   16  N   UNK N   1      29.201  16.446   5.310  0.00  0.00    -0.201 N 
ATOM     17  HN  UNK N   1      29.630  17.114   5.951  1.00  0.00     0.183 HD
HETATM   18  N   UNK N   1      31.119  15.007   5.580  0.00  0.00    -0.192 N 
HETATM   19  N   UNK N   1      29.238  14.371   4.233  0.00  0.00    -0.190 N 
ATOM     20  HN  UNK N   1      29.702  13.480   4.059  1.00  0.00     0.184 HD
HETATM   21  H   UNK N   1      31.561  14.137   5.447  0.00  0.00     0.184 HD
ENDROOT
BRANCH  18  22
HETATM   22  C   UNK N   1      31.751  16.045   6.290  0.00  0.00     0.049 A 
HETATM   23  C   UNK N   1      31.701  16.029   7.686  0.00  0.00     0.031 A 
HETATM   24  C   UNK N   1      32.631  16.764   8.423  0.00  0.00     0.020 A 
HETATM   25  C   UNK N   1      33.628  17.496   7.762  0.00  0.00     0.037 A 
HETATM   26  C   UNK N   1      33.637  17.552   6.364  0.00  0.00     0.020 A 
HETATM   27  C   UNK N   1      32.711  16.819   5.633  0.00  0.00     0.031 A 
BRANCH  25  28
HETATM   28  C   UNK N   1      34.718  18.122   8.523  0.00  0.00     0.176 C 
HETATM   29  O   UNK N   1      35.294  19.102   8.077  0.00  0.00    -0.646 OA
BRANCH  28  30
HETATM   30  O   UNK N   1      35.141  17.571   9.677  0.00  0.00    -0.773 OA
HETATM   31  H   UNK N   1      35.835  17.180  10.170  0.00  0.00     0.167 HD
ENDBRANCH  28  30
ENDBRANCH  25  28
ENDBRANCH  18  22
BRANCH  11  32
HETATM   32  C   UNK N   1      23.551  13.925   2.246  0.00  0.00     0.068 A 
HETATM   33  C   UNK N   1      23.128  13.861   0.897  0.00  0.00     0.132 A 
HETATM   34  C   UNK N   1      21.829  13.457   0.577  0.00  0.00     0.043 A 
HETATM   35  F   UNK N   1      23.965  14.207  -0.114  0.00  0.00    -0.205 F 
HETATM   36  C   UNK N   1      20.936  13.088   1.580  0.00  0.00     0.006 A 
HETATM   37  C   UNK N   1      21.347  13.090   2.907  0.00  0.00     0.043 A 
HETATM   38  C   UNK N   1      22.638  13.496   3.251  0.00  0.00     0.132 A 
HETATM   39  F   UNK N   1      23.005  13.362   4.548  0.00  0.00    -0.205 F 
ENDBRANCH  11  32
TORSDOF 4
ENDMDL
MODEL 9
REMARK VINA RESULT:      -7.9      3.099      4.609
REMARK  4 active torsions:
REMARK  status: ('A' for Active; 'I' for Inactive)
REMARK    1  A    between atoms: C_24  and  C_13 
REMARK    2  A    between atoms: N_33  and  C_16 
REMARK    3  A    between atoms: C_23  and  C_21 
REMARK    4  A    between atoms: O_36  and  C_24 
REMARK       I    between atoms: N_33  and  C_25 
ROOT
HETATM    1  C   UNK N   1      29.451  18.016   7.837  0.00  0.00     0.025 A 
HETATM    2  C   UNK N   1      28.459  17.843   6.890  0.00  0.00     0.016 A 
HETATM    3  C   UNK N   1      30.944  16.785   6.428  0.00  0.00     0.038 A 
HETATM    4  C   UNK N   1      28.604  16.442   2.708  0.00  0.00     0.162 C 
HETATM    5  C   UNK N   1      26.179  16.299   2.952  0.00  0.00     0.117 A 
HETATM    6  C   UNK N   1      27.413  16.491   3.565  0.00  0.00     0.004 A 
HETATM    7  C   UNK N   1      30.694  17.466   7.612  0.00  0.00     0.035 A 
HETATM    8  C   UNK N   1      28.677  17.153   5.679  0.00  0.00     0.004 A 
HETATM    9  C   UNK N   1      29.993  16.633   5.403  0.00  0.00     0.005 A 
HETATM   10  C   UNK N   1      27.443  16.929   4.892  0.00  0.00     0.069 A 
HETATM   11  C   UNK N   1      30.418  15.782   4.204  0.00  0.00     0.056 C 
HETATM   12  C   UNK N   1      25.067  17.000   4.915  0.00  0.00     0.683 A 
HETATM   13 Cl   UNK N   1      31.940  17.600   8.829  0.00  0.00    -0.084 Cl
HETATM   14  N   UNK N   1      29.717  15.647   3.128  0.00  0.00    -0.384 N 
ATOM     15  HN  UNK N   1      29.989  14.885   2.505  1.00  0.00     0.160 HD
HETATM   16  N   UNK N   1      25.038  16.549   3.629  0.00  0.00    -0.201 N 
ATOM     17  HN  UNK N   1      24.139  16.395   3.171  1.00  0.00     0.183 HD
HETATM   18  N   UNK N   1      23.868  17.386   5.567  0.00  0.00    -0.192 N 
HETATM   19  N   UNK N   1      26.258  17.176   5.523  0.00  0.00    -0.190 N 
ATOM     20  HN  UNK N   1      26.274  17.505   6.488  1.00  0.00     0.184 HD
HETATM   21  H   UNK N   1      23.869  17.671   6.509  0.00  0.00     0.184 HD
ENDROOT
BRANCH  18  22
HETATM   22  C   UNK N   1      22.678  17.348   4.817  0.00  0.00     0.049 A 
HETATM   23  C   UNK N   1      22.251  18.515   4.177  0.00  0.00     0.031 A 
HETATM   24  C   UNK N   1      21.349  18.434   3.115  0.00  0.00     0.020 A 
HETATM   25  C   UNK N   1      20.891  17.183   2.678  0.00  0.00     0.037 A 
HETATM   26  C   UNK N   1      21.278  16.025   3.360  0.00  0.00     0.020 A 
HETATM   27  C   UNK N   1      22.178  16.106   4.415  0.00  0.00     0.031 A 
BRANCH  25  28
HETATM   28  C   UNK N   1      20.089  17.073   1.451  0.00  0.00     0.176 C 
HETATM   29  O   UNK N   1      20.485  16.393   0.518  0.00  0.00    -0.646 OA
BRANCH  28  30
HETATM   30  O   UNK N   1      18.953  17.784   1.320  0.00  0.00    -0.773 OA
HETATM   31  H   UNK N   1      18.538  18.619   1.225  0.00  0.00     0.167 HD
ENDBRANCH  28  30
ENDBRANCH  25  28
ENDBRANCH  18  22
BRANCH  11  32
HETATM   32  C   UNK N   1      31.765  15.092   4.174  0.00  0.00     0.068 A 
HETATM   33  C   UNK N   1      31.907  13.808   4.752  0.00  0.00     0.132 A 
HETATM   34  C   UNK N   1      33.135  13.142   4.714  0.00  0.00     0.043 A 
HETATM   35  F   UNK N   1      30.861  13.202   5.370  0.00  0.00    -0.205 F 
HETATM   36  C   UNK N   1      34.234  13.722   4.087  0.00  0.00     0.006 A 
HETATM   37  C   UNK N   1      34.104  14.958   3.465  0.00  0.00     0.043 A 
HETATM   38  C   UNK N   1      32.889  15.644   3.496  0.00  0.00     0.132 A 
HETATM   39  F   UNK N   1      32.803  16.786   2.771  0.00  0.00    -0.205 F 
ENDBRANCH  11  32
TORSDOF 4
ENDMDL
