MODEL 1
REMARK VINA RESULT:      -7.5      0.000      0.000
REMARK  5 active torsions:
REMARK  status: ('A' for Active; 'I' for Inactive)
REMARK    1  A    between atoms: C_2  and  N_3 
REMARK       I    between atoms: N_3  and  C_4 
REMARK       I    between atoms: C_4  and  N_6 
REMARK    2  A    between atoms: N_6  and  C_7 
REMARK    3  A    between atoms: C_10  and  C_13 
REMARK    4  A    between atoms: C_18  and  N_21 
REMARK    5  A    between atoms: N_30  and  C_32 
ROOT
HETATM    1  C   UNK N   1      25.724  15.841   6.170  0.00  0.00     0.117 A 
HETATM    2  N   UNK N   1      25.442  14.831   7.020  0.00  0.00    -0.343 N 
ATOM      3  HN  UNK N   1      26.210  14.369   7.508  1.00  0.00     0.167 HD
HETATM    4  C   UNK N   1      24.185  14.415   7.243  0.00  0.00     0.049 A 
HETATM    5  C   UNK N   1      23.105  15.034   6.588  0.00  0.00     0.012 A 
HETATM    6  C   UNK N   1      23.401  16.100   5.670  0.00  0.00     0.113 A 
HETATM    7  N   UNK N   1      24.714  16.463   5.509  0.00  0.00    -0.328 N 
ATOM      8  HN  UNK N   1      24.939  17.226   4.870  1.00  0.00     0.169 HD
HETATM    9  C   UNK N   1      21.711  14.552   6.910  0.00  0.00     0.075 C 
HETATM   10  C   UNK N   1      21.645  13.598   8.113  0.00  0.00     0.278 C 
HETATM   11  N   UNK N   1      22.726  12.612   8.080  0.00  0.00     0.103 N 
HETATM   12  C   UNK N   1      23.988  13.327   8.246  0.00  0.00     0.330 C 
ENDROOT
BRANCH   1  13
HETATM   13  C   UNK N   1      27.130  16.257   6.029  0.00  0.00     0.008 A 
HETATM   14  C   UNK N   1      27.567  17.569   6.279  0.00  0.00     0.017 A 
HETATM   15  C   UNK N   1      28.932  17.886   6.153  0.00  0.00     0.030 A 
HETATM   16  C   UNK N   1      29.859  16.899   5.774  0.00  0.00     0.036 A 
HETATM   17  C   UNK N   1      29.404  15.600   5.530  0.00  0.00     0.030 A 
HETATM   18  C   UNK N   1      28.063  15.285   5.657  0.00  0.00     0.017 A 
BRANCH  16  19
HETATM   19  N   UNK N   1      31.242  17.232   5.646  0.00  0.00    -0.309 N 
HETATM   20  C   UNK N   1      32.184  17.060   6.620  0.00  0.00     0.320 C 
HETATM   21  N   UNK N   1      33.466  17.417   6.376  0.00  0.00    -0.343 N 
HETATM   22  O   UNK N   1      31.886  16.582   7.706  0.00  0.00    -0.247 OA
HETATM   23  H   UNK N   1      33.704  17.802   5.502  0.00  0.00     0.164 HD
HETATM   24  H   UNK N   1      31.540  17.615   4.789  0.00  0.00     0.170 HD
BRANCH  21  25
HETATM   25  C   UNK N   1      34.493  17.243   7.375  0.00  0.00     0.120 C 
HETATM   26  C   UNK N   1      34.613  18.497   8.212  0.00  0.00     0.026 C 
ENDBRANCH  21  25
ENDBRANCH  16  19
ENDBRANCH   1  13
BRANCH   6  27
HETATM   27  N   UNK N   1      22.403  16.858   4.947  0.00  0.00    -0.358 N 
HETATM   28  C   UNK N   1      21.889  16.257   3.715  0.00  0.00     0.151 C 
HETATM   29  C   UNK N   1      20.956  17.182   2.940  0.00  0.00     0.187 C 
HETATM   30  O   UNK N   1      21.465  18.481   2.998  0.00  0.00    -0.388 OA
HETATM   31  C   UNK N   1      21.117  18.907   4.282  0.00  0.00     0.192 C 
HETATM   32  C   UNK N   1      21.986  18.213   5.340  0.00  0.00     0.105 C 
HETATM   33  C   UNK N   1      21.150  18.165   6.609  0.00  0.00     0.034 C 
ENDBRANCH   6  27
BRANCH  11  34
HETATM   34  C   UNK N   1      22.574  11.765   9.267  0.00  0.00     0.270 A 
HETATM   35  C   UNK N   1      23.628  12.095  10.290  0.00  0.00     0.205 A 
HETATM   36  O   UNK N   1      22.701  12.668  11.175  0.00  0.00    -0.387 OA
HETATM   37  C   UNK N   1      21.652  12.393  10.289  0.00  0.00     0.205 A 
ENDBRANCH  11  34
TORSDOF 5
ENDMDL
MODEL 2
REMARK VINA RESULT:      -7.4      1.729      5.446
REMARK  5 active torsions:
REMARK  status: ('A' for Active; 'I' for Inactive)
REMARK    1  A    between atoms: C_2  and  N_3 
REMARK       I    between atoms: N_3  and  C_4 
REMARK       I    between atoms: C_4  and  N_6 
REMARK    2  A    between atoms: N_6  and  C_7 
REMARK    3  A    between atoms: C_10  and  C_13 
REMARK    4  A    between atoms: C_18  and  N_21 
REMARK    5  A    between atoms: N_30  and  C_32 
ROOT
HETATM    1  C   UNK N   1      26.240  16.225   6.546  0.00  0.00     0.117 A 
HETATM    2  N   UNK N   1      25.583  17.054   5.710  0.00  0.00    -0.343 N 
ATOM      3  HN  UNK N   1      26.061  17.885   5.362  1.00  0.00     0.167 HD
HETATM    4  C   UNK N   1      24.319  16.821   5.319  0.00  0.00     0.049 A 
HETATM    5  C   UNK N   1      23.633  15.681   5.778  0.00  0.00     0.012 A 
HETATM    6  C   UNK N   1      24.324  14.802   6.681  0.00  0.00     0.113 A 
HETATM    7  N   UNK N   1      25.615  15.116   7.022  0.00  0.00    -0.328 N 
ATOM      8  HN  UNK N   1      26.123  14.497   7.653  1.00  0.00     0.169 HD
HETATM    9  C   UNK N   1      22.229  15.448   5.271  0.00  0.00     0.075 C 
HETATM   10  C   UNK N   1      21.824  16.374   4.115  0.00  0.00     0.278 C 
HETATM   11  N   UNK N   1      22.252  17.754   4.352  0.00  0.00     0.103 N 
HETATM   12  C   UNK N   1      23.712  17.776   4.346  0.00  0.00     0.330 C 
ENDROOT
BRANCH   1  13
HETATM   13  C   UNK N   1      27.640  16.541   6.879  0.00  0.00     0.008 A 
HETATM   14  C   UNK N   1      28.709  16.286   6.003  0.00  0.00     0.017 A 
HETATM   15  C   UNK N   1      30.018  16.644   6.376  0.00  0.00     0.030 A 
HETATM   16  C   UNK N   1      30.261  17.250   7.621  0.00  0.00     0.036 A 
HETATM   17  C   UNK N   1      29.184  17.494   8.478  0.00  0.00     0.030 A 
HETATM   18  C   UNK N   1      27.896  17.148   8.111  0.00  0.00     0.017 A 
BRANCH  16  19
HETATM   19  N   UNK N   1      31.595  17.606   7.991  0.00  0.00    -0.309 N 
HETATM   20  C   UNK N   1      32.536  16.737   8.465  0.00  0.00     0.320 C 
HETATM   21  N   UNK N   1      33.767  17.199   8.783  0.00  0.00    -0.343 N 
HETATM   22  O   UNK N   1      32.283  15.547   8.599  0.00  0.00    -0.247 OA
HETATM   23  H   UNK N   1      33.968  18.157   8.675  0.00  0.00     0.164 HD
HETATM   24  H   UNK N   1      31.855  18.552   7.897  0.00  0.00     0.170 HD
BRANCH  21  25
HETATM   25  C   UNK N   1      34.792  16.312   9.279  0.00  0.00     0.120 C 
HETATM   26  C   UNK N   1      35.291  16.802  10.620  0.00  0.00     0.026 C 
ENDBRANCH  21  25
ENDBRANCH  16  19
ENDBRANCH   1  13
BRANCH   6  27
HETATM   27  N   UNK N   1      23.771  13.576   7.213  0.00  0.00    -0.358 N 
HETATM   28  C   UNK N   1      22.805  13.711   8.305  0.00  0.00     0.151 C 
HETATM   29  C   UNK N   1      22.385  12.373   8.904  0.00  0.00     0.187 C 
HETATM   30  O   UNK N   1      23.507  11.546   8.979  0.00  0.00    -0.388 OA
HETATM   31  C   UNK N   1      23.676  11.110   7.663  0.00  0.00     0.192 C 
HETATM   32  C   UNK N   1      24.216  12.242   6.780  0.00  0.00     0.105 C 
HETATM   33  C   UNK N   1      23.727  11.950   5.371  0.00  0.00     0.034 C 
ENDBRANCH   6  27
BRANCH  11  34
HETATM   34  C   UNK N   1      21.823  18.545   3.195  0.00  0.00     0.270 A 
HETATM   35  C   UNK N   1      20.612  19.370   3.538  0.00  0.00     0.205 A 
HETATM   36  O   UNK N   1      21.324  20.578   3.492  0.00  0.00    -0.387 OA
HETATM   37  C   UNK N   1      22.502  19.897   3.160  0.00  0.00     0.205 A 
ENDBRANCH  11  34
TORSDOF 5
ENDMDL
MODEL 3
REMARK VINA RESULT:      -7.3      1.762      5.527
REMARK  5 active torsions:
REMARK  status: ('A' for Active; 'I' for Inactive)
REMARK    1  A    between atoms: C_2  and  N_3 
REMARK       I    between atoms: N_3  and  C_4 
REMARK       I    between atoms: C_4  and  N_6 
REMARK    2  A    between atoms: N_6  and  C_7 
REMARK    3  A    between atoms: C_10  and  C_13 
REMARK    4  A    between atoms: C_18  and  N_21 
REMARK    5  A    between atoms: N_30  and  C_32 
ROOT
HETATM    1  C   UNK N   1      24.996  17.041   5.441  0.00  0.00     0.117 A 
HETATM    2  N   UNK N   1      24.359  18.010   4.752  0.00  0.00    -0.343 N 
ATOM      3  HN  UNK N   1      24.906  18.773   4.354  1.00  0.00     0.167 HD
HETATM    4  C   UNK N   1      23.028  18.002   4.572  0.00  0.00     0.049 A 
HETATM    5  C   UNK N   1      22.246  16.961   5.105  0.00  0.00     0.012 A 
HETATM    6  C   UNK N   1      22.918  15.934   5.853  0.00  0.00     0.113 A 
HETATM    7  N   UNK N   1      24.280  16.020   5.982  0.00  0.00    -0.328 N 
ATOM      8  HN  UNK N   1      24.774  15.293   6.500  1.00  0.00     0.169 HD
HETATM    9  C   UNK N   1      20.760  16.981   4.834  0.00  0.00     0.075 C 
HETATM   10  C   UNK N   1      20.332  18.024   3.790  0.00  0.00     0.278 C 
HETATM   11  N   UNK N   1      21.015  19.303   3.993  0.00  0.00     0.103 N 
HETATM   12  C   UNK N   1      22.438  19.094   3.743  0.00  0.00     0.330 C 
ENDROOT
BRANCH   1  13
HETATM   13  C   UNK N   1      26.464  17.112   5.543  0.00  0.00     0.008 A 
HETATM   14  C   UNK N   1      27.180  18.316   5.428  0.00  0.00     0.017 A 
HETATM   15  C   UNK N   1      28.580  18.312   5.567  0.00  0.00     0.030 A 
HETATM   16  C   UNK N   1      29.265  17.110   5.816  0.00  0.00     0.036 A 
HETATM   17  C   UNK N   1      28.535  15.924   5.927  0.00  0.00     0.030 A 
HETATM   18  C   UNK N   1      27.158  15.926   5.795  0.00  0.00     0.017 A 
BRANCH  16  19
HETATM   19  N   UNK N   1      30.688  17.117   5.953  0.00  0.00    -0.309 N 
HETATM   20  C   UNK N   1      31.362  17.253   7.133  0.00  0.00     0.320 C 
HETATM   21  N   UNK N   1      32.715  17.244   7.131  0.00  0.00    -0.343 N 
HETATM   22  O   UNK N   1      30.759  17.376   8.191  0.00  0.00    -0.247 OA
HETATM   23  H   UNK N   1      33.197  17.145   6.278  0.00  0.00     0.164 HD
HETATM   24  H   UNK N   1      31.223  17.014   5.133  0.00  0.00     0.170 HD
BRANCH  21  25
HETATM   25  C   UNK N   1      33.464  17.377   8.357  0.00  0.00     0.120 C 
HETATM   26  C   UNK N   1      34.557  18.407   8.182  0.00  0.00     0.026 C 
ENDBRANCH  21  25
ENDBRANCH  16  19
ENDBRANCH   1  13
BRANCH   6  27
HETATM   27  N   UNK N   1      22.262  14.782   6.434  0.00  0.00    -0.358 N 
HETATM   28  C   UNK N   1      21.583  14.990   7.714  0.00  0.00     0.151 C 
HETATM   29  C   UNK N   1      21.048  13.699   8.326  0.00  0.00     0.187 C 
HETATM   30  O   UNK N   1      21.984  12.684   8.116  0.00  0.00    -0.388 OA
HETATM   31  C   UNK N   1      21.795  12.341   6.776  0.00  0.00     0.192 C 
HETATM   32  C   UNK N   1      22.348  13.434   5.851  0.00  0.00     0.105 C 
HETATM   33  C   UNK N   1      21.535  13.355   4.569  0.00  0.00     0.034 C 
ENDBRANCH   6  27
BRANCH  11  34
HETATM   34  C   UNK N   1      20.543  20.216   2.948  0.00  0.00     0.270 A 
HETATM   35  C   UNK N   1      21.691  21.006   2.379  0.00  0.00     0.205 A 
HETATM   36  O   UNK N   1      21.641  20.339   1.145  0.00  0.00    -0.387 OA
HETATM   37  C   UNK N   1      20.563  19.562   1.584  0.00  0.00     0.205 A 
ENDBRANCH  11  34
TORSDOF 5
ENDMDL
MODEL 4
REMARK VINA RESULT:      -7.3      5.511      9.332
REMARK  5 active torsions:
REMARK  status: ('A' for Active; 'I' for Inactive)
REMARK    1  A    between atoms: C_2  and  N_3 
REMARK       I    between atoms: N_3  and  C_4 
REMARK       I    between atoms: C_4  and  N_6 
REMARK    2  A    between atoms: N_6  and  C_7 
REMARK    3  A    between atoms: C_10  and  C_13 
REMARK    4  A    between atoms: C_18  and  N_21 
REMARK    5  A    between atoms: N_30  and  C_32 
ROOT
HETATM    1  C   UNK N   1      32.829  15.365   7.822  0.00  0.00     0.117 A 
HETATM    2  N   UNK N   1      31.696  16.066   8.030  0.00  0.00    -0.343 N 
ATOM      3  HN  UNK N   1      31.506  16.431   8.964  1.00  0.00     0.167 HD
HETATM    4  C   UNK N   1      30.810  16.299   7.049  0.00  0.00     0.049 A 
HETATM    5  C   UNK N   1      31.044  15.812   5.750  0.00  0.00     0.012 A 
HETATM    6  C   UNK N   1      32.243  15.051   5.527  0.00  0.00     0.113 A 
HETATM    7  N   UNK N   1      33.094  14.867   6.586  0.00  0.00    -0.328 N 
ATOM      8  HN  UNK N   1      33.954  14.340   6.442  1.00  0.00     0.169 HD
HETATM    9  C   UNK N   1      30.034  16.141   4.677  0.00  0.00     0.075 C 
HETATM   10  C   UNK N   1      28.992  17.187   5.103  0.00  0.00     0.278 C 
HETATM   11  N   UNK N   1      28.502  16.940   6.460  0.00  0.00     0.103 N 
HETATM   12  C   UNK N   1      29.619  17.136   7.380  0.00  0.00     0.330 C 
ENDROOT
BRANCH   1  13
HETATM   13  C   UNK N   1      33.762  15.203   8.951  0.00  0.00     0.008 A 
HETATM   14  C   UNK N   1      34.275  16.290   9.679  0.00  0.00     0.017 A 
HETATM   15  C   UNK N   1      35.139  16.057  10.766  0.00  0.00     0.030 A 
HETATM   16  C   UNK N   1      35.494  14.745  11.123  0.00  0.00     0.036 A 
HETATM   17  C   UNK N   1      34.973  13.677  10.385  0.00  0.00     0.030 A 
HETATM   18  C   UNK N   1      34.120  13.903   9.320  0.00  0.00     0.017 A 
BRANCH  16  19
HETATM   19  N   UNK N   1      36.374  14.520  12.226  0.00  0.00    -0.309 N 
HETATM   20  C   UNK N   1      36.003  13.992  13.430  0.00  0.00     0.320 C 
HETATM   21  N   UNK N   1      36.933  13.829  14.399  0.00  0.00    -0.343 N 
HETATM   22  O   UNK N   1      34.844  13.661  13.642  0.00  0.00    -0.247 OA
HETATM   23  H   UNK N   1      37.864  14.097  14.226  0.00  0.00     0.164 HD
HETATM   24  H   UNK N   1      37.321  14.762  12.108  0.00  0.00     0.170 HD
BRANCH  21  25
HETATM   25  C   UNK N   1      36.584  13.268  15.682  0.00  0.00     0.120 C 
HETATM   26  C   UNK N   1      36.670  11.760  15.624  0.00  0.00     0.026 C 
ENDBRANCH  21  25
ENDBRANCH  16  19
ENDBRANCH   1  13
BRANCH   6  27
HETATM   27  N   UNK N   1      32.644  14.513   4.245  0.00  0.00    -0.358 N 
HETATM   28  C   UNK N   1      32.029  13.246   3.844  0.00  0.00     0.151 C 
HETATM   29  C   UNK N   1      32.613  12.676   2.556  0.00  0.00     0.187 C 
HETATM   30  O   UNK N   1      33.994  12.883   2.562  0.00  0.00    -0.388 OA
HETATM   31  C   UNK N   1      34.120  14.235   2.236  0.00  0.00     0.192 C 
HETATM   32  C   UNK N   1      33.694  15.121   3.414  0.00  0.00     0.105 C 
HETATM   33  C   UNK N   1      33.202  16.425   2.806  0.00  0.00     0.034 C 
ENDBRANCH   6  27
BRANCH  11  34
HETATM   34  C   UNK N   1      27.527  17.990   6.766  0.00  0.00     0.270 A 
HETATM   35  C   UNK N   1      28.158  19.067   7.609  0.00  0.00     0.205 A 
HETATM   36  O   UNK N   1      28.125  20.009   6.570  0.00  0.00    -0.387 OA
HETATM   37  C   UNK N   1      27.527  19.077   5.713  0.00  0.00     0.205 A 
ENDBRANCH  11  34
TORSDOF 5
ENDMDL
MODEL 5
REMARK VINA RESULT:      -7.1      8.711     13.983
REMARK  5 active torsions:
REMARK  status: ('A' for Active; 'I' for Inactive)
REMARK    1  A    between atoms: C_2  and  N_3 
REMARK       I    between atoms: N_3  and  C_4 
REMARK       I    between atoms: C_4  and  N_6 
REMARK    2  A    between atoms: N_6  and  C_7 
REMARK    3  A    between atoms: C_10  and  C_13 
REMARK    4  A    between atoms: C_18  and  N_21 
REMARK    5  A    between atoms: N_30  and  C_32 
ROOT
HETATM    1  C   UNK N   1      36.156  13.946  12.217  0.00  0.00     0.117 A 
HETATM    2  N   UNK N   1      37.269  13.446  11.640  0.00  0.00    -0.343 N 
ATOM      3  HN  UNK N   1      37.955  12.968  12.225  1.00  0.00     0.167 HD
HETATM    4  C   UNK N   1      37.503  13.558  10.323  0.00  0.00     0.049 A 
HETATM    5  C   UNK N   1      36.575  14.209   9.490  0.00  0.00     0.012 A 
HETATM    6  C   UNK N   1      35.395  14.756  10.101  0.00  0.00     0.113 A 
HETATM    7  N   UNK N   1      35.236  14.590  11.453  0.00  0.00    -0.328 N 
ATOM      8  HN  UNK N   1      34.398  14.962  11.900  1.00  0.00     0.169 HD
HETATM    9  C   UNK N   1      36.871  14.267   8.009  0.00  0.00     0.075 C 
HETATM   10  C   UNK N   1      38.047  13.379   7.575  0.00  0.00     0.278 C 
HETATM   11  N   UNK N   1      39.170  13.476   8.508  0.00  0.00     0.103 N 
HETATM   12  C   UNK N   1      38.740  12.917   9.786  0.00  0.00     0.330 C 
ENDROOT
BRANCH   1  13
HETATM   13  C   UNK N   1      35.967  13.731  13.662  0.00  0.00     0.008 A 
HETATM   14  C   UNK N   1      36.759  14.358  14.638  0.00  0.00     0.017 A 
HETATM   15  C   UNK N   1      36.500  14.128  16.002  0.00  0.00     0.030 A 
HETATM   16  C   UNK N   1      35.456  13.271  16.392  0.00  0.00     0.036 A 
HETATM   17  C   UNK N   1      34.679  12.656  15.405  0.00  0.00     0.030 A 
HETATM   18  C   UNK N   1      34.929  12.884  14.064  0.00  0.00     0.017 A 
BRANCH  16  19
HETATM   19  N   UNK N   1      35.203  13.042  17.779  0.00  0.00    -0.309 N 
HETATM   20  C   UNK N   1      35.452  11.872  18.439  0.00  0.00     0.320 C 
HETATM   21  N   UNK N   1      35.167  11.779  19.758  0.00  0.00    -0.343 N 
HETATM   22  O   UNK N   1      35.935  10.911  17.855  0.00  0.00    -0.247 OA
HETATM   23  H   UNK N   1      34.778  12.554  20.225  0.00  0.00     0.164 HD
HETATM   24  H   UNK N   1      34.820  13.785  18.300  0.00  0.00     0.170 HD
BRANCH  21  25
HETATM   25  C   UNK N   1      35.423  10.564  20.494  0.00  0.00     0.120 C 
HETATM   26  C   UNK N   1      34.126   9.825  20.733  0.00  0.00     0.026 C 
ENDBRANCH  21  25
ENDBRANCH  16  19
ENDBRANCH   1  13
BRANCH   6  27
HETATM   27  N   UNK N   1      34.332  15.422   9.378  0.00  0.00    -0.358 N 
HETATM   28  C   UNK N   1      34.574  16.812   8.990  0.00  0.00     0.151 C 
HETATM   29  C   UNK N   1      33.355  17.482   8.367  0.00  0.00     0.187 C 
HETATM   30  O   UNK N   1      32.216  17.075   9.065  0.00  0.00    -0.388 OA
HETATM   31  C   UNK N   1      31.982  15.787   8.579  0.00  0.00     0.192 C 
HETATM   32  C   UNK N   1      33.022  14.801   9.129  0.00  0.00     0.105 C 
HETATM   33  C   UNK N   1      33.146  13.695   8.094  0.00  0.00     0.034 C 
ENDBRANCH   6  27
BRANCH  11  34
HETATM   34  C   UNK N   1      40.227  12.592   8.007  0.00  0.00     0.270 A 
HETATM   35  C   UNK N   1      40.327  11.355   8.858  0.00  0.00     0.205 A 
HETATM   36  O   UNK N   1      39.819  10.523   7.848  0.00  0.00    -0.387 OA
HETATM   37  C   UNK N   1      39.698  11.615   6.980  0.00  0.00     0.205 A 
ENDBRANCH  11  34
TORSDOF 5
ENDMDL
MODEL 6
REMARK VINA RESULT:      -7.1      9.493     14.386
REMARK  5 active torsions:
REMARK  status: ('A' for Active; 'I' for Inactive)
REMARK    1  A    between atoms: C_2  and  N_3 
REMARK       I    between atoms: N_3  and  C_4 
REMARK       I    between atoms: C_4  and  N_6 
REMARK    2  A    between atoms: N_6  and  C_7 
REMARK    3  A    between atoms: C_10  and  C_13 
REMARK    4  A    between atoms: C_18  and  N_21 
REMARK    5  A    between atoms: N_30  and  C_32 
ROOT
HETATM    1  C   UNK N   1      35.777  13.394  12.139  0.00  0.00     0.117 A 
HETATM    2  N   UNK N   1      34.993  14.297  11.513  0.00  0.00    -0.343 N 
ATOM      3  HN  UNK N   1      34.324  14.835  12.063  1.00  0.00     0.167 HD
HETATM    4  C   UNK N   1      35.066  14.509  10.189  0.00  0.00     0.049 A 
HETATM    5  C   UNK N   1      35.981  13.787   9.402  0.00  0.00     0.012 A 
HETATM    6  C   UNK N   1      36.808  12.813  10.062  0.00  0.00     0.113 A 
HETATM    7  N   UNK N   1      36.670  12.666  11.419  0.00  0.00    -0.328 N 
ATOM      8  HN  UNK N   1      37.257  11.988  11.903  1.00  0.00     0.169 HD
HETATM    9  C   UNK N   1      36.049  14.099   7.926  0.00  0.00     0.075 C 
HETATM   10  C   UNK N   1      35.266  15.357   7.521  0.00  0.00     0.278 C 
HETATM   11  N   UNK N   1      33.960  15.417   8.180  0.00  0.00     0.103 N 
HETATM   12  C   UNK N   1      34.191  15.573   9.613  0.00  0.00     0.330 C 
ENDROOT
BRANCH   1  13
HETATM   13  C   UNK N   1      35.656  13.267  13.601  0.00  0.00     0.008 A 
HETATM   14  C   UNK N   1      36.495  13.948  14.499  0.00  0.00     0.017 A 
HETATM   15  C   UNK N   1      36.301  13.802  15.885  0.00  0.00     0.030 A 
HETATM   16  C   UNK N   1      35.276  12.974  16.375  0.00  0.00     0.036 A 
HETATM   17  C   UNK N   1      34.453  12.304  15.465  0.00  0.00     0.030 A 
HETATM   18  C   UNK N   1      34.639  12.450  14.102  0.00  0.00     0.017 A 
BRANCH  16  19
HETATM   19  N   UNK N   1      35.089  12.830  17.784  0.00  0.00    -0.309 N 
HETATM   20  C   UNK N   1      35.413  11.717  18.508  0.00  0.00     0.320 C 
HETATM   21  N   UNK N   1      35.185  11.703  19.842  0.00  0.00    -0.343 N 
HETATM   22  O   UNK N   1      35.910  10.738  17.968  0.00  0.00    -0.247 OA
HETATM   23  H   UNK N   1      34.785  12.492  20.273  0.00  0.00     0.164 HD
HETATM   24  H   UNK N   1      34.698  13.591  18.271  0.00  0.00     0.170 HD
BRANCH  21  25
HETATM   25  C   UNK N   1      35.520  10.551  20.644  0.00  0.00     0.120 C 
HETATM   26  C   UNK N   1      34.256   9.870  21.118  0.00  0.00     0.026 C 
ENDBRANCH  21  25
ENDBRANCH  16  19
ENDBRANCH   1  13
BRANCH   6  27
HETATM   27  N   UNK N   1      37.819  12.016   9.402  0.00  0.00    -0.358 N 
HETATM   28  C   UNK N   1      39.189  12.530   9.440  0.00  0.00     0.151 C 
HETATM   29  C   UNK N   1      40.161  11.711   8.598  0.00  0.00     0.187 C 
HETATM   30  O   UNK N   1      39.522  11.336   7.415  0.00  0.00    -0.388 OA
HETATM   31  C   UNK N   1      38.695  10.283   7.813  0.00  0.00     0.192 C 
HETATM   32  C   UNK N   1      37.504  10.805   8.628  0.00  0.00     0.105 C 
HETATM   33  C   UNK N   1      37.097   9.672   9.555  0.00  0.00     0.034 C 
ENDBRANCH   6  27
BRANCH  11  34
HETATM   34  C   UNK N   1      33.305  16.649   7.732  0.00  0.00     0.270 A 
HETATM   35  C   UNK N   1      33.949  17.852   8.369  0.00  0.00     0.205 A 
HETATM   36  O   UNK N   1      34.517  18.286   7.160  0.00  0.00    -0.387 OA
HETATM   37  C   UNK N   1      33.950  17.202   6.479  0.00  0.00     0.205 A 
ENDBRANCH  11  34
TORSDOF 5
ENDMDL
MODEL 7
REMARK VINA RESULT:      -7.1      6.068     12.760
REMARK  5 active torsions:
REMARK  status: ('A' for Active; 'I' for Inactive)
REMARK    1  A    between atoms: C_2  and  N_3 
REMARK       I    between atoms: N_3  and  C_4 
REMARK       I    between atoms: C_4  and  N_6 
REMARK    2  A    between atoms: N_6  and  C_7 
REMARK    3  A    between atoms: C_10  and  C_13 
REMARK    4  A    between atoms: C_18  and  N_21 
REMARK    5  A    between atoms: N_30  and  C_32 
ROOT
HETATM    1  C   UNK N   1      35.007  14.869   7.838  0.00  0.00     0.117 A 
HETATM    2  N   UNK N   1      34.785  14.847   9.169  0.00  0.00    -0.343 N 
ATOM      3  HN  UNK N   1      33.930  15.268   9.533  1.00  0.00     0.167 HD
HETATM    4  C   UNK N   1      35.653  14.290  10.029  0.00  0.00     0.049 A 
HETATM    5  C   UNK N   1      36.840  13.699   9.557  0.00  0.00     0.012 A 
HETATM    6  C   UNK N   1      37.087  13.733   8.142  0.00  0.00     0.113 A 
HETATM    7  N   UNK N   1      36.143  14.318   7.338  0.00  0.00    -0.328 N 
ATOM      8  HN  UNK N   1      36.298  14.339   6.330  1.00  0.00     0.169 HD
HETATM    9  C   UNK N   1      37.758  13.050  10.566  0.00  0.00     0.075 C 
HETATM   10  C   UNK N   1      37.141  12.908  11.966  0.00  0.00     0.278 C 
HETATM   11  N   UNK N   1      36.423  14.120  12.365  0.00  0.00     0.103 N 
HETATM   12  C   UNK N   1      35.277  14.274  11.473  0.00  0.00     0.330 C 
ENDROOT
BRANCH   1  13
HETATM   13  C   UNK N   1      33.972  15.460   6.972  0.00  0.00     0.008 A 
HETATM   14  C   UNK N   1      32.894  14.722   6.456  0.00  0.00     0.017 A 
HETATM   15  C   UNK N   1      31.926  15.362   5.661  0.00  0.00     0.030 A 
HETATM   16  C   UNK N   1      32.035  16.734   5.375  0.00  0.00     0.036 A 
HETATM   17  C   UNK N   1      33.116  17.451   5.897  0.00  0.00     0.030 A 
HETATM   18  C   UNK N   1      34.066  16.825   6.684  0.00  0.00     0.017 A 
BRANCH  16  19
HETATM   19  N   UNK N   1      31.049  17.374   4.563  0.00  0.00    -0.309 N 
HETATM   20  C   UNK N   1      29.782  17.686   4.968  0.00  0.00     0.320 C 
HETATM   21  N   UNK N   1      28.938  18.292   4.101  0.00  0.00    -0.343 N 
HETATM   22  O   UNK N   1      29.403  17.431   6.103  0.00  0.00    -0.247 OA
HETATM   23  H   UNK N   1      29.245  18.496   3.188  0.00  0.00     0.164 HD
HETATM   24  H   UNK N   1      31.302  17.608   3.641  0.00  0.00     0.170 HD
BRANCH  21  25
HETATM   25  C   UNK N   1      27.595  18.646   4.492  0.00  0.00     0.120 C 
HETATM   26  C   UNK N   1      27.277  20.049   4.025  0.00  0.00     0.026 C 
ENDBRANCH  21  25
ENDBRANCH  16  19
ENDBRANCH   1  13
BRANCH   6  27
HETATM   27  N   UNK N   1      38.241  13.140   7.498  0.00  0.00    -0.358 N 
HETATM   28  C   UNK N   1      39.483  13.914   7.537  0.00  0.00     0.151 C 
HETATM   29  C   UNK N   1      40.604  13.290   6.713  0.00  0.00     0.187 C 
HETATM   30  O   UNK N   1      40.060  12.782   5.531  0.00  0.00    -0.388 OA
HETATM   31  C   UNK N   1      39.452  11.593   5.939  0.00  0.00     0.192 C 
HETATM   32  C   UNK N   1      38.175  11.882   6.740  0.00  0.00     0.105 C 
HETATM   33  C   UNK N   1      37.990  10.702   7.681  0.00  0.00     0.034 C 
ENDBRANCH   6  27
BRANCH  11  34
HETATM   34  C   UNK N   1      35.873  13.876  13.702  0.00  0.00     0.270 A 
HETATM   35  C   UNK N   1      36.516  12.665  14.325  0.00  0.00     0.205 A 
HETATM   36  O   UNK N   1      37.212  13.426  15.276  0.00  0.00    -0.387 OA
HETATM   37  C   UNK N   1      36.657  14.607  14.770  0.00  0.00     0.205 A 
ENDBRANCH  11  34
TORSDOF 5
ENDMDL
MODEL 8
REMARK VINA RESULT:      -7.0     13.991     17.777
REMARK  5 active torsions:
REMARK  status: ('A' for Active; 'I' for Inactive)
REMARK    1  A    between atoms: C_2  and  N_3 
REMARK       I    between atoms: N_3  and  C_4 
REMARK       I    between atoms: C_4  and  N_6 
REMARK    2  A    between atoms: N_6  and  C_7 
REMARK    3  A    between atoms: C_10  and  C_13 
REMARK    4  A    between atoms: C_18  and  N_21 
REMARK    5  A    between atoms: N_30  and  C_32 
ROOT
HETATM    1  C   UNK N   1      35.405  10.425  18.933  0.00  0.00     0.117 A 
HETATM    2  N   UNK N   1      36.219  10.499  20.006  0.00  0.00    -0.343 N 
ATOM      3  HN  UNK N   1      37.009  11.144  19.983  1.00  0.00     0.167 HD
HETATM    4  C   UNK N   1      36.023   9.750  21.104  0.00  0.00     0.049 A 
HETATM    5  C   UNK N   1      34.941   8.854  21.168  0.00  0.00     0.012 A 
HETATM    6  C   UNK N   1      34.080   8.761  20.022  0.00  0.00     0.113 A 
HETATM    7  N   UNK N   1      34.352   9.567  18.946  0.00  0.00    -0.328 N 
ATOM      8  HN  UNK N   1      33.744   9.522  18.129  1.00  0.00     0.169 HD
HETATM    9  C   UNK N   1      34.746   8.069  22.444  0.00  0.00     0.075 C 
HETATM   10  C   UNK N   1      35.629   8.546  23.608  0.00  0.00     0.278 C 
HETATM   11  N   UNK N   1      36.998   8.821  23.170  0.00  0.00     0.103 N 
HETATM   12  C   UNK N   1      36.954   9.956  22.253  0.00  0.00     0.330 C 
ENDROOT
BRANCH   1  13
HETATM   13  C   UNK N   1      35.674  11.322  17.795  0.00  0.00     0.008 A 
HETATM   14  C   UNK N   1      35.299  12.675  17.784  0.00  0.00     0.017 A 
HETATM   15  C   UNK N   1      35.617  13.480  16.674  0.00  0.00     0.030 A 
HETATM   16  C   UNK N   1      36.304  12.934  15.576  0.00  0.00     0.036 A 
HETATM   17  C   UNK N   1      36.668  11.585  15.606  0.00  0.00     0.030 A 
HETATM   18  C   UNK N   1      36.360  10.793  16.698  0.00  0.00     0.017 A 
BRANCH  16  19
HETATM   19  N   UNK N   1      36.620  13.758  14.452  0.00  0.00    -0.309 N 
HETATM   20  C   UNK N   1      35.790  13.990  13.392  0.00  0.00     0.320 C 
HETATM   21  N   UNK N   1      36.207  14.792  12.385  0.00  0.00    -0.343 N 
HETATM   22  O   UNK N   1      34.675  13.488  13.344  0.00  0.00    -0.247 OA
HETATM   23  H   UNK N   1      37.104  15.194  12.425  0.00  0.00     0.164 HD
HETATM   24  H   UNK N   1      37.503  14.193  14.441  0.00  0.00     0.170 HD
BRANCH  21  25
HETATM   25  C   UNK N   1      35.357  15.069  11.251  0.00  0.00     0.120 C 
HETATM   26  C   UNK N   1      35.523  16.510  10.825  0.00  0.00     0.026 C 
ENDBRANCH  21  25
ENDBRANCH  16  19
ENDBRANCH   1  13
BRANCH   6  27
HETATM   27  N   UNK N   1      32.908   7.915  19.944  0.00  0.00    -0.358 N 
HETATM   28  C   UNK N   1      31.610   8.591  19.927  0.00  0.00     0.151 C 
HETATM   29  C   UNK N   1      30.430   7.628  19.994  0.00  0.00     0.187 C 
HETATM   30  O   UNK N   1      30.741   6.602  20.889  0.00  0.00    -0.388 OA
HETATM   31  C   UNK N   1      31.602   5.783  20.156  0.00  0.00     0.192 C 
HETATM   32  C   UNK N   1      32.977   6.446  19.993  0.00  0.00     0.105 C 
HETATM   33  C   UNK N   1      33.560   5.898  18.701  0.00  0.00     0.034 C 
ENDBRANCH   6  27
BRANCH  11  34
HETATM   34  C   UNK N   1      37.747   9.271  24.346  0.00  0.00     0.270 A 
HETATM   35  C   UNK N   1      38.982   8.432  24.539  0.00  0.00     0.205 A 
HETATM   36  O   UNK N   1      39.845   9.482  24.186  0.00  0.00    -0.387 OA
HETATM   37  C   UNK N   1      38.757  10.340  23.991  0.00  0.00     0.205 A 
ENDBRANCH  11  34
TORSDOF 5
ENDMDL
MODEL 9
REMARK VINA RESULT:      -7.0      5.305      9.492
REMARK  5 active torsions:
REMARK  status: ('A' for Active; 'I' for Inactive)
REMARK    1  A    between atoms: C_2  and  N_3 
REMARK       I    between atoms: N_3  and  C_4 
REMARK       I    between atoms: C_4  and  N_6 
REMARK    2  A    between atoms: N_6  and  C_7 
REMARK    3  A    between atoms: C_10  and  C_13 
REMARK    4  A    between atoms: C_18  and  N_21 
REMARK    5  A    between atoms: N_30  and  C_32 
ROOT
HETATM    1  C   UNK N   1      33.202  15.389   6.736  0.00  0.00     0.117 A 
HETATM    2  N   UNK N   1      32.098  16.162   6.686  0.00  0.00    -0.343 N 
ATOM      3  HN  UNK N   1      31.851  16.722   7.502  1.00  0.00     0.167 HD
HETATM    4  C   UNK N   1      31.312  16.216   5.599  0.00  0.00     0.049 A 
HETATM    5  C   UNK N   1      31.627  15.458   4.456  0.00  0.00     0.012 A 
HETATM    6  C   UNK N   1      32.795  14.622   4.509  0.00  0.00     0.113 A 
HETATM    7  N   UNK N   1      33.541  14.632   5.660  0.00  0.00    -0.328 N 
ATOM      8  HN  UNK N   1      34.379  14.053   5.709  1.00  0.00     0.169 HD
HETATM    9  C   UNK N   1      30.732  15.593   3.247  0.00  0.00     0.075 C 
HETATM   10  C   UNK N   1      29.720  16.745   3.348  0.00  0.00     0.278 C 
HETATM   11  N   UNK N   1      29.104  16.808   4.674  0.00  0.00     0.103 N 
HETATM   12  C   UNK N   1      30.148  17.150   5.636  0.00  0.00     0.330 C 
ENDROOT
BRANCH   1  13
HETATM   13  C   UNK N   1      34.026  15.432   7.957  0.00  0.00     0.008 A 
HETATM   14  C   UNK N   1      34.012  16.518   8.848  0.00  0.00     0.017 A 
HETATM   15  C   UNK N   1      34.803  16.477  10.012  0.00  0.00     0.030 A 
HETATM   16  C   UNK N   1      35.609  15.357  10.283  0.00  0.00     0.036 A 
HETATM   17  C   UNK N   1      35.609  14.288   9.382  0.00  0.00     0.030 A 
HETATM   18  C   UNK N   1      34.829  14.324   8.241  0.00  0.00     0.017 A 
BRANCH  16  19
HETATM   19  N   UNK N   1      36.411  15.326  11.465  0.00  0.00    -0.309 N 
HETATM   20  C   UNK N   1      36.056  14.723  12.638  0.00  0.00     0.320 C 
HETATM   21  N   UNK N   1      36.905  14.765  13.690  0.00  0.00    -0.343 N 
HETATM   22  O   UNK N   1      34.984  14.142  12.748  0.00  0.00    -0.247 OA
HETATM   23  H   UNK N   1      37.766  15.233  13.600  0.00  0.00     0.164 HD
HETATM   24  H   UNK N   1      37.288  15.774  11.431  0.00  0.00     0.170 HD
BRANCH  21  25
HETATM   25  C   UNK N   1      36.571  14.133  14.944  0.00  0.00     0.120 C 
HETATM   26  C   UNK N   1      37.161  14.923  16.091  0.00  0.00     0.026 C 
ENDBRANCH  21  25
ENDBRANCH  16  19
ENDBRANCH   1  13
BRANCH   6  27
HETATM   27  N   UNK N   1      33.271  13.810   3.409  0.00  0.00    -0.358 N 
HETATM   28  C   UNK N   1      34.425  14.322   2.668  0.00  0.00     0.151 C 
HETATM   29  C   UNK N   1      34.767  13.486   1.440  0.00  0.00     0.187 C 
HETATM   30  O   UNK N   1      33.579  13.092   0.821  0.00  0.00    -0.388 OA
HETATM   31  C   UNK N   1      33.124  12.049   1.629  0.00  0.00     0.192 C 
HETATM   32  C   UNK N   1      32.587  12.587   2.962  0.00  0.00     0.105 C 
HETATM   33  C   UNK N   1      32.775  11.471   3.977  0.00  0.00     0.034 C 
ENDBRANCH   6  27
BRANCH  11  34
HETATM   34  C   UNK N   1      28.168  17.936   4.664  0.00  0.00     0.270 A 
HETATM   35  C   UNK N   1      26.855  17.529   4.051  0.00  0.00     0.205 A 
HETATM   36  O   UNK N   1      26.172  17.598   5.275  0.00  0.00    -0.387 OA
HETATM   37  C   UNK N   1      27.344  17.992   5.932  0.00  0.00     0.205 A 
ENDBRANCH  11  34
TORSDOF 5
ENDMDL
