MODEL 1
REMARK VINA RESULT:      -5.2      0.000      0.000
REMARK WARNING: 32 MAX_TORS EXCEEDED!!!
REMARK  53 active torsions:
REMARK  status: ('A' for Active; 'I' for Inactive)
REMARK    1  A    between atoms: O_1  and  C_55 
REMARK    2  A    between atoms: O_1  and  C_58 
REMARK    3  A    between atoms: O_2  and  C_56 
REMARK    4  A    between atoms: O_2  and  C_59 
REMARK    5  A    between atoms: O_3  and  C_57 
REMARK    6  A    between atoms: O_3  and  C_60 
REMARK    7  A    between atoms: C_7  and  C_8 
REMARK    8  A    between atoms: C_7  and  C_11 
REMARK    9  A    between atoms: C_8  and  C_16 
REMARK   10  A    between atoms: C_9  and  C_12 
REMARK   11  A    between atoms: C_9  and  C_21 
REMARK   12  A    between atoms: C_10  and  C_13 
REMARK   13  A    between atoms: C_10  and  C_22 
REMARK   14  A    between atoms: C_11  and  C_31 
REMARK   15  A    between atoms: C_12  and  C_23 
REMARK   16  A    between atoms: C_13  and  C_24 
REMARK   17  A    between atoms: C_14  and  C_15 
REMARK   18  A    between atoms: C_14  and  C_25 
REMARK   19  A    between atoms: C_15  and  C_26 
REMARK   20  A    between atoms: C_16  and  C_34 
REMARK   21  A    between atoms: C_17  and  C_19 
REMARK   22  A    between atoms: C_17  and  C_27 
REMARK   23  A    between atoms: C_18  and  C_20 
REMARK   24  A    between atoms: C_18  and  C_28 
REMARK   25  A    between atoms: C_19  and  C_29 
REMARK   26  A    between atoms: C_20  and  C_30 
REMARK   27  A    between atoms: C_21  and  C_32 
REMARK   28  A    between atoms: C_22  and  C_33 
REMARK   29  A    between atoms: C_23  and  C_35 
REMARK   30  A    between atoms: C_24  and  C_36 
REMARK   31  A    between atoms: C_25  and  C_37 
REMARK   32  A    between atoms: C_26  and  C_38 
REMARK   33  A    between atoms: C_27  and  C_39 
REMARK   34  A    between atoms: C_28  and  C_40 
REMARK   35  A    between atoms: C_29  and  C_41 
REMARK   36  A    between atoms: C_30  and  C_42 
REMARK   37  A    between atoms: C_31  and  C_43 
REMARK   38  A    between atoms: C_32  and  C_44 
REMARK   39  A    between atoms: C_33  and  C_45 
REMARK   40  A    between atoms: C_34  and  C_46 
REMARK   41  A    between atoms: C_35  and  C_51 
REMARK   42  A    between atoms: C_36  and  C_52 
REMARK   43  A    between atoms: C_37  and  C_47 
REMARK   44  A    between atoms: C_38  and  C_48 
REMARK   45  A    between atoms: C_39  and  C_49 
REMARK   46  A    between atoms: C_40  and  C_50 
REMARK   47  A    between atoms: C_41  and  C_53 
REMARK   48  A    between atoms: C_42  and  C_54 
REMARK   49  A    between atoms: C_43  and  C_58 
REMARK   50  A    between atoms: C_44  and  C_59 
REMARK   51  A    between atoms: C_45  and  C_60 
REMARK   52  A    between atoms: C_55  and  C_56 
REMARK   53  A    between atoms: C_55  and  C_57 
ROOT
HETATM    1  C   UNK N   1      24.355  19.957   3.627  0.00  0.00     0.180 C 
ENDROOT
BRANCH   1   2
HETATM    2  O   UNK N   1      25.679  19.723   3.329  0.00  0.00    -0.312 OA
BRANCH   2   3
HETATM    3  C   UNK N   1      26.684  20.027   4.187  0.00  0.00     0.259 C 
HETATM    4  O   UNK N   1      27.845  19.787   3.893  0.00  0.00    -0.265 OA
BRANCH   3   5
HETATM    5  C   UNK N   1      26.385  20.679   5.504  0.00  0.00     0.111 C 
BRANCH   5   6
HETATM    6  C   UNK N   1      27.641  20.859   6.347  0.00  0.00     0.010 C 
BRANCH   6   7
HETATM    7  C   UNK N   1      27.689  19.841   7.478  0.00  0.00     0.000 C 
BRANCH   7   8
HETATM    8  C   UNK N   1      28.444  18.581   7.076  0.00  0.00     0.000 C 
BRANCH   8   9
HETATM    9  C   UNK N   1      29.371  18.160   8.204  0.00  0.00     0.000 C 
BRANCH   9  10
HETATM   10  C   UNK N   1      30.179  16.951   7.787  0.00  0.00     0.004 C 
BRANCH  10  11
HETATM   11  C   UNK N   1      31.545  17.014   8.450  0.00  0.00     0.027 C 
BRANCH  11  12
HETATM   12  C   UNK N   1      32.473  15.978   7.882  0.00  0.00    -0.031 C 
HETATM   13  C   UNK N   1      33.396  16.236   6.943  0.00  0.00    -0.031 C 
BRANCH  13  14
HETATM   14  C   UNK N   1      33.591  17.594   6.355  0.00  0.00     0.027 C 
BRANCH  14  15
HETATM   15  C   UNK N   1      33.418  17.568   4.852  0.00  0.00     0.004 C 
BRANCH  15  16
HETATM   16  C   UNK N   1      31.935  17.510   4.553  0.00  0.00     0.000 C 
BRANCH  16  17
HETATM   17  C   UNK N   1      31.694  16.921   3.181  0.00  0.00     0.000 C 
BRANCH  17  18
HETATM   18  C   UNK N   1      30.964  15.604   3.348  0.00  0.00     0.000 C 
BRANCH  18  19
HETATM   19  C   UNK N   1      31.956  14.466   3.444  0.00  0.00    -0.000 C 
BRANCH  19  20
HETATM   20  C   UNK N   1      31.706  13.700   4.725  0.00  0.00    -0.005 C 
HETATM   21  C   UNK N   1      30.420  14.180   5.362  0.00  0.00     0.005 C 
ENDBRANCH  19  20
ENDBRANCH  18  19
ENDBRANCH  17  18
ENDBRANCH  16  17
ENDBRANCH  15  16
ENDBRANCH  14  15
ENDBRANCH  13  14
ENDBRANCH  11  12
ENDBRANCH  10  11
ENDBRANCH   9  10
ENDBRANCH   8   9
ENDBRANCH   7   8
ENDBRANCH   6   7
ENDBRANCH   5   6
ENDBRANCH   3   5
ENDBRANCH   2   3
ENDBRANCH   1   2
BRANCH   1  22
HETATM   22  C   UNK N   1      23.630  20.546   2.429  0.00  0.00     0.213 C 
BRANCH  22  23
HETATM   23  O   UNK N   1      22.522  21.261   2.830  0.00  0.00    -0.319 OA
BRANCH  23  24
HETATM   24  C   UNK N   1      21.251  20.914   2.498  0.00  0.00     0.258 C 
HETATM   25  O   UNK N   1      20.799  21.272   1.422  0.00  0.00    -0.265 OA
BRANCH  24  26
HETATM   26  C   UNK N   1      20.386  20.114   3.427  0.00  0.00     0.111 C 
BRANCH  26  27
HETATM   27  C   UNK N   1      19.469  19.187   2.646  0.00  0.00     0.010 C 
BRANCH  27  28
HETATM   28  C   UNK N   1      20.079  17.799   2.564  0.00  0.00     0.000 C 
BRANCH  28  29
HETATM   29  C   UNK N   1      20.017  17.267   1.141  0.00  0.00     0.000 C 
BRANCH  29  30
HETATM   30  C   UNK N   1      20.730  15.929   1.046  0.00  0.00     0.000 C 
BRANCH  30  31
HETATM   31  C   UNK N   1      19.753  14.799   0.769  0.00  0.00     0.004 C 
BRANCH  31  32
HETATM   32  C   UNK N   1      19.571  13.944   2.014  0.00  0.00     0.027 C 
BRANCH  32  33
HETATM   33  C   UNK N   1      20.728  14.074   2.962  0.00  0.00    -0.031 C 
HETATM   34  C   UNK N   1      20.742  13.511   4.181  0.00  0.00    -0.031 C 
BRANCH  34  35
HETATM   35  C   UNK N   1      19.632  12.648   4.707  0.00  0.00     0.027 C 
BRANCH  35  36
HETATM   36  C   UNK N   1      20.144  11.307   5.207  0.00  0.00     0.004 C 
BRANCH  36  37
HETATM   37  C   UNK N   1      20.994  11.514   6.448  0.00  0.00     0.000 C 
BRANCH  37  38
HETATM   38  C   UNK N   1      22.458  11.273   6.136  0.00  0.00     0.000 C 
BRANCH  38  39
HETATM   39  C   UNK N   1      23.271  11.461   7.398  0.00  0.00     0.000 C 
BRANCH  39  40
HETATM   40  C   UNK N   1      22.486  12.296   8.384  0.00  0.00    -0.000 C 
BRANCH  40  41
HETATM   41  C   UNK N   1      23.347  12.569   9.598  0.00  0.00    -0.005 C 
HETATM   42  C   UNK N   1      22.524  12.386  10.854  0.00  0.00     0.005 C 
ENDBRANCH  40  41
ENDBRANCH  39  40
ENDBRANCH  38  39
ENDBRANCH  37  38
ENDBRANCH  36  37
ENDBRANCH  35  36
ENDBRANCH  34  35
ENDBRANCH  32  33
ENDBRANCH  31  32
ENDBRANCH  30  31
ENDBRANCH  29  30
ENDBRANCH  28  29
ENDBRANCH  27  28
ENDBRANCH  26  27
ENDBRANCH  24  26
ENDBRANCH  23  24
ENDBRANCH  22  23
ENDBRANCH   1  22
BRANCH   1  43
HETATM   43  C   UNK N   1      23.702  18.639   3.985  0.00  0.00     0.213 C 
BRANCH  43  44
HETATM   44  O   UNK N   1      23.418  18.596   5.328  0.00  0.00    -0.319 OA
BRANCH  44  45
HETATM   45  C   UNK N   1      22.332  17.947   5.816  0.00  0.00     0.258 C 
HETATM   46  O   UNK N   1      21.540  18.559   6.510  0.00  0.00    -0.265 OA
BRANCH  45  47
HETATM   47  C   UNK N   1      22.110  16.481   5.506  0.00  0.00     0.111 C 
BRANCH  47  48
HETATM   48  C   UNK N   1      22.745  15.511   6.497  0.00  0.00     0.010 C 
BRANCH  48  49
HETATM   49  C   UNK N   1      24.004  14.864   5.932  0.00  0.00     0.000 C 
BRANCH  49  50
HETATM   50  C   UNK N   1      25.091  14.702   6.989  0.00  0.00     0.000 C 
BRANCH  50  51
HETATM   51  C   UNK N   1      26.384  15.392   6.580  0.00  0.00     0.000 C 
BRANCH  51  52
HETATM   52  C   UNK N   1      26.136  16.406   5.474  0.00  0.00     0.004 C 
BRANCH  52  53
HETATM   53  C   UNK N   1      27.236  16.318   4.433  0.00  0.00     0.027 C 
BRANCH  53  54
HETATM   54  C   UNK N   1      27.331  14.925   3.894  0.00  0.00    -0.031 C 
HETATM   55  C   UNK N   1      26.656  14.518   2.811  0.00  0.00    -0.031 C 
BRANCH  55  56
HETATM   56  C   UNK N   1      25.726  15.406   2.044  0.00  0.00     0.027 C 
BRANCH  56  57
HETATM   57  C   UNK N   1      24.291  14.949   2.230  0.00  0.00     0.004 C 
BRANCH  57  58
HETATM   58  C   UNK N   1      24.121  13.528   1.727  0.00  0.00     0.000 C 
BRANCH  58  59
HETATM   59  C   UNK N   1      23.451  13.536   0.366  0.00  0.00     0.000 C 
BRANCH  59  60
HETATM   60  C   UNK N   1      22.598  12.294   0.217  0.00  0.00     0.000 C 
BRANCH  60  61
HETATM   61  C   UNK N   1      22.794  11.403   1.427  0.00  0.00    -0.000 C 
BRANCH  61  62
HETATM   62  C   UNK N   1      21.494  10.699   1.749  0.00  0.00    -0.005 C 
HETATM   63  C   UNK N   1      20.609  10.679   0.521  0.00  0.00     0.005 C 
ENDBRANCH  61  62
ENDBRANCH  60  61
ENDBRANCH  59  60
ENDBRANCH  58  59
ENDBRANCH  57  58
ENDBRANCH  56  57
ENDBRANCH  55  56
ENDBRANCH  53  54
ENDBRANCH  52  53
ENDBRANCH  51  52
ENDBRANCH  50  51
ENDBRANCH  49  50
ENDBRANCH  48  49
ENDBRANCH  47  48
ENDBRANCH  45  47
ENDBRANCH  44  45
ENDBRANCH  43  44
ENDBRANCH   1  43
TORSDOF 53
ENDMDL
MODEL 2
REMARK VINA RESULT:      -4.8      1.600      3.408
REMARK WARNING: 32 MAX_TORS EXCEEDED!!!
REMARK  53 active torsions:
REMARK  status: ('A' for Active; 'I' for Inactive)
REMARK    1  A    between atoms: O_1  and  C_55 
REMARK    2  A    between atoms: O_1  and  C_58 
REMARK    3  A    between atoms: O_2  and  C_56 
REMARK    4  A    between atoms: O_2  and  C_59 
REMARK    5  A    between atoms: O_3  and  C_57 
REMARK    6  A    between atoms: O_3  and  C_60 
REMARK    7  A    between atoms: C_7  and  C_8 
REMARK    8  A    between atoms: C_7  and  C_11 
REMARK    9  A    between atoms: C_8  and  C_16 
REMARK   10  A    between atoms: C_9  and  C_12 
REMARK   11  A    between atoms: C_9  and  C_21 
REMARK   12  A    between atoms: C_10  and  C_13 
REMARK   13  A    between atoms: C_10  and  C_22 
REMARK   14  A    between atoms: C_11  and  C_31 
REMARK   15  A    between atoms: C_12  and  C_23 
REMARK   16  A    between atoms: C_13  and  C_24 
REMARK   17  A    between atoms: C_14  and  C_15 
REMARK   18  A    between atoms: C_14  and  C_25 
REMARK   19  A    between atoms: C_15  and  C_26 
REMARK   20  A    between atoms: C_16  and  C_34 
REMARK   21  A    between atoms: C_17  and  C_19 
REMARK   22  A    between atoms: C_17  and  C_27 
REMARK   23  A    between atoms: C_18  and  C_20 
REMARK   24  A    between atoms: C_18  and  C_28 
REMARK   25  A    between atoms: C_19  and  C_29 
REMARK   26  A    between atoms: C_20  and  C_30 
REMARK   27  A    between atoms: C_21  and  C_32 
REMARK   28  A    between atoms: C_22  and  C_33 
REMARK   29  A    between atoms: C_23  and  C_35 
REMARK   30  A    between atoms: C_24  and  C_36 
REMARK   31  A    between atoms: C_25  and  C_37 
REMARK   32  A    between atoms: C_26  and  C_38 
REMARK   33  A    between atoms: C_27  and  C_39 
REMARK   34  A    between atoms: C_28  and  C_40 
REMARK   35  A    between atoms: C_29  and  C_41 
REMARK   36  A    between atoms: C_30  and  C_42 
REMARK   37  A    between atoms: C_31  and  C_43 
REMARK   38  A    between atoms: C_32  and  C_44 
REMARK   39  A    between atoms: C_33  and  C_45 
REMARK   40  A    between atoms: C_34  and  C_46 
REMARK   41  A    between atoms: C_35  and  C_51 
REMARK   42  A    between atoms: C_36  and  C_52 
REMARK   43  A    between atoms: C_37  and  C_47 
REMARK   44  A    between atoms: C_38  and  C_48 
REMARK   45  A    between atoms: C_39  and  C_49 
REMARK   46  A    between atoms: C_40  and  C_50 
REMARK   47  A    between atoms: C_41  and  C_53 
REMARK   48  A    between atoms: C_42  and  C_54 
REMARK   49  A    between atoms: C_43  and  C_58 
REMARK   50  A    between atoms: C_44  and  C_59 
REMARK   51  A    between atoms: C_45  and  C_60 
REMARK   52  A    between atoms: C_55  and  C_56 
REMARK   53  A    between atoms: C_55  and  C_57 
ROOT
HETATM    1  C   UNK N   1      24.043  19.915   4.053  0.00  0.00     0.180 C 
ENDROOT
BRANCH   1   2
HETATM    2  O   UNK N   1      25.365  19.536   4.073  0.00  0.00    -0.312 OA
BRANCH   2   3
HETATM    3  C   UNK N   1      26.260  20.054   4.950  0.00  0.00     0.259 C 
HETATM    4  O   UNK N   1      25.918  20.911   5.751  0.00  0.00    -0.265 OA
BRANCH   3   5
HETATM    5  C   UNK N   1      27.679  19.571   4.961  0.00  0.00     0.111 C 
BRANCH   5   6
HETATM    6  C   UNK N   1      28.082  19.021   6.322  0.00  0.00     0.010 C 
BRANCH   6   7
HETATM    7  C   UNK N   1      28.897  17.742   6.174  0.00  0.00     0.000 C 
BRANCH   7   8
HETATM    8  C   UNK N   1      29.558  17.646   4.805  0.00  0.00     0.000 C 
BRANCH   8   9
HETATM    9  C   UNK N   1      29.256  16.292   4.187  0.00  0.00     0.000 C 
BRANCH   9  10
HETATM   10  C   UNK N   1      29.615  15.188   5.157  0.00  0.00     0.004 C 
BRANCH  10  11
HETATM   11  C   UNK N   1      29.927  13.922   4.376  0.00  0.00     0.027 C 
BRANCH  11  12
HETATM   12  C   UNK N   1      31.307  13.417   4.687  0.00  0.00    -0.031 C 
HETATM   13  C   UNK N   1      32.423  13.889   4.111  0.00  0.00    -0.031 C 
BRANCH  13  14
HETATM   14  C   UNK N   1      32.405  14.971   3.083  0.00  0.00     0.027 C 
BRANCH  14  15
HETATM   15  C   UNK N   1      33.501  15.982   3.335  0.00  0.00     0.004 C 
BRANCH  15  16
HETATM   16  C   UNK N   1      32.866  17.222   3.929  0.00  0.00     0.000 C 
BRANCH  16  17
HETATM   17  C   UNK N   1      33.423  17.494   5.308  0.00  0.00     0.000 C 
BRANCH  17  18
HETATM   18  C   UNK N   1      32.566  16.764   6.322  0.00  0.00     0.000 C 
BRANCH  18  19
HETATM   19  C   UNK N   1      32.491  17.557   7.608  0.00  0.00    -0.000 C 
BRANCH  19  20
HETATM   20  C   UNK N   1      33.791  17.392   8.366  0.00  0.00    -0.005 C 
HETATM   21  C   UNK N   1      34.584  18.680   8.302  0.00  0.00     0.005 C 
ENDBRANCH  19  20
ENDBRANCH  18  19
ENDBRANCH  17  18
ENDBRANCH  16  17
ENDBRANCH  15  16
ENDBRANCH  14  15
ENDBRANCH  13  14
ENDBRANCH  11  12
ENDBRANCH  10  11
ENDBRANCH   9  10
ENDBRANCH   8   9
ENDBRANCH   7   8
ENDBRANCH   6   7
ENDBRANCH   5   6
ENDBRANCH   3   5
ENDBRANCH   2   3
ENDBRANCH   1   2
BRANCH   1  22
HETATM   22  C   UNK N   1      23.662  20.468   2.690  0.00  0.00     0.213 C 
BRANCH  22  23
HETATM   23  O   UNK N   1      22.384  20.984   2.711  0.00  0.00    -0.319 OA
BRANCH  23  24
HETATM   24  C   UNK N   1      21.389  20.543   1.897  0.00  0.00     0.258 C 
HETATM   25  O   UNK N   1      21.422  20.826   0.710  0.00  0.00    -0.265 OA
BRANCH  24  26
HETATM   26  C   UNK N   1      20.243  19.729   2.425  0.00  0.00     0.111 C 
BRANCH  26  27
HETATM   27  C   UNK N   1      20.330  18.294   1.932  0.00  0.00     0.010 C 
BRANCH  27  28
HETATM   28  C   UNK N   1      19.770  17.349   2.980  0.00  0.00     0.000 C 
BRANCH  28  29
HETATM   29  C   UNK N   1      20.314  15.943   2.783  0.00  0.00     0.000 C 
BRANCH  29  30
HETATM   30  C   UNK N   1      21.723  15.995   2.219  0.00  0.00     0.000 C 
BRANCH  30  31
HETATM   31  C   UNK N   1      22.338  14.609   2.135  0.00  0.00     0.004 C 
BRANCH  31  32
HETATM   32  C   UNK N   1      21.978  13.952   0.812  0.00  0.00     0.027 C 
BRANCH  32  33
HETATM   33  C   UNK N   1      23.186  13.413   0.101  0.00  0.00    -0.031 C 
HETATM   34  C   UNK N   1      23.609  12.146   0.235  0.00  0.00    -0.031 C 
BRANCH  34  35
HETATM   35  C   UNK N   1      22.895  11.118   1.064  0.00  0.00     0.027 C 
BRANCH  35  36
HETATM   36  C   UNK N   1      23.847  10.372   1.986  0.00  0.00     0.004 C 
BRANCH  36  37
HETATM   37  C   UNK N   1      23.716  10.911   3.401  0.00  0.00     0.000 C 
BRANCH  37  38
HETATM   38  C   UNK N   1      22.296  11.370   3.666  0.00  0.00     0.000 C 
BRANCH  38  39
HETATM   39  C   UNK N   1      21.930  11.048   5.098  0.00  0.00     0.000 C 
BRANCH  39  40
HETATM   40  C   UNK N   1      22.579   9.743   5.502  0.00  0.00    -0.000 C 
BRANCH  40  41
HETATM   41  C   UNK N   1      23.228   9.913   6.859  0.00  0.00    -0.005 C 
HETATM   42  C   UNK N   1      24.064   8.693   7.176  0.00  0.00     0.005 C 
ENDBRANCH  40  41
ENDBRANCH  39  40
ENDBRANCH  38  39
ENDBRANCH  37  38
ENDBRANCH  36  37
ENDBRANCH  35  36
ENDBRANCH  34  35
ENDBRANCH  32  33
ENDBRANCH  31  32
ENDBRANCH  30  31
ENDBRANCH  29  30
ENDBRANCH  28  29
ENDBRANCH  27  28
ENDBRANCH  26  27
ENDBRANCH  24  26
ENDBRANCH  23  24
ENDBRANCH  22  23
ENDBRANCH   1  22
BRANCH   1  43
HETATM   43  C   UNK N   1      23.189  18.696   4.334  0.00  0.00     0.213 C 
BRANCH  43  44
HETATM   44  O   UNK N   1      22.313  18.954   5.360  0.00  0.00    -0.319 OA
BRANCH  44  45
HETATM   45  C   UNK N   1      21.782  17.964   6.121  0.00  0.00     0.258 C 
HETATM   46  O   UNK N   1      21.059  18.260   7.056  0.00  0.00    -0.265 OA
BRANCH  45  47
HETATM   47  C   UNK N   1      22.089  16.513   5.815  0.00  0.00     0.111 C 
BRANCH  47  48
HETATM   48  C   UNK N   1      22.007  15.572   7.012  0.00  0.00     0.010 C 
BRANCH  48  49
HETATM   49  C   UNK N   1      22.694  14.240   6.736  0.00  0.00     0.000 C 
BRANCH  49  50
HETATM   50  C   UNK N   1      23.400  13.690   7.970  0.00  0.00     0.000 C 
BRANCH  50  51
HETATM   51  C   UNK N   1      24.800  13.190   7.644  0.00  0.00     0.000 C 
BRANCH  51  52
HETATM   52  C   UNK N   1      24.994  13.051   6.142  0.00  0.00     0.004 C 
BRANCH  52  53
HETATM   53  C   UNK N   1      26.280  13.734   5.719  0.00  0.00     0.027 C 
BRANCH  53  54
HETATM   54  C   UNK N   1      26.261  15.174   6.125  0.00  0.00    -0.031 C 
HETATM   55  C   UNK N   1      25.709  16.134   5.372  0.00  0.00    -0.031 C 
BRANCH  55  56
HETATM   56  C   UNK N   1      25.076  15.868   4.041  0.00  0.00     0.027 C 
BRANCH  56  57
HETATM   57  C   UNK N   1      25.938  16.430   2.927  0.00  0.00     0.004 C 
BRANCH  57  58
HETATM   58  C   UNK N   1      26.004  15.455   1.767  0.00  0.00     0.000 C 
BRANCH  58  59
HETATM   59  C   UNK N   1      27.071  14.409   2.028  0.00  0.00     0.000 C 
BRANCH  59  60
HETATM   60  C   UNK N   1      26.443  13.031   2.002  0.00  0.00     0.000 C 
BRANCH  60  61
HETATM   61  C   UNK N   1      27.495  11.994   2.337  0.00  0.00    -0.000 C 
BRANCH  61  62
HETATM   62  C   UNK N   1      28.587  12.028   1.290  0.00  0.00    -0.005 C 
HETATM   63  C   UNK N   1      28.544  10.755   0.471  0.00  0.00     0.005 C 
ENDBRANCH  61  62
ENDBRANCH  60  61
ENDBRANCH  59  60
ENDBRANCH  58  59
ENDBRANCH  57  58
ENDBRANCH  56  57
ENDBRANCH  55  56
ENDBRANCH  53  54
ENDBRANCH  52  53
ENDBRANCH  51  52
ENDBRANCH  50  51
ENDBRANCH  49  50
ENDBRANCH  48  49
ENDBRANCH  47  48
ENDBRANCH  45  47
ENDBRANCH  44  45
ENDBRANCH  43  44
ENDBRANCH   1  43
TORSDOF 53
ENDMDL
MODEL 3
REMARK VINA RESULT:      -4.8      5.485     11.728
REMARK WARNING: 32 MAX_TORS EXCEEDED!!!
REMARK  53 active torsions:
REMARK  status: ('A' for Active; 'I' for Inactive)
REMARK    1  A    between atoms: O_1  and  C_55 
REMARK    2  A    between atoms: O_1  and  C_58 
REMARK    3  A    between atoms: O_2  and  C_56 
REMARK    4  A    between atoms: O_2  and  C_59 
REMARK    5  A    between atoms: O_3  and  C_57 
REMARK    6  A    between atoms: O_3  and  C_60 
REMARK    7  A    between atoms: C_7  and  C_8 
REMARK    8  A    between atoms: C_7  and  C_11 
REMARK    9  A    between atoms: C_8  and  C_16 
REMARK   10  A    between atoms: C_9  and  C_12 
REMARK   11  A    between atoms: C_9  and  C_21 
REMARK   12  A    between atoms: C_10  and  C_13 
REMARK   13  A    between atoms: C_10  and  C_22 
REMARK   14  A    between atoms: C_11  and  C_31 
REMARK   15  A    between atoms: C_12  and  C_23 
REMARK   16  A    between atoms: C_13  and  C_24 
REMARK   17  A    between atoms: C_14  and  C_15 
REMARK   18  A    between atoms: C_14  and  C_25 
REMARK   19  A    between atoms: C_15  and  C_26 
REMARK   20  A    between atoms: C_16  and  C_34 
REMARK   21  A    between atoms: C_17  and  C_19 
REMARK   22  A    between atoms: C_17  and  C_27 
REMARK   23  A    between atoms: C_18  and  C_20 
REMARK   24  A    between atoms: C_18  and  C_28 
REMARK   25  A    between atoms: C_19  and  C_29 
REMARK   26  A    between atoms: C_20  and  C_30 
REMARK   27  A    between atoms: C_21  and  C_32 
REMARK   28  A    between atoms: C_22  and  C_33 
REMARK   29  A    between atoms: C_23  and  C_35 
REMARK   30  A    between atoms: C_24  and  C_36 
REMARK   31  A    between atoms: C_25  and  C_37 
REMARK   32  A    between atoms: C_26  and  C_38 
REMARK   33  A    between atoms: C_27  and  C_39 
REMARK   34  A    between atoms: C_28  and  C_40 
REMARK   35  A    between atoms: C_29  and  C_41 
REMARK   36  A    between atoms: C_30  and  C_42 
REMARK   37  A    between atoms: C_31  and  C_43 
REMARK   38  A    between atoms: C_32  and  C_44 
REMARK   39  A    between atoms: C_33  and  C_45 
REMARK   40  A    between atoms: C_34  and  C_46 
REMARK   41  A    between atoms: C_35  and  C_51 
REMARK   42  A    between atoms: C_36  and  C_52 
REMARK   43  A    between atoms: C_37  and  C_47 
REMARK   44  A    between atoms: C_38  and  C_48 
REMARK   45  A    between atoms: C_39  and  C_49 
REMARK   46  A    between atoms: C_40  and  C_50 
REMARK   47  A    between atoms: C_41  and  C_53 
REMARK   48  A    between atoms: C_42  and  C_54 
REMARK   49  A    between atoms: C_43  and  C_58 
REMARK   50  A    between atoms: C_44  and  C_59 
REMARK   51  A    between atoms: C_45  and  C_60 
REMARK   52  A    between atoms: C_55  and  C_56 
REMARK   53  A    between atoms: C_55  and  C_57 
ROOT
HETATM    1  C   UNK N   1      32.482  17.030   8.175  0.00  0.00     0.180 C 
ENDROOT
BRANCH   1   2
HETATM    2  O   UNK N   1      32.430  16.801   6.819  0.00  0.00    -0.312 OA
BRANCH   2   3
HETATM    3  C   UNK N   1      33.251  17.431   5.941  0.00  0.00     0.259 C 
HETATM    4  O   UNK N   1      34.293  17.942   6.323  0.00  0.00    -0.265 OA
BRANCH   3   5
HETATM    5  C   UNK N   1      32.899  17.494   4.485  0.00  0.00     0.111 C 
BRANCH   5   6
HETATM    6  C   UNK N   1      31.393  17.452   4.263  0.00  0.00     0.010 C 
BRANCH   6   7
HETATM    7  C   UNK N   1      30.987  16.188   3.517  0.00  0.00     0.000 C 
BRANCH   7   8
HETATM    8  C   UNK N   1      29.700  16.385   2.724  0.00  0.00     0.000 C 
BRANCH   8   9
HETATM    9  C   UNK N   1      28.655  15.388   3.194  0.00  0.00     0.000 C 
BRANCH   9  10
HETATM   10  C   UNK N   1      27.270  15.888   2.847  0.00  0.00     0.004 C 
BRANCH  10  11
HETATM   11  C   UNK N   1      26.253  15.194   3.737  0.00  0.00     0.027 C 
BRANCH  11  12
HETATM   12  C   UNK N   1      26.928  14.420   4.833  0.00  0.00    -0.031 C 
HETATM   13  C   UNK N   1      26.489  14.379   6.100  0.00  0.00    -0.031 C 
BRANCH  13  14
HETATM   14  C   UNK N   1      25.272  15.115   6.556  0.00  0.00     0.027 C 
BRANCH  14  15
HETATM   15  C   UNK N   1      24.274  14.177   7.196  0.00  0.00     0.004 C 
BRANCH  15  16
HETATM   16  C   UNK N   1      24.995  13.391   8.271  0.00  0.00     0.000 C 
BRANCH  16  17
HETATM   17  C   UNK N   1      24.101  12.302   8.822  0.00  0.00     0.000 C 
BRANCH  17  18
HETATM   18  C   UNK N   1      23.932  12.531  10.310  0.00  0.00     0.000 C 
BRANCH  18  19
HETATM   19  C   UNK N   1      22.513  12.211  10.728  0.00  0.00    -0.000 C 
BRANCH  19  20
HETATM   20  C   UNK N   1      21.573  12.562   9.594  0.00  0.00    -0.005 C 
HETATM   21  C   UNK N   1      20.991  13.940   9.824  0.00  0.00     0.005 C 
ENDBRANCH  19  20
ENDBRANCH  18  19
ENDBRANCH  17  18
ENDBRANCH  16  17
ENDBRANCH  15  16
ENDBRANCH  14  15
ENDBRANCH  13  14
ENDBRANCH  11  12
ENDBRANCH  10  11
ENDBRANCH   9  10
ENDBRANCH   8   9
ENDBRANCH   7   8
ENDBRANCH   6   7
ENDBRANCH   5   6
ENDBRANCH   3   5
ENDBRANCH   2   3
ENDBRANCH   1   2
BRANCH   1  22
HETATM   22  C   UNK N   1      31.083  17.194   8.746  0.00  0.00     0.213 C 
BRANCH  22  23
HETATM   23  O   UNK N   1      30.225  17.713   7.801  0.00  0.00    -0.319 OA
BRANCH  23  24
HETATM   24  C   UNK N   1      28.961  18.119   8.085  0.00  0.00     0.258 C 
HETATM   25  O   UNK N   1      28.763  18.797   9.080  0.00  0.00    -0.265 OA
BRANCH  24  26
HETATM   26  C   UNK N   1      27.799  17.742   7.212  0.00  0.00     0.111 C 
BRANCH  26  27
HETATM   27  C   UNK N   1      28.165  17.871   5.743  0.00  0.00     0.010 C 
BRANCH  27  28
HETATM   28  C   UNK N   1      28.013  19.313   5.292  0.00  0.00     0.000 C 
BRANCH  28  29
HETATM   29  C   UNK N   1      27.393  19.382   3.906  0.00  0.00     0.000 C 
BRANCH  29  30
HETATM   30  C   UNK N   1      26.351  20.486   3.847  0.00  0.00     0.000 C 
BRANCH  30  31
HETATM   31  C   UNK N   1      25.047  19.985   3.249  0.00  0.00     0.004 C 
BRANCH  31  32
HETATM   32  C   UNK N   1      24.784  18.553   3.687  0.00  0.00     0.027 C 
BRANCH  32  33
HETATM   33  C   UNK N   1      23.975  18.487   4.951  0.00  0.00    -0.031 C 
HETATM   34  C   UNK N   1      23.052  17.540   5.181  0.00  0.00    -0.031 C 
BRANCH  34  35
HETATM   35  C   UNK N   1      22.765  16.415   4.230  0.00  0.00     0.027 C 
BRANCH  35  36
HETATM   36  C   UNK N   1      21.662  15.504   4.744  0.00  0.00     0.004 C 
BRANCH  36  37
HETATM   37  C   UNK N   1      20.465  15.573   3.811  0.00  0.00     0.000 C 
BRANCH  37  38
HETATM   38  C   UNK N   1      19.828  16.948   3.863  0.00  0.00     0.000 C 
BRANCH  38  39
HETATM   39  C   UNK N   1      19.740  17.507   2.461  0.00  0.00     0.000 C 
BRANCH  39  40
HETATM   40  C   UNK N   1      20.859  18.501   2.243  0.00  0.00    -0.000 C 
BRANCH  40  41
HETATM   41  C   UNK N   1      20.299  19.904   2.339  0.00  0.00    -0.005 C 
HETATM   42  C   UNK N   1      21.415  20.873   2.659  0.00  0.00     0.005 C 
ENDBRANCH  40  41
ENDBRANCH  39  40
ENDBRANCH  38  39
ENDBRANCH  37  38
ENDBRANCH  36  37
ENDBRANCH  35  36
ENDBRANCH  34  35
ENDBRANCH  32  33
ENDBRANCH  31  32
ENDBRANCH  30  31
ENDBRANCH  29  30
ENDBRANCH  28  29
ENDBRANCH  27  28
ENDBRANCH  26  27
ENDBRANCH  24  26
ENDBRANCH  23  24
ENDBRANCH  22  23
ENDBRANCH   1  22
BRANCH   1  43
HETATM   43  C   UNK N   1      33.136  15.838   8.840  0.00  0.00     0.213 C 
BRANCH  43  44
HETATM   44  O   UNK N   1      34.435  16.133   9.177  0.00  0.00    -0.319 OA
BRANCH  44  45
HETATM   45  C   UNK N   1      34.870  16.108  10.461  0.00  0.00     0.258 C 
HETATM   46  O   UNK N   1      35.279  17.138  10.967  0.00  0.00    -0.265 OA
BRANCH  45  47
HETATM   47  C   UNK N   1      34.854  14.816  11.252  0.00  0.00     0.111 C 
BRANCH  47  48
HETATM   48  C   UNK N   1      36.203  14.114  11.363  0.00  0.00     0.010 C 
BRANCH  48  49
HETATM   49  C   UNK N   1      36.177  12.728  10.729  0.00  0.00     0.000 C 
BRANCH  49  50
HETATM   50  C   UNK N   1      35.047  11.866  11.278  0.00  0.00     0.000 C 
BRANCH  50  51
HETATM   51  C   UNK N   1      35.560  10.539  11.820  0.00  0.00     0.000 C 
BRANCH  51  52
HETATM   52  C   UNK N   1      34.434   9.732  12.446  0.00  0.00     0.004 C 
BRANCH  52  53
HETATM   53  C   UNK N   1      34.579   9.723  13.956  0.00  0.00     0.027 C 
BRANCH  53  54
HETATM   54  C   UNK N   1      33.704  10.771  14.568  0.00  0.00    -0.031 C 
HETATM   55  C   UNK N   1      34.182  11.928  15.045  0.00  0.00    -0.031 C 
BRANCH  55  56
HETATM   56  C   UNK N   1      35.638  12.280  15.032  0.00  0.00     0.027 C 
BRANCH  56  57
HETATM   57  C   UNK N   1      35.950  13.261  16.146  0.00  0.00     0.004 C 
BRANCH  57  58
HETATM   58  C   UNK N   1      34.843  13.251  17.184  0.00  0.00     0.000 C 
BRANCH  58  59
HETATM   59  C   UNK N   1      35.398  12.837  18.533  0.00  0.00     0.000 C 
BRANCH  59  60
HETATM   60  C   UNK N   1      34.968  11.418  18.841  0.00  0.00     0.000 C 
BRANCH  60  61
HETATM   61  C   UNK N   1      36.135  10.659  19.437  0.00  0.00    -0.000 C 
BRANCH  61  62
HETATM   62  C   UNK N   1      36.773   9.797  18.369  0.00  0.00    -0.005 C 
HETATM   63  C   UNK N   1      35.704   9.267  17.438  0.00  0.00     0.005 C 
ENDBRANCH  61  62
ENDBRANCH  60  61
ENDBRANCH  59  60
ENDBRANCH  58  59
ENDBRANCH  57  58
ENDBRANCH  56  57
ENDBRANCH  55  56
ENDBRANCH  53  54
ENDBRANCH  52  53
ENDBRANCH  51  52
ENDBRANCH  50  51
ENDBRANCH  49  50
ENDBRANCH  48  49
ENDBRANCH  47  48
ENDBRANCH  45  47
ENDBRANCH  44  45
ENDBRANCH  43  44
ENDBRANCH   1  43
TORSDOF 53
ENDMDL
MODEL 4
REMARK VINA RESULT:      -4.8      1.427      4.582
REMARK WARNING: 32 MAX_TORS EXCEEDED!!!
REMARK  53 active torsions:
REMARK  status: ('A' for Active; 'I' for Inactive)
REMARK    1  A    between atoms: O_1  and  C_55 
REMARK    2  A    between atoms: O_1  and  C_58 
REMARK    3  A    between atoms: O_2  and  C_56 
REMARK    4  A    between atoms: O_2  and  C_59 
REMARK    5  A    between atoms: O_3  and  C_57 
REMARK    6  A    between atoms: O_3  and  C_60 
REMARK    7  A    between atoms: C_7  and  C_8 
REMARK    8  A    between atoms: C_7  and  C_11 
REMARK    9  A    between atoms: C_8  and  C_16 
REMARK   10  A    between atoms: C_9  and  C_12 
REMARK   11  A    between atoms: C_9  and  C_21 
REMARK   12  A    between atoms: C_10  and  C_13 
REMARK   13  A    between atoms: C_10  and  C_22 
REMARK   14  A    between atoms: C_11  and  C_31 
REMARK   15  A    between atoms: C_12  and  C_23 
REMARK   16  A    between atoms: C_13  and  C_24 
REMARK   17  A    between atoms: C_14  and  C_15 
REMARK   18  A    between atoms: C_14  and  C_25 
REMARK   19  A    between atoms: C_15  and  C_26 
REMARK   20  A    between atoms: C_16  and  C_34 
REMARK   21  A    between atoms: C_17  and  C_19 
REMARK   22  A    between atoms: C_17  and  C_27 
REMARK   23  A    between atoms: C_18  and  C_20 
REMARK   24  A    between atoms: C_18  and  C_28 
REMARK   25  A    between atoms: C_19  and  C_29 
REMARK   26  A    between atoms: C_20  and  C_30 
REMARK   27  A    between atoms: C_21  and  C_32 
REMARK   28  A    between atoms: C_22  and  C_33 
REMARK   29  A    between atoms: C_23  and  C_35 
REMARK   30  A    between atoms: C_24  and  C_36 
REMARK   31  A    between atoms: C_25  and  C_37 
REMARK   32  A    between atoms: C_26  and  C_38 
REMARK   33  A    between atoms: C_27  and  C_39 
REMARK   34  A    between atoms: C_28  and  C_40 
REMARK   35  A    between atoms: C_29  and  C_41 
REMARK   36  A    between atoms: C_30  and  C_42 
REMARK   37  A    between atoms: C_31  and  C_43 
REMARK   38  A    between atoms: C_32  and  C_44 
REMARK   39  A    between atoms: C_33  and  C_45 
REMARK   40  A    between atoms: C_34  and  C_46 
REMARK   41  A    between atoms: C_35  and  C_51 
REMARK   42  A    between atoms: C_36  and  C_52 
REMARK   43  A    between atoms: C_37  and  C_47 
REMARK   44  A    between atoms: C_38  and  C_48 
REMARK   45  A    between atoms: C_39  and  C_49 
REMARK   46  A    between atoms: C_40  and  C_50 
REMARK   47  A    between atoms: C_41  and  C_53 
REMARK   48  A    between atoms: C_42  and  C_54 
REMARK   49  A    between atoms: C_43  and  C_58 
REMARK   50  A    between atoms: C_44  and  C_59 
REMARK   51  A    between atoms: C_45  and  C_60 
REMARK   52  A    between atoms: C_55  and  C_56 
REMARK   53  A    between atoms: C_55  and  C_57 
ROOT
HETATM    1  C   UNK N   1      24.852  20.051   3.874  0.00  0.00     0.180 C 
ENDROOT
BRANCH   1   2
HETATM    2  O   UNK N   1      26.086  20.628   4.076  0.00  0.00    -0.312 OA
BRANCH   2   3
HETATM    3  C   UNK N   1      26.666  20.699   5.299  0.00  0.00     0.259 C 
HETATM    4  O   UNK N   1      26.157  21.362   6.189  0.00  0.00    -0.265 OA
BRANCH   3   5
HETATM    5  C   UNK N   1      27.934  19.951   5.581  0.00  0.00     0.111 C 
BRANCH   5   6
HETATM    6  C   UNK N   1      27.702  18.772   6.517  0.00  0.00     0.010 C 
BRANCH   6   7
HETATM    7  C   UNK N   1      28.736  18.752   7.635  0.00  0.00     0.000 C 
BRANCH   7   8
HETATM    8  C   UNK N   1      28.535  17.569   8.574  0.00  0.00     0.000 C 
BRANCH   8   9
HETATM    9  C   UNK N   1      29.866  17.174   9.190  0.00  0.00     0.000 C 
BRANCH   9  10
HETATM   10  C   UNK N   1      30.997  17.878   8.473  0.00  0.00     0.004 C 
BRANCH  10  11
HETATM   11  C   UNK N   1      32.197  16.948   8.406  0.00  0.00     0.027 C 
BRANCH  11  12
HETATM   12  C   UNK N   1      31.946  15.680   9.171  0.00  0.00    -0.031 C 
HETATM   13  C   UNK N   1      32.509  14.500   8.869  0.00  0.00    -0.031 C 
BRANCH  13  14
HETATM   14  C   UNK N   1      33.448  14.325   7.722  0.00  0.00     0.027 C 
BRANCH  14  15
HETATM   15  C   UNK N   1      32.840  13.452   6.647  0.00  0.00     0.004 C 
BRANCH  15  16
HETATM   16  C   UNK N   1      32.578  14.318   5.434  0.00  0.00     0.000 C 
BRANCH  16  17
HETATM   17  C   UNK N   1      31.132  14.209   5.006  0.00  0.00     0.000 C 
BRANCH  17  18
HETATM   18  C   UNK N   1      30.313  15.175   5.838  0.00  0.00     0.000 C 
BRANCH  18  19
HETATM   19  C   UNK N   1      29.161  15.719   5.023  0.00  0.00    -0.000 C 
BRANCH  19  20
HETATM   20  C   UNK N   1      29.688  16.762   4.059  0.00  0.00    -0.005 C 
HETATM   21  C   UNK N   1      30.758  17.588   4.738  0.00  0.00     0.005 C 
ENDBRANCH  19  20
ENDBRANCH  18  19
ENDBRANCH  17  18
ENDBRANCH  16  17
ENDBRANCH  15  16
ENDBRANCH  14  15
ENDBRANCH  13  14
ENDBRANCH  11  12
ENDBRANCH  10  11
ENDBRANCH   9  10
ENDBRANCH   8   9
ENDBRANCH   7   8
ENDBRANCH   6   7
ENDBRANCH   5   6
ENDBRANCH   3   5
ENDBRANCH   2   3
ENDBRANCH   1   2
BRANCH   1  22
HETATM   22  C   UNK N   1      24.164  20.661   2.665  0.00  0.00     0.213 C 
BRANCH  22  23
HETATM   23  O   UNK N   1      22.920  21.149   3.004  0.00  0.00    -0.319 OA
BRANCH  23  24
HETATM   24  C   UNK N   1      21.760  20.633   2.520  0.00  0.00     0.258 C 
HETATM   25  O   UNK N   1      21.598  20.562   1.313  0.00  0.00    -0.265 OA
BRANCH  24  26
HETATM   26  C   UNK N   1      20.668  20.160   3.435  0.00  0.00     0.111 C 
BRANCH  26  27
HETATM   27  C   UNK N   1      19.724  19.219   2.705  0.00  0.00     0.010 C 
BRANCH  27  28
HETATM   28  C   UNK N   1      19.884  17.806   3.238  0.00  0.00     0.000 C 
BRANCH  28  29
HETATM   29  C   UNK N   1      20.671  16.947   2.260  0.00  0.00     0.000 C 
BRANCH  29  30
HETATM   30  C   UNK N   1      19.934  16.844   0.936  0.00  0.00     0.000 C 
BRANCH  30  31
HETATM   31  C   UNK N   1      19.576  15.403   0.612  0.00  0.00     0.004 C 
BRANCH  31  32
HETATM   32  C   UNK N   1      20.354  14.453   1.510  0.00  0.00     0.027 C 
BRANCH  32  33
HETATM   33  C   UNK N   1      19.790  13.062   1.483  0.00  0.00    -0.031 C 
HETATM   34  C   UNK N   1      20.554  11.964   1.364  0.00  0.00    -0.031 C 
BRANCH  34  35
HETATM   35  C   UNK N   1      22.053  12.003   1.299  0.00  0.00     0.027 C 
BRANCH  35  36
HETATM   36  C   UNK N   1      22.548  12.769   0.083  0.00  0.00     0.004 C 
BRANCH  36  37
HETATM   37  C   UNK N   1      23.957  13.276   0.337  0.00  0.00     0.000 C 
BRANCH  37  38
HETATM   38  C   UNK N   1      24.721  12.306   1.215  0.00  0.00     0.000 C 
BRANCH  38  39
HETATM   39  C   UNK N   1      25.699  13.078   2.073  0.00  0.00     0.000 C 
BRANCH  39  40
HETATM   40  C   UNK N   1      25.157  14.467   2.329  0.00  0.00    -0.000 C 
BRANCH  40  41
HETATM   41  C   UNK N   1      26.235  15.483   2.018  0.00  0.00    -0.005 C 
HETATM   42  C   UNK N   1      27.566  14.779   1.872  0.00  0.00     0.005 C 
ENDBRANCH  40  41
ENDBRANCH  39  40
ENDBRANCH  38  39
ENDBRANCH  37  38
ENDBRANCH  36  37
ENDBRANCH  35  36
ENDBRANCH  34  35
ENDBRANCH  32  33
ENDBRANCH  31  32
ENDBRANCH  30  31
ENDBRANCH  29  30
ENDBRANCH  28  29
ENDBRANCH  27  28
ENDBRANCH  26  27
ENDBRANCH  24  26
ENDBRANCH  23  24
ENDBRANCH  22  23
ENDBRANCH   1  22
BRANCH   1  43
HETATM   43  C   UNK N   1      25.050  18.571   3.619  0.00  0.00     0.213 C 
BRANCH  43  44
HETATM   44  O   UNK N   1      23.909  17.876   3.938  0.00  0.00    -0.319 OA
BRANCH  44  45
HETATM   45  C   UNK N   1      23.901  16.888   4.867  0.00  0.00     0.258 C 
HETATM   46  O   UNK N   1      24.923  16.650   5.485  0.00  0.00    -0.265 OA
BRANCH  45  47
HETATM   47  C   UNK N   1      22.640  16.089   5.127  0.00  0.00     0.111 C 
BRANCH  47  48
HETATM   48  C   UNK N   1      22.348  15.809   6.597  0.00  0.00     0.010 C 
BRANCH  48  49
HETATM   49  C   UNK N   1      21.113  14.934   6.774  0.00  0.00     0.000 C 
BRANCH  49  50
HETATM   50  C   UNK N   1      20.532  14.483   5.440  0.00  0.00     0.000 C 
BRANCH  50  51
HETATM   51  C   UNK N   1      20.322  12.976   5.396  0.00  0.00     0.000 C 
BRANCH  51  52
HETATM   52  C   UNK N   1      20.937  12.304   6.613  0.00  0.00     0.004 C 
BRANCH  52  53
HETATM   53  C   UNK N   1      21.707  11.067   6.189  0.00  0.00     0.027 C 
BRANCH  53  54
HETATM   54  C   UNK N   1      22.349  11.287   4.855  0.00  0.00    -0.031 C 
HETATM   55  C   UNK N   1      23.648  11.578   4.714  0.00  0.00    -0.031 C 
BRANCH  55  56
HETATM   56  C   UNK N   1      24.583  11.735   5.874  0.00  0.00     0.027 C 
BRANCH  56  57
HETATM   57  C   UNK N   1      25.062  13.171   5.972  0.00  0.00     0.004 C 
BRANCH  57  58
HETATM   58  C   UNK N   1      25.198  13.584   7.425  0.00  0.00     0.000 C 
BRANCH  58  59
HETATM   59  C   UNK N   1      24.455  12.606   8.315  0.00  0.00     0.000 C 
BRANCH  59  60
HETATM   60  C   UNK N   1      23.433  13.355   9.144  0.00  0.00     0.000 C 
BRANCH  60  61
HETATM   61  C   UNK N   1      23.125  12.562  10.398  0.00  0.00    -0.000 C 
BRANCH  61  62
HETATM   62  C   UNK N   1      21.644  12.258  10.450  0.00  0.00    -0.005 C 
HETATM   63  C   UNK N   1      20.857  13.503  10.098  0.00  0.00     0.005 C 
ENDBRANCH  61  62
ENDBRANCH  60  61
ENDBRANCH  59  60
ENDBRANCH  58  59
ENDBRANCH  57  58
ENDBRANCH  56  57
ENDBRANCH  55  56
ENDBRANCH  53  54
ENDBRANCH  52  53
ENDBRANCH  51  52
ENDBRANCH  50  51
ENDBRANCH  49  50
ENDBRANCH  48  49
ENDBRANCH  47  48
ENDBRANCH  45  47
ENDBRANCH  44  45
ENDBRANCH  43  44
ENDBRANCH   1  43
TORSDOF 53
ENDMDL
MODEL 5
REMARK VINA RESULT:      -4.7      6.951     12.320
REMARK WARNING: 32 MAX_TORS EXCEEDED!!!
REMARK  53 active torsions:
REMARK  status: ('A' for Active; 'I' for Inactive)
REMARK    1  A    between atoms: O_1  and  C_55 
REMARK    2  A    between atoms: O_1  and  C_58 
REMARK    3  A    between atoms: O_2  and  C_56 
REMARK    4  A    between atoms: O_2  and  C_59 
REMARK    5  A    between atoms: O_3  and  C_57 
REMARK    6  A    between atoms: O_3  and  C_60 
REMARK    7  A    between atoms: C_7  and  C_8 
REMARK    8  A    between atoms: C_7  and  C_11 
REMARK    9  A    between atoms: C_8  and  C_16 
REMARK   10  A    between atoms: C_9  and  C_12 
REMARK   11  A    between atoms: C_9  and  C_21 
REMARK   12  A    between atoms: C_10  and  C_13 
REMARK   13  A    between atoms: C_10  and  C_22 
REMARK   14  A    between atoms: C_11  and  C_31 
REMARK   15  A    between atoms: C_12  and  C_23 
REMARK   16  A    between atoms: C_13  and  C_24 
REMARK   17  A    between atoms: C_14  and  C_15 
REMARK   18  A    between atoms: C_14  and  C_25 
REMARK   19  A    between atoms: C_15  and  C_26 
REMARK   20  A    between atoms: C_16  and  C_34 
REMARK   21  A    between atoms: C_17  and  C_19 
REMARK   22  A    between atoms: C_17  and  C_27 
REMARK   23  A    between atoms: C_18  and  C_20 
REMARK   24  A    between atoms: C_18  and  C_28 
REMARK   25  A    between atoms: C_19  and  C_29 
REMARK   26  A    between atoms: C_20  and  C_30 
REMARK   27  A    between atoms: C_21  and  C_32 
REMARK   28  A    between atoms: C_22  and  C_33 
REMARK   29  A    between atoms: C_23  and  C_35 
REMARK   30  A    between atoms: C_24  and  C_36 
REMARK   31  A    between atoms: C_25  and  C_37 
REMARK   32  A    between atoms: C_26  and  C_38 
REMARK   33  A    between atoms: C_27  and  C_39 
REMARK   34  A    between atoms: C_28  and  C_40 
REMARK   35  A    between atoms: C_29  and  C_41 
REMARK   36  A    between atoms: C_30  and  C_42 
REMARK   37  A    between atoms: C_31  and  C_43 
REMARK   38  A    between atoms: C_32  and  C_44 
REMARK   39  A    between atoms: C_33  and  C_45 
REMARK   40  A    between atoms: C_34  and  C_46 
REMARK   41  A    between atoms: C_35  and  C_51 
REMARK   42  A    between atoms: C_36  and  C_52 
REMARK   43  A    between atoms: C_37  and  C_47 
REMARK   44  A    between atoms: C_38  and  C_48 
REMARK   45  A    between atoms: C_39  and  C_49 
REMARK   46  A    between atoms: C_40  and  C_50 
REMARK   47  A    between atoms: C_41  and  C_53 
REMARK   48  A    between atoms: C_42  and  C_54 
REMARK   49  A    between atoms: C_43  and  C_58 
REMARK   50  A    between atoms: C_44  and  C_59 
REMARK   51  A    between atoms: C_45  and  C_60 
REMARK   52  A    between atoms: C_55  and  C_56 
REMARK   53  A    between atoms: C_55  and  C_57 
ROOT
HETATM    1  C   UNK N   1      35.758  15.597  11.142  0.00  0.00     0.180 C 
ENDROOT
BRANCH   1   2
HETATM    2  O   UNK N   1      35.096  14.781  12.031  0.00  0.00    -0.312 OA
BRANCH   2   3
HETATM    3  C   UNK N   1      35.741  14.075  12.992  0.00  0.00     0.259 C 
HETATM    4  O   UNK N   1      36.429  14.646  13.825  0.00  0.00    -0.265 OA
BRANCH   3   5
HETATM    5  C   UNK N   1      35.607  12.583  13.056  0.00  0.00     0.111 C 
BRANCH   5   6
HETATM    6  C   UNK N   1      34.563  12.150  14.077  0.00  0.00     0.010 C 
BRANCH   6   7
HETATM    7  C   UNK N   1      34.048  10.750  13.770  0.00  0.00     0.000 C 
BRANCH   7   8
HETATM    8  C   UNK N   1      34.061  10.455  12.275  0.00  0.00     0.000 C 
BRANCH   8   9
HETATM    9  C   UNK N   1      34.625   9.066  12.035  0.00  0.00     0.000 C 
BRANCH   9  10
HETATM   10  C   UNK N   1      35.348   8.579  13.271  0.00  0.00     0.004 C 
BRANCH  10  11
HETATM   11  C   UNK N   1      36.824   8.412  12.951  0.00  0.00     0.027 C 
BRANCH  11  12
HETATM   12  C   UNK N   1      37.636   9.536  13.527  0.00  0.00    -0.031 C 
HETATM   13  C   UNK N   1      38.127   9.541  14.776  0.00  0.00    -0.031 C 
BRANCH  13  14
HETATM   14  C   UNK N   1      37.907   8.416  15.733  0.00  0.00     0.027 C 
BRANCH  14  15
HETATM   15  C   UNK N   1      37.320   8.914  17.035  0.00  0.00     0.004 C 
BRANCH  15  16
HETATM   16  C   UNK N   1      36.384  10.061  16.717  0.00  0.00     0.000 C 
BRANCH  16  17
HETATM   17  C   UNK N   1      34.959   9.697  17.068  0.00  0.00     0.000 C 
BRANCH  17  18
HETATM   18  C   UNK N   1      34.774   9.875  18.560  0.00  0.00     0.000 C 
BRANCH  18  19
HETATM   19  C   UNK N   1      35.191  11.270  18.974  0.00  0.00    -0.000 C 
BRANCH  19  20
HETATM   20  C   UNK N   1      36.136  11.172  20.154  0.00  0.00    -0.005 C 
HETATM   21  C   UNK N   1      36.045   9.791  20.766  0.00  0.00     0.005 C 
ENDBRANCH  19  20
ENDBRANCH  18  19
ENDBRANCH  17  18
ENDBRANCH  16  17
ENDBRANCH  15  16
ENDBRANCH  14  15
ENDBRANCH  13  14
ENDBRANCH  11  12
ENDBRANCH  10  11
ENDBRANCH   9  10
ENDBRANCH   8   9
ENDBRANCH   7   8
ENDBRANCH   6   7
ENDBRANCH   5   6
ENDBRANCH   3   5
ENDBRANCH   2   3
ENDBRANCH   1   2
BRANCH   1  22
HETATM   22  C   UNK N   1      36.808  14.815  10.372  0.00  0.00     0.213 C 
BRANCH  22  23
HETATM   23  O   UNK N   1      36.241  14.149   9.307  0.00  0.00    -0.319 OA
BRANCH  23  24
HETATM   24  C   UNK N   1      35.869  12.844   9.357  0.00  0.00     0.258 C 
HETATM   25  O   UNK N   1      36.725  11.986   9.496  0.00  0.00    -0.265 OA
BRANCH  24  26
HETATM   26  C   UNK N   1      34.431  12.430   9.232  0.00  0.00     0.111 C 
BRANCH  26  27
HETATM   27  C   UNK N   1      34.211  11.626   7.961  0.00  0.00     0.010 C 
BRANCH  27  28
HETATM   28  C   UNK N   1      33.893  12.557   6.804  0.00  0.00     0.000 C 
BRANCH  28  29
HETATM   29  C   UNK N   1      32.973  13.681   7.254  0.00  0.00     0.000 C 
BRANCH  29  30
HETATM   30  C   UNK N   1      32.334  14.354   6.052  0.00  0.00     0.000 C 
BRANCH  30  31
HETATM   31  C   UNK N   1      33.074  14.014   4.769  0.00  0.00     0.004 C 
BRANCH  31  32
HETATM   32  C   UNK N   1      33.915  15.198   4.318  0.00  0.00     0.027 C 
BRANCH  32  33
HETATM   33  C   UNK N   1      33.358  15.849   3.084  0.00  0.00    -0.031 C 
HETATM   34  C   UNK N   1      32.521  16.898   3.125  0.00  0.00    -0.031 C 
BRANCH  34  35
HETATM   35  C   UNK N   1      32.094  17.567   4.399  0.00  0.00     0.027 C 
BRANCH  35  36
HETATM   36  C   UNK N   1      30.580  17.611   4.536  0.00  0.00     0.004 C 
BRANCH  36  37
HETATM   37  C   UNK N   1      29.944  16.723   3.481  0.00  0.00     0.000 C 
BRANCH  37  38
HETATM   38  C   UNK N   1      28.681  16.080   4.018  0.00  0.00     0.000 C 
BRANCH  38  39
HETATM   39  C   UNK N   1      29.046  14.811   4.757  0.00  0.00     0.000 C 
BRANCH  39  40
HETATM   40  C   UNK N   1      29.495  13.762   3.766  0.00  0.00    -0.000 C 
BRANCH  40  41
HETATM   41  C   UNK N   1      29.513  12.411   4.449  0.00  0.00    -0.005 C 
HETATM   42  C   UNK N   1      28.100  11.881   4.557  0.00  0.00     0.005 C 
ENDBRANCH  40  41
ENDBRANCH  39  40
ENDBRANCH  38  39
ENDBRANCH  37  38
ENDBRANCH  36  37
ENDBRANCH  35  36
ENDBRANCH  34  35
ENDBRANCH  32  33
ENDBRANCH  31  32
ENDBRANCH  30  31
ENDBRANCH  29  30
ENDBRANCH  28  29
ENDBRANCH  27  28
ENDBRANCH  26  27
ENDBRANCH  24  26
ENDBRANCH  23  24
ENDBRANCH  22  23
ENDBRANCH   1  22
BRANCH   1  43
HETATM   43  C   UNK N   1      34.751  16.150  10.156  0.00  0.00     0.213 C 
BRANCH  43  44
HETATM   44  O   UNK N   1      35.086  17.435   9.802  0.00  0.00    -0.319 OA
BRANCH  44  45
HETATM   45  C   UNK N   1      34.607  18.022   8.677  0.00  0.00     0.258 C 
HETATM   46  O   UNK N   1      35.055  19.103   8.338  0.00  0.00    -0.265 OA
BRANCH  45  47
HETATM   47  C   UNK N   1      33.526  17.346   7.860  0.00  0.00     0.111 C 
BRANCH  47  48
HETATM   48  C   UNK N   1      32.197  17.157   8.583  0.00  0.00     0.010 C 
BRANCH  48  49
HETATM   49  C   UNK N   1      31.217  18.283   8.276  0.00  0.00     0.000 C 
BRANCH  49  50
HETATM   50  C   UNK N   1      30.244  18.528   9.424  0.00  0.00     0.000 C 
BRANCH  50  51
HETATM   51  C   UNK N   1      28.797  18.371   8.980  0.00  0.00     0.000 C 
BRANCH  51  52
HETATM   52  C   UNK N   1      28.705  17.566   7.693  0.00  0.00     0.004 C 
BRANCH  52  53
HETATM   53  C   UNK N   1      27.755  18.245   6.724  0.00  0.00     0.027 C 
BRANCH  53  54
HETATM   54  C   UNK N   1      27.826  19.731   6.882  0.00  0.00    -0.031 C 
HETATM   55  C   UNK N   1      27.629  20.580   5.865  0.00  0.00    -0.031 C 
BRANCH  55  56
HETATM   56  C   UNK N   1      27.340  20.129   4.466  0.00  0.00     0.027 C 
BRANCH  56  57
HETATM   57  C   UNK N   1      25.915  20.482   4.085  0.00  0.00     0.004 C 
BRANCH  57  58
HETATM   58  C   UNK N   1      25.350  19.442   3.135  0.00  0.00     0.000 C 
BRANCH  58  59
HETATM   59  C   UNK N   1      25.796  18.055   3.558  0.00  0.00     0.000 C 
BRANCH  59  60
HETATM   60  C   UNK N   1      24.743  17.439   4.455  0.00  0.00     0.000 C 
BRANCH  60  61
HETATM   61  C   UNK N   1      25.100  15.992   4.726  0.00  0.00    -0.000 C 
BRANCH  61  62
HETATM   62  C   UNK N   1      24.772  15.653   6.164  0.00  0.00    -0.005 C 
HETATM   63  C   UNK N   1      25.964  14.983   6.812  0.00  0.00     0.005 C 
ENDBRANCH  61  62
ENDBRANCH  60  61
ENDBRANCH  59  60
ENDBRANCH  58  59
ENDBRANCH  57  58
ENDBRANCH  56  57
ENDBRANCH  55  56
ENDBRANCH  53  54
ENDBRANCH  52  53
ENDBRANCH  51  52
ENDBRANCH  50  51
ENDBRANCH  49  50
ENDBRANCH  48  49
ENDBRANCH  47  48
ENDBRANCH  45  47
ENDBRANCH  44  45
ENDBRANCH  43  44
ENDBRANCH   1  43
TORSDOF 53
ENDMDL
MODEL 6
REMARK VINA RESULT:      -4.7      1.541      4.381
REMARK WARNING: 32 MAX_TORS EXCEEDED!!!
REMARK  53 active torsions:
REMARK  status: ('A' for Active; 'I' for Inactive)
REMARK    1  A    between atoms: O_1  and  C_55 
REMARK    2  A    between atoms: O_1  and  C_58 
REMARK    3  A    between atoms: O_2  and  C_56 
REMARK    4  A    between atoms: O_2  and  C_59 
REMARK    5  A    between atoms: O_3  and  C_57 
REMARK    6  A    between atoms: O_3  and  C_60 
REMARK    7  A    between atoms: C_7  and  C_8 
REMARK    8  A    between atoms: C_7  and  C_11 
REMARK    9  A    between atoms: C_8  and  C_16 
REMARK   10  A    between atoms: C_9  and  C_12 
REMARK   11  A    between atoms: C_9  and  C_21 
REMARK   12  A    between atoms: C_10  and  C_13 
REMARK   13  A    between atoms: C_10  and  C_22 
REMARK   14  A    between atoms: C_11  and  C_31 
REMARK   15  A    between atoms: C_12  and  C_23 
REMARK   16  A    between atoms: C_13  and  C_24 
REMARK   17  A    between atoms: C_14  and  C_15 
REMARK   18  A    between atoms: C_14  and  C_25 
REMARK   19  A    between atoms: C_15  and  C_26 
REMARK   20  A    between atoms: C_16  and  C_34 
REMARK   21  A    between atoms: C_17  and  C_19 
REMARK   22  A    between atoms: C_17  and  C_27 
REMARK   23  A    between atoms: C_18  and  C_20 
REMARK   24  A    between atoms: C_18  and  C_28 
REMARK   25  A    between atoms: C_19  and  C_29 
REMARK   26  A    between atoms: C_20  and  C_30 
REMARK   27  A    between atoms: C_21  and  C_32 
REMARK   28  A    between atoms: C_22  and  C_33 
REMARK   29  A    between atoms: C_23  and  C_35 
REMARK   30  A    between atoms: C_24  and  C_36 
REMARK   31  A    between atoms: C_25  and  C_37 
REMARK   32  A    between atoms: C_26  and  C_38 
REMARK   33  A    between atoms: C_27  and  C_39 
REMARK   34  A    between atoms: C_28  and  C_40 
REMARK   35  A    between atoms: C_29  and  C_41 
REMARK   36  A    between atoms: C_30  and  C_42 
REMARK   37  A    between atoms: C_31  and  C_43 
REMARK   38  A    between atoms: C_32  and  C_44 
REMARK   39  A    between atoms: C_33  and  C_45 
REMARK   40  A    between atoms: C_34  and  C_46 
REMARK   41  A    between atoms: C_35  and  C_51 
REMARK   42  A    between atoms: C_36  and  C_52 
REMARK   43  A    between atoms: C_37  and  C_47 
REMARK   44  A    between atoms: C_38  and  C_48 
REMARK   45  A    between atoms: C_39  and  C_49 
REMARK   46  A    between atoms: C_40  and  C_50 
REMARK   47  A    between atoms: C_41  and  C_53 
REMARK   48  A    between atoms: C_42  and  C_54 
REMARK   49  A    between atoms: C_43  and  C_58 
REMARK   50  A    between atoms: C_44  and  C_59 
REMARK   51  A    between atoms: C_45  and  C_60 
REMARK   52  A    between atoms: C_55  and  C_56 
REMARK   53  A    between atoms: C_55  and  C_57 
ROOT
HETATM    1  C   UNK N   1      24.926  20.239   3.824  0.00  0.00     0.180 C 
ENDROOT
BRANCH   1   2
HETATM    2  O   UNK N   1      26.260  20.459   3.570  0.00  0.00    -0.312 OA
BRANCH   2   3
HETATM    3  C   UNK N   1      27.187  20.535   4.557  0.00  0.00     0.259 C 
HETATM    4  O   UNK N   1      28.263  19.967   4.444  0.00  0.00    -0.265 OA
BRANCH   3   5
HETATM    5  C   UNK N   1      26.911  21.332   5.797  0.00  0.00     0.111 C 
BRANCH   5   6
HETATM    6  C   UNK N   1      27.731  20.842   6.982  0.00  0.00     0.010 C 
BRANCH   6   7
HETATM    7  C   UNK N   1      27.739  19.320   7.049  0.00  0.00     0.000 C 
BRANCH   7   8
HETATM    8  C   UNK N   1      28.280  18.813   8.379  0.00  0.00     0.000 C 
BRANCH   8   9
HETATM    9  C   UNK N   1      29.224  17.648   8.134  0.00  0.00     0.000 C 
BRANCH   9  10
HETATM   10  C   UNK N   1      28.843  16.933   6.857  0.00  0.00     0.004 C 
BRANCH  10  11
HETATM   11  C   UNK N   1      29.908  15.899   6.529  0.00  0.00     0.027 C 
BRANCH  11  12
HETATM   12  C   UNK N   1      29.495  15.042   5.367  0.00  0.00    -0.031 C 
HETATM   13  C   UNK N   1      29.822  15.302   4.092  0.00  0.00    -0.031 C 
BRANCH  13  14
HETATM   14  C   UNK N   1      30.635  16.489   3.694  0.00  0.00     0.027 C 
BRANCH  14  15
HETATM   15  C   UNK N   1      31.830  16.080   2.863  0.00  0.00     0.004 C 
BRANCH  15  16
HETATM   16  C   UNK N   1      33.063  16.709   3.476  0.00  0.00     0.000 C 
BRANCH  16  17
HETATM   17  C   UNK N   1      32.680  17.636   4.607  0.00  0.00     0.000 C 
BRANCH  17  18
HETATM   18  C   UNK N   1      33.672  17.449   5.736  0.00  0.00     0.000 C 
BRANCH  18  19
HETATM   19  C   UNK N   1      32.941  17.185   7.034  0.00  0.00    -0.000 C 
BRANCH  19  20
HETATM   20  C   UNK N   1      33.642  16.065   7.775  0.00  0.00    -0.005 C 
HETATM   21  C   UNK N   1      33.308  14.739   7.128  0.00  0.00     0.005 C 
ENDBRANCH  19  20
ENDBRANCH  18  19
ENDBRANCH  17  18
ENDBRANCH  16  17
ENDBRANCH  15  16
ENDBRANCH  14  15
ENDBRANCH  13  14
ENDBRANCH  11  12
ENDBRANCH  10  11
ENDBRANCH   9  10
ENDBRANCH   8   9
ENDBRANCH   7   8
ENDBRANCH   6   7
ENDBRANCH   5   6
ENDBRANCH   3   5
ENDBRANCH   2   3
ENDBRANCH   1   2
BRANCH   1  22
HETATM   22  C   UNK N   1      24.085  20.557   2.599  0.00  0.00     0.213 C 
BRANCH  22  23
HETATM   23  O   UNK N   1      22.879  21.115   2.964  0.00  0.00    -0.319 OA
BRANCH  23  24
HETATM   24  C   UNK N   1      21.682  20.673   2.497  0.00  0.00     0.258 C 
HETATM   25  O   UNK N   1      21.478  20.668   1.294  0.00  0.00    -0.265 OA
BRANCH  24  26
HETATM   26  C   UNK N   1      20.601  20.204   3.427  0.00  0.00     0.111 C 
BRANCH  26  27
HETATM   27  C   UNK N   1      21.084  19.035   4.269  0.00  0.00     0.010 C 
BRANCH  27  28
HETATM   28  C   UNK N   1      21.208  17.790   3.410  0.00  0.00     0.000 C 
BRANCH  28  29
HETATM   29  C   UNK N   1      19.881  17.050   3.338  0.00  0.00     0.000 C 
BRANCH  29  30
HETATM   30  C   UNK N   1      20.055  15.722   2.623  0.00  0.00     0.000 C 
BRANCH  30  31
HETATM   31  C   UNK N   1      20.815  15.890   1.318  0.00  0.00     0.004 C 
BRANCH  31  32
HETATM   32  C   UNK N   1      21.878  14.811   1.186  0.00  0.00     0.027 C 
BRANCH  32  33
HETATM   33  C   UNK N   1      21.295  13.492   0.767  0.00  0.00    -0.031 C 
HETATM   34  C   UNK N   1      21.355  12.389   1.529  0.00  0.00    -0.031 C 
BRANCH  34  35
HETATM   35  C   UNK N   1      21.959  12.365   2.903  0.00  0.00     0.027 C 
BRANCH  35  36
HETATM   36  C   UNK N   1      23.214  11.507   2.955  0.00  0.00     0.004 C 
BRANCH  36  37
HETATM   37  C   UNK N   1      23.272  10.764   4.279  0.00  0.00     0.000 C 
BRANCH  37  38
HETATM   38  C   UNK N   1      22.072  11.114   5.137  0.00  0.00     0.000 C 
BRANCH  38  39
HETATM   39  C   UNK N   1      22.505  11.192   6.585  0.00  0.00     0.000 C 
BRANCH  39  40
HETATM   40  C   UNK N   1      23.865  10.551   6.739  0.00  0.00    -0.000 C 
BRANCH  40  41
HETATM   41  C   UNK N   1      23.725   9.284   7.556  0.00  0.00    -0.005 C 
HETATM   42  C   UNK N   1      24.566   8.188   6.939  0.00  0.00     0.005 C 
ENDBRANCH  40  41
ENDBRANCH  39  40
ENDBRANCH  38  39
ENDBRANCH  37  38
ENDBRANCH  36  37
ENDBRANCH  35  36
ENDBRANCH  34  35
ENDBRANCH  32  33
ENDBRANCH  31  32
ENDBRANCH  30  31
ENDBRANCH  29  30
ENDBRANCH  28  29
ENDBRANCH  27  28
ENDBRANCH  26  27
ENDBRANCH  24  26
ENDBRANCH  23  24
ENDBRANCH  22  23
ENDBRANCH   1  22
BRANCH   1  43
HETATM   43  C   UNK N   1      24.737  18.777   4.170  0.00  0.00     0.213 C 
BRANCH  43  44
HETATM   44  O   UNK N   1      25.192  17.982   3.147  0.00  0.00    -0.319 OA
BRANCH  44  45
HETATM   45  C   UNK N   1      26.051  16.953   3.360  0.00  0.00     0.258 C 
HETATM   46  O   UNK N   1      26.809  17.003   4.311  0.00  0.00    -0.265 OA
BRANCH  45  47
HETATM   47  C   UNK N   1      26.068  15.763   2.423  0.00  0.00     0.111 C 
BRANCH  47  48
HETATM   48  C   UNK N   1      25.375  14.514   2.957  0.00  0.00     0.010 C 
BRANCH  48  49
HETATM   49  C   UNK N   1      26.292  13.697   3.861  0.00  0.00     0.000 C 
BRANCH  49  50
HETATM   50  C   UNK N   1      25.904  13.815   5.330  0.00  0.00     0.000 C 
BRANCH  50  51
HETATM   51  C   UNK N   1      24.417  14.090   5.502  0.00  0.00     0.000 C 
BRANCH  51  52
HETATM   52  C   UNK N   1      24.186  15.374   6.282  0.00  0.00     0.004 C 
BRANCH  52  53
HETATM   53  C   UNK N   1      22.802  15.920   5.983  0.00  0.00     0.027 C 
BRANCH  53  54
HETATM   54  C   UNK N   1      21.825  14.798   5.818  0.00  0.00    -0.031 C 
HETATM   55  C   UNK N   1      20.560  14.868   6.252  0.00  0.00    -0.031 C 
BRANCH  55  56
HETATM   56  C   UNK N   1      20.002  16.063   6.962  0.00  0.00     0.027 C 
BRANCH  56  57
HETATM   57  C   UNK N   1      20.391  16.031   8.428  0.00  0.00     0.004 C 
BRANCH  57  58
HETATM   58  C   UNK N   1      20.432  14.601   8.932  0.00  0.00     0.000 C 
BRANCH  58  59
HETATM   59  C   UNK N   1      21.815  14.277   9.465  0.00  0.00     0.000 C 
BRANCH  59  60
HETATM   60  C   UNK N   1      21.846  12.841   9.944  0.00  0.00     0.000 C 
BRANCH  60  61
HETATM   61  C   UNK N   1      23.281  12.357   9.985  0.00  0.00    -0.000 C 
BRANCH  61  62
HETATM   62  C   UNK N   1      23.507  11.561  11.252  0.00  0.00    -0.005 C 
HETATM   63  C   UNK N   1      22.508  11.989  12.306  0.00  0.00     0.005 C 
ENDBRANCH  61  62
ENDBRANCH  60  61
ENDBRANCH  59  60
ENDBRANCH  58  59
ENDBRANCH  57  58
ENDBRANCH  56  57
ENDBRANCH  55  56
ENDBRANCH  53  54
ENDBRANCH  52  53
ENDBRANCH  51  52
ENDBRANCH  50  51
ENDBRANCH  49  50
ENDBRANCH  48  49
ENDBRANCH  47  48
ENDBRANCH  45  47
ENDBRANCH  44  45
ENDBRANCH  43  44
ENDBRANCH   1  43
TORSDOF 53
ENDMDL
MODEL 7
REMARK VINA RESULT:      -4.6      6.121     11.727
REMARK WARNING: 32 MAX_TORS EXCEEDED!!!
REMARK  53 active torsions:
REMARK  status: ('A' for Active; 'I' for Inactive)
REMARK    1  A    between atoms: O_1  and  C_55 
REMARK    2  A    between atoms: O_1  and  C_58 
REMARK    3  A    between atoms: O_2  and  C_56 
REMARK    4  A    between atoms: O_2  and  C_59 
REMARK    5  A    between atoms: O_3  and  C_57 
REMARK    6  A    between atoms: O_3  and  C_60 
REMARK    7  A    between atoms: C_7  and  C_8 
REMARK    8  A    between atoms: C_7  and  C_11 
REMARK    9  A    between atoms: C_8  and  C_16 
REMARK   10  A    between atoms: C_9  and  C_12 
REMARK   11  A    between atoms: C_9  and  C_21 
REMARK   12  A    between atoms: C_10  and  C_13 
REMARK   13  A    between atoms: C_10  and  C_22 
REMARK   14  A    between atoms: C_11  and  C_31 
REMARK   15  A    between atoms: C_12  and  C_23 
REMARK   16  A    between atoms: C_13  and  C_24 
REMARK   17  A    between atoms: C_14  and  C_15 
REMARK   18  A    between atoms: C_14  and  C_25 
REMARK   19  A    between atoms: C_15  and  C_26 
REMARK   20  A    between atoms: C_16  and  C_34 
REMARK   21  A    between atoms: C_17  and  C_19 
REMARK   22  A    between atoms: C_17  and  C_27 
REMARK   23  A    between atoms: C_18  and  C_20 
REMARK   24  A    between atoms: C_18  and  C_28 
REMARK   25  A    between atoms: C_19  and  C_29 
REMARK   26  A    between atoms: C_20  and  C_30 
REMARK   27  A    between atoms: C_21  and  C_32 
REMARK   28  A    between atoms: C_22  and  C_33 
REMARK   29  A    between atoms: C_23  and  C_35 
REMARK   30  A    between atoms: C_24  and  C_36 
REMARK   31  A    between atoms: C_25  and  C_37 
REMARK   32  A    between atoms: C_26  and  C_38 
REMARK   33  A    between atoms: C_27  and  C_39 
REMARK   34  A    between atoms: C_28  and  C_40 
REMARK   35  A    between atoms: C_29  and  C_41 
REMARK   36  A    between atoms: C_30  and  C_42 
REMARK   37  A    between atoms: C_31  and  C_43 
REMARK   38  A    between atoms: C_32  and  C_44 
REMARK   39  A    between atoms: C_33  and  C_45 
REMARK   40  A    between atoms: C_34  and  C_46 
REMARK   41  A    between atoms: C_35  and  C_51 
REMARK   42  A    between atoms: C_36  and  C_52 
REMARK   43  A    between atoms: C_37  and  C_47 
REMARK   44  A    between atoms: C_38  and  C_48 
REMARK   45  A    between atoms: C_39  and  C_49 
REMARK   46  A    between atoms: C_40  and  C_50 
REMARK   47  A    between atoms: C_41  and  C_53 
REMARK   48  A    between atoms: C_42  and  C_54 
REMARK   49  A    between atoms: C_43  and  C_58 
REMARK   50  A    between atoms: C_44  and  C_59 
REMARK   51  A    between atoms: C_45  and  C_60 
REMARK   52  A    between atoms: C_55  and  C_56 
REMARK   53  A    between atoms: C_55  and  C_57 
ROOT
HETATM    1  C   UNK N   1      32.493  17.576   8.109  0.00  0.00     0.180 C 
ENDROOT
BRANCH   1   2
HETATM    2  O   UNK N   1      32.281  17.102   6.834  0.00  0.00    -0.312 OA
BRANCH   2   3
HETATM    3  C   UNK N   1      33.034  17.492   5.776  0.00  0.00     0.259 C 
HETATM    4  O   UNK N   1      34.207  17.795   5.928  0.00  0.00    -0.265 OA
BRANCH   3   5
HETATM    5  C   UNK N   1      32.440  17.541   4.400  0.00  0.00     0.111 C 
BRANCH   5   6
HETATM    6  C   UNK N   1      31.245  16.608   4.263  0.00  0.00     0.010 C 
BRANCH   6   7
HETATM    7  C   UNK N   1      30.695  16.631   2.843  0.00  0.00     0.000 C 
BRANCH   7   8
HETATM    8  C   UNK N   1      29.243  16.173   2.789  0.00  0.00     0.000 C 
BRANCH   8   9
HETATM    9  C   UNK N   1      29.188  14.656   2.757  0.00  0.00     0.000 C 
BRANCH   9  10
HETATM   10  C   UNK N   1      27.934  14.198   2.045  0.00  0.00     0.004 C 
BRANCH  10  11
HETATM   11  C   UNK N   1      26.828  15.213   2.283  0.00  0.00     0.027 C 
BRANCH  11  12
HETATM   12  C   UNK N   1      25.709  15.039   1.296  0.00  0.00    -0.031 C 
HETATM   13  C   UNK N   1      24.438  14.791   1.643  0.00  0.00    -0.031 C 
BRANCH  13  14
HETATM   14  C   UNK N   1      24.002  14.651   3.064  0.00  0.00     0.027 C 
BRANCH  14  15
HETATM   15  C   UNK N   1      23.198  15.851   3.510  0.00  0.00     0.004 C 
BRANCH  15  16
HETATM   16  C   UNK N   1      24.156  17.005   3.717  0.00  0.00     0.000 C 
BRANCH  16  17
HETATM   17  C   UNK N   1      23.729  17.844   4.900  0.00  0.00     0.000 C 
BRANCH  17  18
HETATM   18  C   UNK N   1      24.638  19.053   4.982  0.00  0.00     0.000 C 
BRANCH  18  19
HETATM   19  C   UNK N   1      25.998  18.722   4.406  0.00  0.00    -0.000 C 
BRANCH  19  20
HETATM   20  C   UNK N   1      26.853  19.972   4.410  0.00  0.00    -0.005 C 
HETATM   21  C   UNK N   1      28.315  19.589   4.469  0.00  0.00     0.005 C 
ENDBRANCH  19  20
ENDBRANCH  18  19
ENDBRANCH  17  18
ENDBRANCH  16  17
ENDBRANCH  15  16
ENDBRANCH  14  15
ENDBRANCH  13  14
ENDBRANCH  11  12
ENDBRANCH  10  11
ENDBRANCH   9  10
ENDBRANCH   8   9
ENDBRANCH   7   8
ENDBRANCH   6   7
ENDBRANCH   5   6
ENDBRANCH   3   5
ENDBRANCH   2   3
ENDBRANCH   1   2
BRANCH   1  22
HETATM   22  C   UNK N   1      31.220  18.180   8.677  0.00  0.00     0.213 C 
BRANCH  22  23
HETATM   23  O   UNK N   1      30.144  17.345   8.463  0.00  0.00    -0.319 OA
BRANCH  23  24
HETATM   24  C   UNK N   1      28.939  17.783   8.015  0.00  0.00     0.258 C 
HETATM   25  O   UNK N   1      28.753  18.982   7.881  0.00  0.00    -0.265 OA
BRANCH  24  26
HETATM   26  C   UNK N   1      27.824  16.829   7.695  0.00  0.00     0.111 C 
BRANCH  26  27
HETATM   27  C   UNK N   1      27.981  16.271   6.290  0.00  0.00     0.010 C 
BRANCH  27  28
HETATM   28  C   UNK N   1      26.759  15.450   5.917  0.00  0.00     0.000 C 
BRANCH  28  29
HETATM   29  C   UNK N   1      25.914  15.153   7.145  0.00  0.00     0.000 C 
BRANCH  29  30
HETATM   30  C   UNK N   1      24.523  14.705   6.733  0.00  0.00     0.000 C 
BRANCH  30  31
HETATM   31  C   UNK N   1      24.516  13.252   6.291  0.00  0.00     0.004 C 
BRANCH  31  32
HETATM   32  C   UNK N   1      23.172  12.613   6.604  0.00  0.00     0.027 C 
BRANCH  32  33
HETATM   33  C   UNK N   1      23.313  11.177   7.023  0.00  0.00    -0.031 C 
HETATM   34  C   UNK N   1      23.620  10.807   8.276  0.00  0.00    -0.031 C 
BRANCH  34  35
HETATM   35  C   UNK N   1      23.804  11.779   9.405  0.00  0.00     0.027 C 
BRANCH  35  36
HETATM   36  C   UNK N   1      22.903  11.453  10.586  0.00  0.00     0.004 C 
BRANCH  36  37
HETATM   37  C   UNK N   1      21.648  12.305  10.522  0.00  0.00     0.000 C 
BRANCH  37  38
HETATM   38  C   UNK N   1      21.962  13.673   9.947  0.00  0.00     0.000 C 
BRANCH  38  39
HETATM   39  C   UNK N   1      20.670  14.348   9.543  0.00  0.00     0.000 C 
BRANCH  39  40
HETATM   40  C   UNK N   1      20.830  14.961   8.170  0.00  0.00    -0.000 C 
BRANCH  40  41
HETATM   41  C   UNK N   1      20.281  16.371   8.190  0.00  0.00    -0.005 C 
HETATM   42  C   UNK N   1      20.859  17.155   7.032  0.00  0.00     0.005 C 
ENDBRANCH  40  41
ENDBRANCH  39  40
ENDBRANCH  38  39
ENDBRANCH  37  38
ENDBRANCH  36  37
ENDBRANCH  35  36
ENDBRANCH  34  35
ENDBRANCH  32  33
ENDBRANCH  31  32
ENDBRANCH  30  31
ENDBRANCH  29  30
ENDBRANCH  28  29
ENDBRANCH  27  28
ENDBRANCH  26  27
ENDBRANCH  24  26
ENDBRANCH  23  24
ENDBRANCH  22  23
ENDBRANCH   1  22
BRANCH   1  43
HETATM   43  C   UNK N   1      32.910  16.418   8.990  0.00  0.00     0.213 C 
BRANCH  43  44
HETATM   44  O   UNK N   1      34.249  16.153   8.827  0.00  0.00    -0.319 OA
BRANCH  44  45
HETATM   45  C   UNK N   1      35.150  16.356   9.820  0.00  0.00     0.258 C 
HETATM   46  O   UNK N   1      35.380  17.495  10.187  0.00  0.00    -0.265 OA
BRANCH  45  47
HETATM   47  C   UNK N   1      35.865  15.183  10.458  0.00  0.00     0.111 C 
BRANCH  47  48
HETATM   48  C   UNK N   1      36.043  15.283  11.969  0.00  0.00     0.010 C 
BRANCH  48  49
HETATM   49  C   UNK N   1      36.043  13.911  12.634  0.00  0.00     0.000 C 
BRANCH  49  50
HETATM   50  C   UNK N   1      36.156  14.008  14.151  0.00  0.00     0.000 C 
BRANCH  50  51
HETATM   51  C   UNK N   1      35.268  12.988  14.849  0.00  0.00     0.000 C 
BRANCH  51  52
HETATM   52  C   UNK N   1      34.544  12.112  13.839  0.00  0.00     0.004 C 
BRANCH  52  53
HETATM   53  C   UNK N   1      33.993  10.877  14.526  0.00  0.00     0.027 C 
BRANCH  53  54
HETATM   54  C   UNK N   1      35.009   9.778  14.513  0.00  0.00    -0.031 C 
HETATM   55  C   UNK N   1      35.392   9.131  15.621  0.00  0.00    -0.031 C 
BRANCH  55  56
HETATM   56  C   UNK N   1      34.861   9.454  16.984  0.00  0.00     0.027 C 
BRANCH  56  57
HETATM   57  C   UNK N   1      35.877  10.264  17.765  0.00  0.00     0.004 C 
BRANCH  57  58
HETATM   58  C   UNK N   1      35.288  11.603  18.167  0.00  0.00     0.000 C 
BRANCH  58  59
HETATM   59  C   UNK N   1      35.329  11.758  19.676  0.00  0.00     0.000 C 
BRANCH  59  60
HETATM   60  C   UNK N   1      35.473  10.394  20.318  0.00  0.00     0.000 C 
BRANCH  60  61
HETATM   61  C   UNK N   1      34.365  10.199  21.333  0.00  0.00    -0.000 C 
BRANCH  61  62
HETATM   62  C   UNK N   1      33.248   9.389  20.709  0.00  0.00    -0.005 C 
HETATM   63  C   UNK N   1      33.810   8.104  20.140  0.00  0.00     0.005 C 
ENDBRANCH  61  62
ENDBRANCH  60  61
ENDBRANCH  59  60
ENDBRANCH  58  59
ENDBRANCH  57  58
ENDBRANCH  56  57
ENDBRANCH  55  56
ENDBRANCH  53  54
ENDBRANCH  52  53
ENDBRANCH  51  52
ENDBRANCH  50  51
ENDBRANCH  49  50
ENDBRANCH  48  49
ENDBRANCH  47  48
ENDBRANCH  45  47
ENDBRANCH  44  45
ENDBRANCH  43  44
ENDBRANCH   1  43
TORSDOF 53
ENDMDL
MODEL 8
REMARK VINA RESULT:      -4.6      7.353     11.957
REMARK WARNING: 32 MAX_TORS EXCEEDED!!!
REMARK  53 active torsions:
REMARK  status: ('A' for Active; 'I' for Inactive)
REMARK    1  A    between atoms: O_1  and  C_55 
REMARK    2  A    between atoms: O_1  and  C_58 
REMARK    3  A    between atoms: O_2  and  C_56 
REMARK    4  A    between atoms: O_2  and  C_59 
REMARK    5  A    between atoms: O_3  and  C_57 
REMARK    6  A    between atoms: O_3  and  C_60 
REMARK    7  A    between atoms: C_7  and  C_8 
REMARK    8  A    between atoms: C_7  and  C_11 
REMARK    9  A    between atoms: C_8  and  C_16 
REMARK   10  A    between atoms: C_9  and  C_12 
REMARK   11  A    between atoms: C_9  and  C_21 
REMARK   12  A    between atoms: C_10  and  C_13 
REMARK   13  A    between atoms: C_10  and  C_22 
REMARK   14  A    between atoms: C_11  and  C_31 
REMARK   15  A    between atoms: C_12  and  C_23 
REMARK   16  A    between atoms: C_13  and  C_24 
REMARK   17  A    between atoms: C_14  and  C_15 
REMARK   18  A    between atoms: C_14  and  C_25 
REMARK   19  A    between atoms: C_15  and  C_26 
REMARK   20  A    between atoms: C_16  and  C_34 
REMARK   21  A    between atoms: C_17  and  C_19 
REMARK   22  A    between atoms: C_17  and  C_27 
REMARK   23  A    between atoms: C_18  and  C_20 
REMARK   24  A    between atoms: C_18  and  C_28 
REMARK   25  A    between atoms: C_19  and  C_29 
REMARK   26  A    between atoms: C_20  and  C_30 
REMARK   27  A    between atoms: C_21  and  C_32 
REMARK   28  A    between atoms: C_22  and  C_33 
REMARK   29  A    between atoms: C_23  and  C_35 
REMARK   30  A    between atoms: C_24  and  C_36 
REMARK   31  A    between atoms: C_25  and  C_37 
REMARK   32  A    between atoms: C_26  and  C_38 
REMARK   33  A    between atoms: C_27  and  C_39 
REMARK   34  A    between atoms: C_28  and  C_40 
REMARK   35  A    between atoms: C_29  and  C_41 
REMARK   36  A    between atoms: C_30  and  C_42 
REMARK   37  A    between atoms: C_31  and  C_43 
REMARK   38  A    between atoms: C_32  and  C_44 
REMARK   39  A    between atoms: C_33  and  C_45 
REMARK   40  A    between atoms: C_34  and  C_46 
REMARK   41  A    between atoms: C_35  and  C_51 
REMARK   42  A    between atoms: C_36  and  C_52 
REMARK   43  A    between atoms: C_37  and  C_47 
REMARK   44  A    between atoms: C_38  and  C_48 
REMARK   45  A    between atoms: C_39  and  C_49 
REMARK   46  A    between atoms: C_40  and  C_50 
REMARK   47  A    between atoms: C_41  and  C_53 
REMARK   48  A    between atoms: C_42  and  C_54 
REMARK   49  A    between atoms: C_43  and  C_58 
REMARK   50  A    between atoms: C_44  and  C_59 
REMARK   51  A    between atoms: C_45  and  C_60 
REMARK   52  A    between atoms: C_55  and  C_56 
REMARK   53  A    between atoms: C_55  and  C_57 
ROOT
HETATM    1  C   UNK N   1      35.144  15.626  11.066  0.00  0.00     0.180 C 
ENDROOT
BRANCH   1   2
HETATM    2  O   UNK N   1      36.172  14.722  11.215  0.00  0.00    -0.312 OA
BRANCH   2   3
HETATM    3  C   UNK N   1      36.394  14.055  12.374  0.00  0.00     0.259 C 
HETATM    4  O   UNK N   1      36.302  14.629  13.448  0.00  0.00    -0.265 OA
BRANCH   3   5
HETATM    5  C   UNK N   1      36.739  12.596  12.354  0.00  0.00     0.111 C 
BRANCH   5   6
HETATM    6  C   UNK N   1      36.010  11.824  13.446  0.00  0.00     0.010 C 
BRANCH   6   7
HETATM    7  C   UNK N   1      34.605  11.442  12.998  0.00  0.00     0.000 C 
BRANCH   7   8
HETATM    8  C   UNK N   1      33.827  10.743  14.105  0.00  0.00     0.000 C 
BRANCH   8   9
HETATM    9  C   UNK N   1      34.757   9.829  14.884  0.00  0.00     0.000 C 
BRANCH   9  10
HETATM   10  C   UNK N   1      34.581  10.053  16.369  0.00  0.00     0.004 C 
BRANCH  10  11
HETATM   11  C   UNK N   1      35.841  10.692  16.928  0.00  0.00     0.027 C 
BRANCH  11  12
HETATM   12  C   UNK N   1      35.693  12.184  17.034  0.00  0.00    -0.031 C 
HETATM   13  C   UNK N   1      35.236  12.815  18.126  0.00  0.00    -0.031 C 
BRANCH  13  14
HETATM   14  C   UNK N   1      34.815  12.087  19.361  0.00  0.00     0.027 C 
BRANCH  14  15
HETATM   15  C   UNK N   1      36.013  11.613  20.151  0.00  0.00     0.004 C 
BRANCH  15  16
HETATM   16  C   UNK N   1      35.771  10.172  20.548  0.00  0.00     0.000 C 
BRANCH  16  17
HETATM   17  C   UNK N   1      34.339   9.777  20.265  0.00  0.00     0.000 C 
BRANCH  17  18
HETATM   18  C   UNK N   1      33.696   9.346  21.567  0.00  0.00     0.000 C 
BRANCH  18  19
HETATM   19  C   UNK N   1      33.071  10.537  22.259  0.00  0.00    -0.000 C 
BRANCH  19  20
HETATM   20  C   UNK N   1      32.306  10.056  23.474  0.00  0.00    -0.005 C 
HETATM   21  C   UNK N   1      32.665   8.615  23.764  0.00  0.00     0.005 C 
ENDBRANCH  19  20
ENDBRANCH  18  19
ENDBRANCH  17  18
ENDBRANCH  16  17
ENDBRANCH  15  16
ENDBRANCH  14  15
ENDBRANCH  13  14
ENDBRANCH  11  12
ENDBRANCH  10  11
ENDBRANCH   9  10
ENDBRANCH   8   9
ENDBRANCH   7   8
ENDBRANCH   6   7
ENDBRANCH   5   6
ENDBRANCH   3   5
ENDBRANCH   2   3
ENDBRANCH   1   2
BRANCH   1  22
HETATM   22  C   UNK N   1      35.554  16.760  10.142  0.00  0.00     0.213 C 
BRANCH  22  23
HETATM   23  O   UNK N   1      34.457  17.502   9.760  0.00  0.00    -0.319 OA
BRANCH  23  24
HETATM   24  C   UNK N   1      34.423  18.253   8.630  0.00  0.00     0.258 C 
HETATM   25  O   UNK N   1      35.251  19.137   8.477  0.00  0.00    -0.265 OA
BRANCH  24  26
HETATM   26  C   UNK N   1      33.382  18.033   7.570  0.00  0.00     0.111 C 
BRANCH  26  27
HETATM   27  C   UNK N   1      32.190  17.279   8.134  0.00  0.00     0.010 C 
BRANCH  27  28
HETATM   28  C   UNK N   1      31.088  18.253   8.510  0.00  0.00     0.000 C 
BRANCH  28  29
HETATM   29  C   UNK N   1      29.719  17.645   8.247  0.00  0.00     0.000 C 
BRANCH  29  30
HETATM   30  C   UNK N   1      28.679  18.738   8.080  0.00  0.00     0.000 C 
BRANCH  30  31
HETATM   31  C   UNK N   1      27.956  18.616   6.748  0.00  0.00     0.004 C 
BRANCH  31  32
HETATM   32  C   UNK N   1      27.709  19.995   6.156  0.00  0.00     0.027 C 
BRANCH  32  33
HETATM   33  C   UNK N   1      27.936  20.021   4.672  0.00  0.00    -0.031 C 
HETATM   34  C   UNK N   1      26.937  20.116   3.780  0.00  0.00    -0.031 C 
BRANCH  34  35
HETATM   35  C   UNK N   1      25.494  20.261   4.166  0.00  0.00     0.027 C 
BRANCH  35  36
HETATM   36  C   UNK N   1      24.663  19.072   3.711  0.00  0.00     0.004 C 
BRANCH  36  37
HETATM   37  C   UNK N   1      25.114  17.821   4.445  0.00  0.00     0.000 C 
BRANCH  37  38
HETATM   38  C   UNK N   1      24.685  16.578   3.690  0.00  0.00     0.000 C 
BRANCH  38  39
HETATM   39  C   UNK N   1      23.842  15.712   4.600  0.00  0.00     0.000 C 
BRANCH  39  40
HETATM   40  C   UNK N   1      24.298  14.275   4.492  0.00  0.00    -0.000 C 
BRANCH  40  41
HETATM   41  C   UNK N   1      24.538  13.727   5.883  0.00  0.00    -0.005 C 
HETATM   42  C   UNK N   1      24.791  14.871   6.840  0.00  0.00     0.005 C 
ENDBRANCH  40  41
ENDBRANCH  39  40
ENDBRANCH  38  39
ENDBRANCH  37  38
ENDBRANCH  36  37
ENDBRANCH  35  36
ENDBRANCH  34  35
ENDBRANCH  32  33
ENDBRANCH  31  32
ENDBRANCH  30  31
ENDBRANCH  29  30
ENDBRANCH  28  29
ENDBRANCH  27  28
ENDBRANCH  26  27
ENDBRANCH  24  26
ENDBRANCH  23  24
ENDBRANCH  22  23
ENDBRANCH   1  22
BRANCH   1  43
HETATM   43  C   UNK N   1      33.959  14.910  10.453  0.00  0.00     0.213 C 
BRANCH  43  44
HETATM   44  O   UNK N   1      34.328  14.293   9.282  0.00  0.00    -0.319 OA
BRANCH  44  45
HETATM   45  C   UNK N   1      33.419  13.745   8.437  0.00  0.00     0.258 C 
HETATM   46  O   UNK N   1      32.518  13.067   8.898  0.00  0.00    -0.265 OA
BRANCH  45  47
HETATM   47  C   UNK N   1      33.528  13.969   6.943  0.00  0.00     0.111 C 
BRANCH  47  48
HETATM   48  C   UNK N   1      34.719  14.815   6.505  0.00  0.00     0.010 C 
BRANCH  48  49
HETATM   49  C   UNK N   1      34.544  15.353   5.090  0.00  0.00     0.000 C 
BRANCH  49  50
HETATM   50  C   UNK N   1      33.081  15.619   4.753  0.00  0.00     0.000 C 
BRANCH  50  51
HETATM   51  C   UNK N   1      32.916  16.875   3.909  0.00  0.00     0.000 C 
BRANCH  51  52
HETATM   52  C   UNK N   1      31.695  17.668   4.343  0.00  0.00     0.004 C 
BRANCH  52  53
HETATM   53  C   UNK N   1      30.581  16.723   4.751  0.00  0.00     0.027 C 
BRANCH  53  54
HETATM   54  C   UNK N   1      29.436  16.825   3.793  0.00  0.00    -0.031 C 
HETATM   55  C   UNK N   1      28.273  16.187   3.981  0.00  0.00    -0.031 C 
BRANCH  55  56
HETATM   56  C   UNK N   1      28.009  15.293   5.153  0.00  0.00     0.027 C 
BRANCH  56  57
HETATM   57  C   UNK N   1      28.216  13.842   4.764  0.00  0.00     0.004 C 
BRANCH  57  58
HETATM   58  C   UNK N   1      27.727  13.600   3.348  0.00  0.00     0.000 C 
BRANCH  58  59
HETATM   59  C   UNK N   1      28.825  12.959   2.522  0.00  0.00     0.000 C 
BRANCH  59  60
HETATM   60  C   UNK N   1      30.151  13.115   3.236  0.00  0.00     0.000 C 
BRANCH  60  61
HETATM   61  C   UNK N   1      31.280  12.833   2.266  0.00  0.00    -0.000 C 
BRANCH  61  62
HETATM   62  C   UNK N   1      32.539  12.509   3.041  0.00  0.00    -0.005 C 
HETATM   63  C   UNK N   1      33.749  12.981   2.263  0.00  0.00     0.005 C 
ENDBRANCH  61  62
ENDBRANCH  60  61
ENDBRANCH  59  60
ENDBRANCH  58  59
ENDBRANCH  57  58
ENDBRANCH  56  57
ENDBRANCH  55  56
ENDBRANCH  53  54
ENDBRANCH  52  53
ENDBRANCH  51  52
ENDBRANCH  50  51
ENDBRANCH  49  50
ENDBRANCH  48  49
ENDBRANCH  47  48
ENDBRANCH  45  47
ENDBRANCH  44  45
ENDBRANCH  43  44
ENDBRANCH   1  43
TORSDOF 53
ENDMDL
MODEL 9
REMARK VINA RESULT:      -4.6      5.831     11.413
REMARK WARNING: 32 MAX_TORS EXCEEDED!!!
REMARK  53 active torsions:
REMARK  status: ('A' for Active; 'I' for Inactive)
REMARK    1  A    between atoms: O_1  and  C_55 
REMARK    2  A    between atoms: O_1  and  C_58 
REMARK    3  A    between atoms: O_2  and  C_56 
REMARK    4  A    between atoms: O_2  and  C_59 
REMARK    5  A    between atoms: O_3  and  C_57 
REMARK    6  A    between atoms: O_3  and  C_60 
REMARK    7  A    between atoms: C_7  and  C_8 
REMARK    8  A    between atoms: C_7  and  C_11 
REMARK    9  A    between atoms: C_8  and  C_16 
REMARK   10  A    between atoms: C_9  and  C_12 
REMARK   11  A    between atoms: C_9  and  C_21 
REMARK   12  A    between atoms: C_10  and  C_13 
REMARK   13  A    between atoms: C_10  and  C_22 
REMARK   14  A    between atoms: C_11  and  C_31 
REMARK   15  A    between atoms: C_12  and  C_23 
REMARK   16  A    between atoms: C_13  and  C_24 
REMARK   17  A    between atoms: C_14  and  C_15 
REMARK   18  A    between atoms: C_14  and  C_25 
REMARK   19  A    between atoms: C_15  and  C_26 
REMARK   20  A    between atoms: C_16  and  C_34 
REMARK   21  A    between atoms: C_17  and  C_19 
REMARK   22  A    between atoms: C_17  and  C_27 
REMARK   23  A    between atoms: C_18  and  C_20 
REMARK   24  A    between atoms: C_18  and  C_28 
REMARK   25  A    between atoms: C_19  and  C_29 
REMARK   26  A    between atoms: C_20  and  C_30 
REMARK   27  A    between atoms: C_21  and  C_32 
REMARK   28  A    between atoms: C_22  and  C_33 
REMARK   29  A    between atoms: C_23  and  C_35 
REMARK   30  A    between atoms: C_24  and  C_36 
REMARK   31  A    between atoms: C_25  and  C_37 
REMARK   32  A    between atoms: C_26  and  C_38 
REMARK   33  A    between atoms: C_27  and  C_39 
REMARK   34  A    between atoms: C_28  and  C_40 
REMARK   35  A    between atoms: C_29  and  C_41 
REMARK   36  A    between atoms: C_30  and  C_42 
REMARK   37  A    between atoms: C_31  and  C_43 
REMARK   38  A    between atoms: C_32  and  C_44 
REMARK   39  A    between atoms: C_33  and  C_45 
REMARK   40  A    between atoms: C_34  and  C_46 
REMARK   41  A    between atoms: C_35  and  C_51 
REMARK   42  A    between atoms: C_36  and  C_52 
REMARK   43  A    between atoms: C_37  and  C_47 
REMARK   44  A    between atoms: C_38  and  C_48 
REMARK   45  A    between atoms: C_39  and  C_49 
REMARK   46  A    between atoms: C_40  and  C_50 
REMARK   47  A    between atoms: C_41  and  C_53 
REMARK   48  A    between atoms: C_42  and  C_54 
REMARK   49  A    between atoms: C_43  and  C_58 
REMARK   50  A    between atoms: C_44  and  C_59 
REMARK   51  A    between atoms: C_45  and  C_60 
REMARK   52  A    between atoms: C_55  and  C_56 
REMARK   53  A    between atoms: C_55  and  C_57 
ROOT
HETATM    1  C   UNK N   1      35.750  15.111  10.266  0.00  0.00     0.180 C 
ENDROOT
BRANCH   1   2
HETATM    2  O   UNK N   1      36.449  14.718  11.384  0.00  0.00    -0.312 OA
BRANCH   2   3
HETATM    3  C   UNK N   1      37.082  13.522  11.465  0.00  0.00     0.259 C 
HETATM    4  O   UNK N   1      37.904  13.196  10.622  0.00  0.00    -0.265 OA
BRANCH   3   5
HETATM    5  C   UNK N   1      36.794  12.587  12.602  0.00  0.00     0.111 C 
BRANCH   5   6
HETATM    6  C   UNK N   1      35.483  12.926  13.298  0.00  0.00     0.010 C 
BRANCH   6   7
HETATM    7  C   UNK N   1      35.735  13.587  14.646  0.00  0.00     0.000 C 
BRANCH   7   8
HETATM    8  C   UNK N   1      36.319  12.608  15.658  0.00  0.00     0.000 C 
BRANCH   8   9
HETATM    9  C   UNK N   1      35.380  12.481  16.845  0.00  0.00     0.000 C 
BRANCH   9  10
HETATM   10  C   UNK N   1      35.166  11.022  17.181  0.00  0.00     0.004 C 
BRANCH  10  11
HETATM   11  C   UNK N   1      34.634  10.301  15.954  0.00  0.00     0.027 C 
BRANCH  11  12
HETATM   12  C   UNK N   1      35.421   9.054  15.672  0.00  0.00    -0.031 C 
HETATM   13  C   UNK N   1      35.660   8.583  14.438  0.00  0.00    -0.031 C 
BRANCH  13  14
HETATM   14  C   UNK N   1      35.152   9.255  13.206  0.00  0.00     0.027 C 
BRANCH  14  15
HETATM   15  C   UNK N   1      35.586   8.515  11.961  0.00  0.00     0.004 C 
BRANCH  15  16
HETATM   16  C   UNK N   1      34.344   7.997  11.267  0.00  0.00     0.000 C 
BRANCH  16  17
HETATM   17  C   UNK N   1      33.438   9.143  10.875  0.00  0.00     0.000 C 
BRANCH  17  18
HETATM   18  C   UNK N   1      32.241   8.575  10.140  0.00  0.00     0.000 C 
BRANCH  18  19
HETATM   19  C   UNK N   1      32.044   9.299   8.826  0.00  0.00    -0.000 C 
BRANCH  19  20
HETATM   20  C   UNK N   1      33.069   8.801   7.830  0.00  0.00    -0.005 C 
HETATM   21  C   UNK N   1      32.469   8.797   6.441  0.00  0.00     0.005 C 
ENDBRANCH  19  20
ENDBRANCH  18  19
ENDBRANCH  17  18
ENDBRANCH  16  17
ENDBRANCH  15  16
ENDBRANCH  14  15
ENDBRANCH  13  14
ENDBRANCH  11  12
ENDBRANCH  10  11
ENDBRANCH   9  10
ENDBRANCH   8   9
ENDBRANCH   7   8
ENDBRANCH   6   7
ENDBRANCH   5   6
ENDBRANCH   3   5
ENDBRANCH   2   3
ENDBRANCH   1   2
BRANCH   1  22
HETATM   22  C   UNK N   1      34.718  14.064   9.882  0.00  0.00     0.213 C 
BRANCH  22  23
HETATM   23  O   UNK N   1      34.483  14.083   8.524  0.00  0.00    -0.319 OA
BRANCH  23  24
HETATM   24  C   UNK N   1      33.406  13.491   7.945  0.00  0.00     0.258 C 
HETATM   25  O   UNK N   1      32.286  13.871   8.245  0.00  0.00    -0.265 OA
BRANCH  24  26
HETATM   26  C   UNK N   1      33.561  12.370   6.958  0.00  0.00     0.111 C 
BRANCH  26  27
HETATM   27  C   UNK N   1      32.601  12.543   5.793  0.00  0.00     0.010 C 
BRANCH  27  28
HETATM   28  C   UNK N   1      33.344  12.388   4.478  0.00  0.00     0.000 C 
BRANCH  28  29
HETATM   29  C   UNK N   1      34.624  13.208   4.482  0.00  0.00     0.000 C 
BRANCH  29  30
HETATM   30  C   UNK N   1      34.314  14.673   4.227  0.00  0.00     0.000 C 
BRANCH  30  31
HETATM   31  C   UNK N   1      33.571  14.861   2.915  0.00  0.00     0.004 C 
BRANCH  31  32
HETATM   32  C   UNK N   1      33.083  16.296   2.788  0.00  0.00     0.027 C 
BRANCH  32  33
HETATM   33  C   UNK N   1      33.417  17.116   4.001  0.00  0.00    -0.031 C 
HETATM   34  C   UNK N   1      32.497  17.505   4.898  0.00  0.00    -0.031 C 
BRANCH  34  35
HETATM   35  C   UNK N   1      31.049  17.120   4.817  0.00  0.00     0.027 C 
BRANCH  35  36
HETATM   36  C   UNK N   1      30.786  15.762   5.450  0.00  0.00     0.004 C 
BRANCH  36  37
HETATM   37  C   UNK N   1      30.035  14.878   4.470  0.00  0.00     0.000 C 
BRANCH  37  38
HETATM   38  C   UNK N   1      29.609  15.675   3.253  0.00  0.00     0.000 C 
BRANCH  38  39
HETATM   39  C   UNK N   1      28.657  14.842   2.423  0.00  0.00     0.000 C 
BRANCH  39  40
HETATM   40  C   UNK N   1      28.931  13.375   2.662  0.00  0.00    -0.000 C 
BRANCH  40  41
HETATM   41  C   UNK N   1      29.496  12.764   1.398  0.00  0.00    -0.005 C 
HETATM   42  C   UNK N   1      30.955  12.425   1.608  0.00  0.00     0.005 C 
ENDBRANCH  40  41
ENDBRANCH  39  40
ENDBRANCH  38  39
ENDBRANCH  37  38
ENDBRANCH  36  37
ENDBRANCH  35  36
ENDBRANCH  34  35
ENDBRANCH  32  33
ENDBRANCH  31  32
ENDBRANCH  30  31
ENDBRANCH  29  30
ENDBRANCH  28  29
ENDBRANCH  27  28
ENDBRANCH  26  27
ENDBRANCH  24  26
ENDBRANCH  23  24
ENDBRANCH  22  23
ENDBRANCH   1  22
BRANCH   1  43
HETATM   43  C   UNK N   1      35.029  16.405  10.579  0.00  0.00     0.213 C 
BRANCH  43  44
HETATM   44  O   UNK N   1      35.474  17.411   9.756  0.00  0.00    -0.319 OA
BRANCH  44  45
HETATM   45  C   UNK N   1      34.675  17.989   8.825  0.00  0.00     0.258 C 
HETATM   46  O   UNK N   1      35.025  19.038   8.314  0.00  0.00    -0.265 OA
BRANCH  45  47
HETATM   47  C   UNK N   1      33.362  17.342   8.433  0.00  0.00     0.111 C 
BRANCH  47  48
HETATM   48  C   UNK N   1      32.181  18.300   8.320  0.00  0.00     0.010 C 
BRANCH  48  49
HETATM   49  C   UNK N   1      30.881  17.657   8.786  0.00  0.00     0.000 C 
BRANCH  49  50
HETATM   50  C   UNK N   1      29.937  18.668   9.426  0.00  0.00     0.000 C 
BRANCH  50  51
HETATM   51  C   UNK N   1      28.532  18.574   8.848  0.00  0.00     0.000 C 
BRANCH  51  52
HETATM   52  C   UNK N   1      27.931  17.199   9.095  0.00  0.00     0.004 C 
BRANCH  52  53
HETATM   53  C   UNK N   1      27.363  16.641   7.804  0.00  0.00     0.027 C 
BRANCH  53  54
HETATM   54  C   UNK N   1      27.935  17.369   6.628  0.00  0.00    -0.031 C 
HETATM   55  C   UNK N   1      27.366  17.351   5.416  0.00  0.00    -0.031 C 
BRANCH  55  56
HETATM   56  C   UNK N   1      26.116  16.585   5.110  0.00  0.00     0.027 C 
BRANCH  56  57
HETATM   57  C   UNK N   1      25.498  17.084   3.817  0.00  0.00     0.004 C 
BRANCH  57  58
HETATM   58  C   UNK N   1      24.206  17.826   4.101  0.00  0.00     0.000 C 
BRANCH  58  59
HETATM   59  C   UNK N   1      24.466  19.319   4.161  0.00  0.00     0.000 C 
BRANCH  59  60
HETATM   60  C   UNK N   1      25.518  19.689   3.137  0.00  0.00     0.000 C 
BRANCH  60  61
HETATM   61  C   UNK N   1      26.596  20.518   3.802  0.00  0.00    -0.000 C 
BRANCH  61  62
HETATM   62  C   UNK N   1      26.217  20.771   5.246  0.00  0.00    -0.005 C 
HETATM   63  C   UNK N   1      27.462  21.071   6.052  0.00  0.00     0.005 C 
ENDBRANCH  61  62
ENDBRANCH  60  61
ENDBRANCH  59  60
ENDBRANCH  58  59
ENDBRANCH  57  58
ENDBRANCH  56  57
ENDBRANCH  55  56
ENDBRANCH  53  54
ENDBRANCH  52  53
ENDBRANCH  51  52
ENDBRANCH  50  51
ENDBRANCH  49  50
ENDBRANCH  48  49
ENDBRANCH  47  48
ENDBRANCH  45  47
ENDBRANCH  44  45
ENDBRANCH  43  44
ENDBRANCH   1  43
TORSDOF 53
ENDMDL
