MODEL 1
REMARK VINA RESULT:      -8.0      0.000      0.000
REMARK  4 active torsions:
REMARK  status: ('A' for Active; 'I' for Inactive)
REMARK    1  A    between atoms: C_8  and  C_10 
REMARK       I    between atoms: C_10  and  N_12 
REMARK    2  A    between atoms: N_15  and  C_18 
REMARK    3  A    between atoms: C_18  and  C_19 
REMARK    4  A    between atoms: C_19  and  C_20 
ROOT
HETATM    1  C   UNK N   1      33.859  10.782  14.662  0.00  0.00     0.002 A 
HETATM    2  C   UNK N   1      34.217  11.656  15.692  0.00  0.00     0.015 A 
HETATM    3  C   UNK N   1      35.303  12.507  15.457  0.00  0.00     0.014 A 
HETATM    4  C   UNK N   1      35.877  13.474  16.207  0.00  0.00     0.072 A 
HETATM    5  C   UNK N   1      36.935  14.002  15.496  0.00  0.00     0.112 A 
HETATM    6  N   UNK N   1      37.013  13.385  14.315  0.00  0.00    -0.363 N 
HETATM    7  C   UNK N   1      36.005  12.502  14.305  0.00  0.00     0.059 A 
HETATM    8  C   UNK N   1      35.719  11.687  13.288  0.00  0.00     0.059 A 
HETATM    9  C   UNK N   1      34.604  10.808  13.472  0.00  0.00     0.019 A 
HETATM   10  C   UNK N   1      35.468  13.922  17.469  0.00  0.00     0.102 C 
HETATM   11  N   UNK N   1      35.158  14.313  18.505  0.00  0.00    -0.191 NA
HETATM   12  H   UNK N   1      37.672  13.544  13.601  0.00  0.00     0.165 HD
ENDROOT
BRANCH   8  13
HETATM   13  C   UNK N   1      36.629  11.791  12.105  0.00  0.00     0.256 C 
HETATM   14  O   UNK N   1      37.815  11.511  12.234  0.00  0.00    -0.267 OA
HETATM   15  N   UNK N   1      36.164  12.149  10.892  0.00  0.00    -0.345 N 
HETATM   16  C   UNK N   1      37.068  12.695   9.932  0.00  0.00     0.156 C 
HETATM   17  C   UNK N   1      34.798  12.491  10.744  0.00  0.00     0.156 C 
HETATM   18  C   UNK N   1      36.789  14.202   9.930  0.00  0.00     0.292 C 
HETATM   19  N   UNK N   1      35.959  14.644  11.095  0.00  0.00     0.091 N 
HETATM   20  C   UNK N   1      34.773  13.816  11.427  0.00  0.00     0.292 C 
BRANCH  19  21
HETATM   21  C   UNK N   1      35.336  15.851  10.673  0.00  0.00     0.277 C 
BRANCH  21  22
HETATM   22  C   UNK N   1      35.300  15.832   9.151  0.00  0.00     0.068 C 
BRANCH  22  23
HETATM   23  C   UNK N   1      34.135  16.453   8.849  0.00  0.00    -0.056 A 
HETATM   24  C   UNK N   1      33.029  15.657   8.948  0.00  0.00     0.010 A 
HETATM   25  C   UNK N   1      31.813  16.199   8.671  0.00  0.00     0.043 A 
HETATM   26  C   UNK N   1      31.735  17.534   8.287  0.00  0.00     0.116 A 
HETATM   27  C   UNK N   1      32.883  18.327   8.136  0.00  0.00     0.043 A 
HETATM   28  F   UNK N   1      30.525  18.071   8.118  0.00  0.00    -0.206 F 
HETATM   29  C   UNK N   1      34.116  17.773   8.415  0.00  0.00     0.010 A 
ENDBRANCH  22  23
ENDBRANCH  21  22
ENDBRANCH  19  21
ENDBRANCH   8  13
TORSDOF 4
ENDMDL
MODEL 2
REMARK VINA RESULT:      -7.9     12.798     16.824
REMARK  4 active torsions:
REMARK  status: ('A' for Active; 'I' for Inactive)
REMARK    1  A    between atoms: C_8  and  C_10 
REMARK       I    between atoms: C_10  and  N_12 
REMARK    2  A    between atoms: N_15  and  C_18 
REMARK    3  A    between atoms: C_18  and  C_19 
REMARK    4  A    between atoms: C_19  and  C_20 
ROOT
HETATM    1  C   UNK N   1      21.310  17.793   6.373  0.00  0.00     0.002 A 
HETATM    2  C   UNK N   1      21.376  18.577   5.219  0.00  0.00     0.015 A 
HETATM    3  C   UNK N   1      20.792  18.054   4.059  0.00  0.00     0.014 A 
HETATM    4  C   UNK N   1      20.653  18.551   2.810  0.00  0.00     0.072 A 
HETATM    5  C   UNK N   1      20.001  17.610   2.040  0.00  0.00     0.112 A 
HETATM    6  N   UNK N   1      19.727  16.545   2.798  0.00  0.00    -0.363 N 
HETATM    7  C   UNK N   1      20.194  16.845   4.018  0.00  0.00     0.059 A 
HETATM    8  C   UNK N   1      20.105  16.047   5.083  0.00  0.00     0.059 A 
HETATM    9  C   UNK N   1      20.672  16.544   6.299  0.00  0.00     0.019 A 
HETATM   10  C   UNK N   1      21.043  19.816   2.353  0.00  0.00     0.102 C 
HETATM   11  N   UNK N   1      21.351  20.847   1.947  0.00  0.00    -0.191 NA
HETATM   12  H   UNK N   1      19.277  15.715   2.520  0.00  0.00     0.165 HD
ENDROOT
BRANCH   8  13
HETATM   13  C   UNK N   1      19.445  14.726   4.842  0.00  0.00     0.256 C 
HETATM   14  O   UNK N   1      18.229  14.633   4.955  0.00  0.00    -0.267 OA
HETATM   15  N   UNK N   1      20.157  13.644   4.468  0.00  0.00    -0.345 N 
HETATM   16  C   UNK N   1      19.624  12.341   4.705  0.00  0.00     0.156 C 
HETATM   17  C   UNK N   1      21.565  13.743   4.355  0.00  0.00     0.156 C 
HETATM   18  C   UNK N   1      20.394  11.807   5.917  0.00  0.00     0.292 C 
HETATM   19  N   UNK N   1      21.167  12.871   6.633  0.00  0.00     0.091 N 
HETATM   20  C   UNK N   1      21.949  13.814   5.794  0.00  0.00     0.292 C 
BRANCH  19  21
HETATM   21  C   UNK N   1      22.211  12.183   7.311  0.00  0.00     0.277 C 
BRANCH  21  22
HETATM   22  C   UNK N   1      23.026  13.227   8.062  0.00  0.00     0.068 C 
BRANCH  22  23
HETATM   23  C   UNK N   1      22.983  12.805   9.348  0.00  0.00    -0.056 A 
HETATM   24  C   UNK N   1      24.204  12.513   9.887  0.00  0.00     0.010 A 
HETATM   25  C   UNK N   1      24.259  12.089  11.177  0.00  0.00     0.043 A 
HETATM   26  C   UNK N   1      23.078  11.956  11.901  0.00  0.00     0.116 A 
HETATM   27  C   UNK N   1      21.825  12.206  11.320  0.00  0.00     0.043 A 
HETATM   28  F   UNK N   1      23.163  11.635  13.193  0.00  0.00    -0.206 F 
HETATM   29  C   UNK N   1      21.773  12.632  10.009  0.00  0.00     0.010 A 
ENDBRANCH  22  23
ENDBRANCH  21  22
ENDBRANCH  19  21
ENDBRANCH   8  13
TORSDOF 4
ENDMDL
MODEL 3
REMARK VINA RESULT:      -7.7     12.563     16.479
REMARK  4 active torsions:
REMARK  status: ('A' for Active; 'I' for Inactive)
REMARK    1  A    between atoms: C_8  and  C_10 
REMARK       I    between atoms: C_10  and  N_12 
REMARK    2  A    between atoms: N_15  and  C_18 
REMARK    3  A    between atoms: C_18  and  C_19 
REMARK    4  A    between atoms: C_19  and  C_20 
ROOT
HETATM    1  C   UNK N   1      19.847  15.821   0.866  0.00  0.00     0.002 A 
HETATM    2  C   UNK N   1      20.095  17.181   0.668  0.00  0.00     0.015 A 
HETATM    3  C   UNK N   1      20.398  17.945   1.801  0.00  0.00     0.014 A 
HETATM    4  C   UNK N   1      20.714  19.250   1.958  0.00  0.00     0.072 A 
HETATM    5  C   UNK N   1      20.911  19.489   3.303  0.00  0.00     0.112 A 
HETATM    6  N   UNK N   1      20.731  18.349   3.975  0.00  0.00    -0.363 N 
HETATM    7  C   UNK N   1      20.444  17.427   3.046  0.00  0.00     0.059 A 
HETATM    8  C   UNK N   1      20.209  16.139   3.301  0.00  0.00     0.059 A 
HETATM    9  C   UNK N   1      19.912  15.310   2.173  0.00  0.00     0.019 A 
HETATM   10  C   UNK N   1      20.874  20.209   0.951  0.00  0.00     0.102 C 
HETATM   11  N   UNK N   1      21.013  21.021   0.148  0.00  0.00    -0.191 NA
HETATM   12  H   UNK N   1      20.796  18.215   4.948  0.00  0.00     0.165 HD
ENDROOT
BRANCH   8  13
HETATM   13  C   UNK N   1      20.264  15.750   4.745  0.00  0.00     0.256 C 
HETATM   14  O   UNK N   1      19.450  16.227   5.527  0.00  0.00    -0.267 OA
HETATM   15  N   UNK N   1      21.166  14.856   5.196  0.00  0.00    -0.345 N 
HETATM   16  C   UNK N   1      21.518  14.858   6.580  0.00  0.00     0.156 C 
HETATM   17  C   UNK N   1      22.120  14.316   4.300  0.00  0.00     0.156 C 
HETATM   18  C   UNK N   1      22.895  15.527   6.643  0.00  0.00     0.292 C 
HETATM   19  N   UNK N   1      23.262  16.227   5.372  0.00  0.00     0.091 N 
HETATM   20  C   UNK N   1      23.009  15.497   4.104  0.00  0.00     0.292 C 
BRANCH  19  21
HETATM   21  C   UNK N   1      24.684  16.282   5.372  0.00  0.00     0.277 C 
BRANCH  21  22
HETATM   22  C   UNK N   1      25.109  16.942   4.068  0.00  0.00     0.068 C 
BRANCH  22  23
HETATM   23  C   UNK N   1      25.737  18.074   4.470  0.00  0.00    -0.056 A 
HETATM   24  C   UNK N   1      25.317  19.208   3.834  0.00  0.00     0.010 A 
HETATM   25  C   UNK N   1      25.886  20.393   4.180  0.00  0.00     0.043 A 
HETATM   26  C   UNK N   1      26.878  20.413   5.155  0.00  0.00     0.116 A 
HETATM   27  C   UNK N   1      27.340  19.235   5.762  0.00  0.00     0.043 A 
HETATM   28  F   UNK N   1      27.350  21.597   5.548  0.00  0.00    -0.206 F 
HETATM   29  C   UNK N   1      26.763  18.033   5.406  0.00  0.00     0.010 A 
ENDBRANCH  22  23
ENDBRANCH  21  22
ENDBRANCH  19  21
ENDBRANCH   8  13
TORSDOF 4
ENDMDL
MODEL 4
REMARK VINA RESULT:      -7.4     19.019     22.770
REMARK  4 active torsions:
REMARK  status: ('A' for Active; 'I' for Inactive)
REMARK    1  A    between atoms: C_8  and  C_10 
REMARK       I    between atoms: C_10  and  N_12 
REMARK    2  A    between atoms: N_15  and  C_18 
REMARK    3  A    between atoms: C_18  and  C_19 
REMARK    4  A    between atoms: C_19  and  C_20 
ROOT
HETATM    1  C   UNK N   1      26.508  27.052  -8.232  0.00  0.00     0.002 A 
HETATM    2  C   UNK N   1      26.416  27.175  -6.844  0.00  0.00     0.015 A 
HETATM    3  C   UNK N   1      26.107  26.018  -6.119  0.00  0.00     0.014 A 
HETATM    4  C   UNK N   1      25.977  25.785  -4.794  0.00  0.00     0.072 A 
HETATM    5  C   UNK N   1      25.649  24.456  -4.620  0.00  0.00     0.112 A 
HETATM    6  N   UNK N   1      25.585  23.865  -5.816  0.00  0.00    -0.363 N 
HETATM    7  C   UNK N   1      25.886  24.822  -6.704  0.00  0.00     0.059 A 
HETATM    8  C   UNK N   1      25.951  24.641  -8.024  0.00  0.00     0.059 A 
HETATM    9  C   UNK N   1      26.283  25.791  -8.809  0.00  0.00     0.019 A 
HETATM   10  C   UNK N   1      26.182  26.694  -3.750  0.00  0.00     0.102 C 
HETATM   11  N   UNK N   1      26.342  27.416  -2.869  0.00  0.00    -0.191 NA
HETATM   12  H   UNK N   1      25.364  22.925  -6.005  0.00  0.00     0.165 HD
ENDROOT
BRANCH   8  13
HETATM   13  C   UNK N   1      25.638  23.257  -8.498  0.00  0.00     0.256 C 
HETATM   14  O   UNK N   1      24.524  22.791  -8.296  0.00  0.00    -0.267 OA
HETATM   15  N   UNK N   1      26.546  22.527  -9.177  0.00  0.00    -0.345 N 
HETATM   16  C   UNK N   1      26.423  21.104  -9.196  0.00  0.00     0.156 C 
HETATM   17  C   UNK N   1      27.841  23.055  -9.396  0.00  0.00     0.156 C 
HETATM   18  C   UNK N   1      27.487  20.597  -8.218  0.00  0.00     0.292 C 
HETATM   19  N   UNK N   1      28.050  21.681  -7.353  0.00  0.00     0.091 N 
HETATM   20  C   UNK N   1      28.412  22.956  -8.022  0.00  0.00     0.292 C 
BRANCH  19  21
HETATM   21  C   UNK N   1      29.332  21.213  -6.953  0.00  0.00     0.277 C 
BRANCH  21  22
HETATM   22  C   UNK N   1      30.173  22.436  -6.615  0.00  0.00     0.068 C 
BRANCH  22  23
HETATM   23  C   UNK N   1      29.991  22.594  -5.282  0.00  0.00    -0.056 A 
HETATM   24  C   UNK N   1      30.430  21.545  -4.524  0.00  0.00     0.010 A 
HETATM   25  C   UNK N   1      30.295  21.620  -3.174  0.00  0.00     0.043 A 
HETATM   26  C   UNK N   1      29.709  22.749  -2.609  0.00  0.00     0.116 A 
HETATM   27  C   UNK N   1      29.212  23.796  -3.401  0.00  0.00     0.043 A 
HETATM   28  F   UNK N   1      29.678  22.844  -1.279  0.00  0.00    -0.206 F 
HETATM   29  C   UNK N   1      29.347  23.715  -4.772  0.00  0.00     0.010 A 
ENDBRANCH  22  23
ENDBRANCH  21  22
ENDBRANCH  19  21
ENDBRANCH   8  13
TORSDOF 4
ENDMDL
MODEL 5
REMARK VINA RESULT:      -7.2      2.092      2.944
REMARK  4 active torsions:
REMARK  status: ('A' for Active; 'I' for Inactive)
REMARK    1  A    between atoms: C_8  and  C_10 
REMARK       I    between atoms: C_10  and  N_12 
REMARK    2  A    between atoms: N_15  and  C_18 
REMARK    3  A    between atoms: C_18  and  C_19 
REMARK    4  A    between atoms: C_19  and  C_20 
ROOT
HETATM    1  C   UNK N   1      35.441  13.770  17.177  0.00  0.00     0.002 A 
HETATM    2  C   UNK N   1      35.057  12.692  17.979  0.00  0.00     0.015 A 
HETATM    3  C   UNK N   1      35.415  11.412  17.541  0.00  0.00     0.014 A 
HETATM    4  C   UNK N   1      35.235  10.185  18.079  0.00  0.00     0.072 A 
HETATM    5  C   UNK N   1      35.780   9.252  17.221  0.00  0.00     0.112 A 
HETATM    6  N   UNK N   1      36.303   9.886  16.169  0.00  0.00    -0.363 N 
HETATM    7  C   UNK N   1      36.090  11.190  16.394  0.00  0.00     0.059 A 
HETATM    8  C   UNK N   1      36.478  12.175  15.582  0.00  0.00     0.059 A 
HETATM    9  C   UNK N   1      36.151  13.506  15.995  0.00  0.00     0.019 A 
HETATM   10  C   UNK N   1      34.648   9.880  19.313  0.00  0.00     0.102 C 
HETATM   11  N   UNK N   1      34.172   9.595  20.321  0.00  0.00    -0.191 NA
HETATM   12  H   UNK N   1      36.751   9.482  15.391  0.00  0.00     0.165 HD
ENDROOT
BRANCH   8  13
HETATM   13  C   UNK N   1      37.180  11.740  14.334  0.00  0.00     0.256 C 
HETATM   14  O   UNK N   1      38.373  11.464  14.382  0.00  0.00    -0.267 OA
HETATM   15  N   UNK N   1      36.518  11.609  13.168  0.00  0.00    -0.345 N 
HETATM   16  C   UNK N   1      37.248  11.667  11.942  0.00  0.00     0.156 C 
HETATM   17  C   UNK N   1      35.144  11.944  13.105  0.00  0.00     0.156 C 
HETATM   18  C   UNK N   1      36.961  13.060  11.371  0.00  0.00     0.292 C 
HETATM   19  N   UNK N   1      36.331  13.982  12.369  0.00  0.00     0.091 N 
HETATM   20  C   UNK N   1      35.222  13.431  13.187  0.00  0.00     0.292 C 
BRANCH  19  21
HETATM   21  C   UNK N   1      35.639  14.954  11.594  0.00  0.00     0.277 C 
BRANCH  21  22
HETATM   22  C   UNK N   1      34.938  14.213  10.464  0.00  0.00     0.068 C 
BRANCH  22  23
HETATM   23  C   UNK N   1      34.260  15.188   9.812  0.00  0.00    -0.056 A 
HETATM   24  C   UNK N   1      34.966  16.344   9.635  0.00  0.00     0.010 A 
HETATM   25  C   UNK N   1      34.368  17.375   8.982  0.00  0.00     0.043 A 
HETATM   26  C   UNK N   1      33.062  17.227   8.527  0.00  0.00     0.116 A 
HETATM   27  C   UNK N   1      32.327  16.054   8.763  0.00  0.00     0.043 A 
HETATM   28  F   UNK N   1      32.531  18.213   7.803  0.00  0.00    -0.206 F 
HETATM   29  C   UNK N   1      32.936  15.011   9.430  0.00  0.00     0.010 A 
ENDBRANCH  22  23
ENDBRANCH  21  22
ENDBRANCH  19  21
ENDBRANCH   8  13
TORSDOF 4
ENDMDL
MODEL 6
REMARK VINA RESULT:      -7.2     13.288     15.385
REMARK  4 active torsions:
REMARK  status: ('A' for Active; 'I' for Inactive)
REMARK    1  A    between atoms: C_8  and  C_10 
REMARK       I    between atoms: C_10  and  N_12 
REMARK    2  A    between atoms: N_15  and  C_18 
REMARK    3  A    between atoms: C_18  and  C_19 
REMARK    4  A    between atoms: C_19  and  C_20 
ROOT
HETATM    1  C   UNK N   1      21.150  13.076   9.872  0.00  0.00     0.002 A 
HETATM    2  C   UNK N   1      20.313  14.191   9.795  0.00  0.00     0.015 A 
HETATM    3  C   UNK N   1      20.586  15.124   8.787  0.00  0.00     0.014 A 
HETATM    4  C   UNK N   1      19.969  16.270   8.421  0.00  0.00     0.072 A 
HETATM    5  C   UNK N   1      20.663  16.813   7.359  0.00  0.00     0.112 A 
HETATM    6  N   UNK N   1      21.690  16.014   7.059  0.00  0.00    -0.363 N 
HETATM    7  C   UNK N   1      21.610  14.991   7.920  0.00  0.00     0.059 A 
HETATM    8  C   UNK N   1      22.449  13.953   7.947  0.00  0.00     0.059 A 
HETATM    9  C   UNK N   1      22.202  12.962   8.949  0.00  0.00     0.019 A 
HETATM   10  C   UNK N   1      18.800  16.814   8.966  0.00  0.00     0.102 C 
HETATM   11  N   UNK N   1      17.842  17.289   9.391  0.00  0.00    -0.191 NA
HETATM   12  H   UNK N   1      22.364  16.149   6.354  0.00  0.00     0.165 HD
ENDROOT
BRANCH   8  13
HETATM   13  C   UNK N   1      23.551  13.992   6.935  0.00  0.00     0.256 C 
HETATM   14  O   UNK N   1      24.414  14.857   7.021  0.00  0.00    -0.267 OA
HETATM   15  N   UNK N   1      23.634  13.071   5.954  0.00  0.00    -0.345 N 
HETATM   16  C   UNK N   1      24.363  13.382   4.766  0.00  0.00     0.156 C 
HETATM   17  C   UNK N   1      22.628  12.081   5.841  0.00  0.00     0.156 C 
HETATM   18  C   UNK N   1      23.296  13.682   3.709  0.00  0.00     0.292 C 
HETATM   19  N   UNK N   1      21.932  13.878   4.294  0.00  0.00     0.091 N 
HETATM   20  C   UNK N   1      21.495  12.902   5.324  0.00  0.00     0.292 C 
BRANCH  19  21
HETATM   21  C   UNK N   1      21.025  13.580   3.239  0.00  0.00     0.277 C 
BRANCH  21  22
HETATM   22  C   UNK N   1      19.741  14.347   3.519  0.00  0.00     0.068 C 
BRANCH  22  23
HETATM   23  C   UNK N   1      19.915  15.519   2.861  0.00  0.00    -0.056 A 
HETATM   24  C   UNK N   1      19.843  16.628   3.655  0.00  0.00     0.010 A 
HETATM   25  C   UNK N   1      20.014  17.848   3.082  0.00  0.00     0.043 A 
HETATM   26  C   UNK N   1      20.245  17.930   1.712  0.00  0.00     0.116 A 
HETATM   27  C   UNK N   1      20.262  16.787   0.897  0.00  0.00     0.043 A 
HETATM   28  F   UNK N   1      20.509  19.129   1.188  0.00  0.00    -0.206 F 
HETATM   29  C   UNK N   1      20.084  15.551   1.482  0.00  0.00     0.010 A 
ENDBRANCH  22  23
ENDBRANCH  21  22
ENDBRANCH  19  21
ENDBRANCH   8  13
TORSDOF 4
ENDMDL
MODEL 7
REMARK VINA RESULT:      -7.1     13.534     17.763
REMARK  4 active torsions:
REMARK  status: ('A' for Active; 'I' for Inactive)
REMARK    1  A    between atoms: C_8  and  C_10 
REMARK       I    between atoms: C_10  and  N_12 
REMARK    2  A    between atoms: N_15  and  C_18 
REMARK    3  A    between atoms: C_18  and  C_19 
REMARK    4  A    between atoms: C_19  and  C_20 
ROOT
HETATM    1  C   UNK N   1      22.289  13.530   1.136  0.00  0.00     0.002 A 
HETATM    2  C   UNK N   1      21.227  12.672   0.841  0.00  0.00     0.015 A 
HETATM    3  C   UNK N   1      19.979  13.259   0.606  0.00  0.00     0.014 A 
HETATM    4  C   UNK N   1      18.779  12.736   0.270  0.00  0.00     0.072 A 
HETATM    5  C   UNK N   1      17.870  13.770   0.170  0.00  0.00     0.112 A 
HETATM    6  N   UNK N   1      18.494  14.921   0.427  0.00  0.00    -0.363 N 
HETATM    7  C   UNK N   1      19.770  14.591   0.666  0.00  0.00     0.059 A 
HETATM    8  C   UNK N   1      20.741  15.462   0.950  0.00  0.00     0.059 A 
HETATM    9  C   UNK N   1      22.041  14.912   1.182  0.00  0.00     0.019 A 
HETATM   10  C   UNK N   1      18.483  11.392   0.012  0.00  0.00     0.102 C 
HETATM   11  N   UNK N   1      18.206  10.298  -0.207  0.00  0.00    -0.191 NA
HETATM   12  H   UNK N   1      18.100  15.823   0.439  0.00  0.00     0.165 HD
ENDROOT
BRANCH   8  13
HETATM   13  C   UNK N   1      20.318  16.896   1.014  0.00  0.00     0.256 C 
HETATM   14  O   UNK N   1      20.274  17.555  -0.017  0.00  0.00    -0.267 OA
HETATM   15  N   UNK N   1      19.948  17.466   2.178  0.00  0.00    -0.345 N 
HETATM   16  C   UNK N   1      20.016  18.886   2.311  0.00  0.00     0.156 C 
HETATM   17  C   UNK N   1      20.015  16.713   3.375  0.00  0.00     0.156 C 
HETATM   18  C   UNK N   1      21.266  19.151   3.156  0.00  0.00     0.292 C 
HETATM   19  N   UNK N   1      22.152  17.950   3.280  0.00  0.00     0.091 N 
HETATM   20  C   UNK N   1      21.492  16.655   3.578  0.00  0.00     0.292 C 
BRANCH  19  21
HETATM   21  C   UNK N   1      22.895  18.156   4.476  0.00  0.00     0.277 C 
BRANCH  21  22
HETATM   22  C   UNK N   1      24.086  17.209   4.434  0.00  0.00     0.068 C 
BRANCH  22  23
HETATM   23  C   UNK N   1      25.157  18.039   4.423  0.00  0.00    -0.056 A 
HETATM   24  C   UNK N   1      26.226  17.590   5.147  0.00  0.00     0.010 A 
HETATM   25  C   UNK N   1      27.349  18.355   5.186  0.00  0.00     0.043 A 
HETATM   26  C   UNK N   1      27.371  19.567   4.503  0.00  0.00     0.116 A 
HETATM   27  C   UNK N   1      26.248  20.043   3.808  0.00  0.00     0.043 A 
HETATM   28  F   UNK N   1      28.516  20.252   4.472  0.00  0.00    -0.206 F 
HETATM   29  C   UNK N   1      25.109  19.266   3.774  0.00  0.00     0.010 A 
ENDBRANCH  22  23
ENDBRANCH  21  22
ENDBRANCH  19  21
ENDBRANCH   8  13
TORSDOF 4
ENDMDL
MODEL 8
REMARK VINA RESULT:      -7.0      4.725      9.153
REMARK  4 active torsions:
REMARK  status: ('A' for Active; 'I' for Inactive)
REMARK    1  A    between atoms: C_8  and  C_10 
REMARK       I    between atoms: C_10  and  N_12 
REMARK    2  A    between atoms: N_15  and  C_18 
REMARK    3  A    between atoms: C_18  and  C_19 
REMARK    4  A    between atoms: C_19  and  C_20 
ROOT
HETATM    1  C   UNK N   1      29.388  17.905   9.552  0.00  0.00     0.002 A 
HETATM    2  C   UNK N   1      28.603  18.681   8.696  0.00  0.00     0.015 A 
HETATM    3  C   UNK N   1      28.750  18.462   7.322  0.00  0.00     0.014 A 
HETATM    4  C   UNK N   1      28.136  19.003   6.246  0.00  0.00     0.072 A 
HETATM    5  C   UNK N   1      28.670  18.430   5.110  0.00  0.00     0.112 A 
HETATM    6  N   UNK N   1      29.595  17.537   5.470  0.00  0.00    -0.363 N 
HETATM    7  C   UNK N   1      29.610  17.558   6.809  0.00  0.00     0.059 A 
HETATM    8  C   UNK N   1      30.391  16.791   7.573  0.00  0.00     0.059 A 
HETATM    9  C   UNK N   1      30.266  16.965   8.988  0.00  0.00     0.019 A 
HETATM   10  C   UNK N   1      27.100  19.945   6.246  0.00  0.00     0.102 C 
HETATM   11  N   UNK N   1      26.249  20.718   6.212  0.00  0.00    -0.191 NA
HETATM   12  H   UNK N   1      30.149  16.980   4.877  0.00  0.00     0.165 HD
ENDROOT
BRANCH   8  13
HETATM   13  C   UNK N   1      31.313  15.874   6.832  0.00  0.00     0.256 C 
HETATM   14  O   UNK N   1      30.892  14.795   6.433  0.00  0.00    -0.267 OA
HETATM   15  N   UNK N   1      32.585  16.227   6.562  0.00  0.00    -0.345 N 
HETATM   16  C   UNK N   1      33.551  15.208   6.303  0.00  0.00     0.156 C 
HETATM   17  C   UNK N   1      33.080  17.465   7.038  0.00  0.00     0.156 C 
HETATM   18  C   UNK N   1      34.381  15.107   7.587  0.00  0.00     0.292 C 
HETATM   19  N   UNK N   1      33.749  15.812   8.748  0.00  0.00     0.091 N 
HETATM   20  C   UNK N   1      33.203  17.168   8.494  0.00  0.00     0.292 C 
BRANCH  19  21
HETATM   21  C   UNK N   1      34.823  16.114   9.631  0.00  0.00     0.277 C 
BRANCH  21  22
HETATM   22  C   UNK N   1      35.858  15.008   9.476  0.00  0.00     0.068 C 
BRANCH  22  23
HETATM   23  C   UNK N   1      36.073  14.589  10.746  0.00  0.00    -0.056 A 
HETATM   24  C   UNK N   1      36.424  13.273  10.854  0.00  0.00     0.010 A 
HETATM   25  C   UNK N   1      36.668  12.767  12.092  0.00  0.00     0.043 A 
HETATM   26  C   UNK N   1      36.543  13.594  13.203  0.00  0.00     0.116 A 
HETATM   27  C   UNK N   1      36.128  14.930  13.085  0.00  0.00     0.043 A 
HETATM   28  F   UNK N   1      36.884  13.104  14.396  0.00  0.00    -0.206 F 
HETATM   29  C   UNK N   1      35.878  15.440  11.827  0.00  0.00     0.010 A 
ENDBRANCH  22  23
ENDBRANCH  21  22
ENDBRANCH  19  21
ENDBRANCH   8  13
TORSDOF 4
ENDMDL
MODEL 9
REMARK VINA RESULT:      -7.0      9.247     12.077
REMARK  4 active torsions:
REMARK  status: ('A' for Active; 'I' for Inactive)
REMARK    1  A    between atoms: C_8  and  C_10 
REMARK       I    between atoms: C_10  and  N_12 
REMARK    2  A    between atoms: N_15  and  C_18 
REMARK    3  A    between atoms: C_18  and  C_19 
REMARK    4  A    between atoms: C_19  and  C_20 
ROOT
HETATM    1  C   UNK N   1      28.931  17.534   8.352  0.00  0.00     0.002 A 
HETATM    2  C   UNK N   1      28.193  18.662   7.984  0.00  0.00     0.015 A 
HETATM    3  C   UNK N   1      28.211  19.021   6.631  0.00  0.00     0.014 A 
HETATM    4  C   UNK N   1      27.596  20.012   5.948  0.00  0.00     0.072 A 
HETATM    5  C   UNK N   1      27.969  19.919   4.623  0.00  0.00     0.112 A 
HETATM    6  N   UNK N   1      28.794  18.880   4.478  0.00  0.00    -0.363 N 
HETATM    7  C   UNK N   1      28.909  18.341   5.699  0.00  0.00     0.059 A 
HETATM    8  C   UNK N   1      29.638  17.261   5.988  0.00  0.00     0.059 A 
HETATM    9  C   UNK N   1      29.639  16.842   7.356  0.00  0.00     0.019 A 
HETATM   10  C   UNK N   1      26.692  20.955   6.453  0.00  0.00     0.102 C 
HETATM   11  N   UNK N   1      25.947  21.743   6.835  0.00  0.00    -0.191 NA
HETATM   12  H   UNK N   1      29.228  18.575   3.649  0.00  0.00     0.165 HD
ENDROOT
BRANCH   8  13
HETATM   13  C   UNK N   1      30.378  16.659   4.835  0.00  0.00     0.256 C 
HETATM   14  O   UNK N   1      31.253  17.309   4.277  0.00  0.00    -0.267 OA
HETATM   15  N   UNK N   1      30.126  15.400   4.422  0.00  0.00    -0.345 N 
HETATM   16  C   UNK N   1      30.465  15.024   3.087  0.00  0.00     0.156 C 
HETATM   17  C   UNK N   1      29.102  14.652   5.052  0.00  0.00     0.156 C 
HETATM   18  C   UNK N   1      29.136  15.005   2.326  0.00  0.00     0.292 C 
HETATM   19  N   UNK N   1      28.024  15.671   3.076  0.00  0.00     0.091 N 
HETATM   20  C   UNK N   1      27.893  15.342   4.517  0.00  0.00     0.292 C 
BRANCH  19  21
HETATM   21  C   UNK N   1      26.829  15.099   2.559  0.00  0.00     0.277 C 
BRANCH  21  22
HETATM   22  C   UNK N   1      25.673  15.652   3.380  0.00  0.00     0.068 C 
BRANCH  22  23
HETATM   23  C   UNK N   1      24.573  15.274   2.684  0.00  0.00    -0.056 A 
HETATM   24  C   UNK N   1      24.843  14.646   1.501  0.00  0.00     0.010 A 
HETATM   25  C   UNK N   1      23.800  14.224   0.739  0.00  0.00     0.043 A 
HETATM   26  C   UNK N   1      22.499  14.451   1.179  0.00  0.00     0.116 A 
HETATM   27  C   UNK N   1      22.234  15.145   2.370  0.00  0.00     0.043 A 
HETATM   28  F   UNK N   1      21.495  13.940   0.465  0.00  0.00    -0.206 F 
HETATM   29  C   UNK N   1      23.296  15.576   3.139  0.00  0.00     0.010 A 
ENDBRANCH  22  23
ENDBRANCH  21  22
ENDBRANCH  19  21
ENDBRANCH   8  13
TORSDOF 4
ENDMDL
