MODEL 1
REMARK VINA RESULT:      -6.7      0.000      0.000
REMARK  11 active torsions:
REMARK  status: ('A' for Active; 'I' for Inactive)
REMARK    1  A    between atoms: C_2  and  C_4 
REMARK    2  A    between atoms: C_2  and  N_35 
REMARK       I    between atoms: C_4  and  N_6 
REMARK    3  A    between atoms: C_7  and  N_6 
REMARK    4  A    between atoms: C_7  and  C_8 
REMARK    5  A    between atoms: C_7  and  C_18 
REMARK    6  A    between atoms: C_8  and  C_9 
REMARK       I    between atoms: C_18  and  N_20 
REMARK    7  A    between atoms: C_21  and  N_20 
REMARK    8  A    between atoms: C_21  and  C_22 
REMARK    9  A    between atoms: C_21  and  N_32 
REMARK   10  A    between atoms: C_22  and  C_23 
REMARK   11  A    between atoms: N_32  and  C_33 
ROOT
HETATM    1  C   UNK N   1      22.874  17.463   5.297  0.00  0.00     0.181 C 
ENDROOT
BRANCH   1   2
HETATM    2  N   UNK N   1      24.156  18.097   5.555  0.00  0.00    -0.345 N 
HETATM    3  C   UNK N   1      24.903  18.751   4.627  0.00  0.00     0.245 C 
HETATM    4  O   UNK N   1      24.506  18.859   3.474  0.00  0.00    -0.271 OA
HETATM    5  H   UNK N   1      24.511  18.048   6.473  0.00  0.00     0.163 HD
BRANCH   3   6
HETATM    6  C   UNK N   1      26.228  19.356   5.015  0.00  0.00     0.098 C 
HETATM    7  C   UNK N   1      26.759  20.212   3.880  0.00  0.00     0.048 C 
HETATM    8  C   UNK N   1      27.223  18.250   5.309  0.00  0.00     0.048 C 
BRANCH   6   9
HETATM    9  N   UNK N   1      26.090  20.188   6.201  0.00  0.00    -0.415 N 
HETATM   10  H   UNK N   1      26.471  21.108   6.425  0.00  0.00     0.151 HD
HETATM   11  H   UNK N   1      25.512  19.781   6.935  0.00  0.00     0.151 HD
ENDBRANCH   6   9
ENDBRANCH   3   6
ENDBRANCH   1   2
BRANCH   1  12
HETATM   12  C   UNK N   1      22.760  16.161   6.099  0.00  0.00     0.075 C 
BRANCH  12  13
HETATM   13  C   UNK N   1      22.910  14.961   5.217  0.00  0.00    -0.028 A 
HETATM   14  C   UNK N   1      23.420  14.943   3.921  0.00  0.00     0.096 A 
HETATM   15  N   UNK N   1      23.476  13.667   3.474  0.00  0.00    -0.365 N 
HETATM   16  C   UNK N   1      23.011  12.897   4.482  0.00  0.00     0.042 A 
HETATM   17  H   UNK N   1      23.792  13.360   2.593  0.00  0.00     0.165 HD
HETATM   18  C   UNK N   1      22.653  13.664   5.551  0.00  0.00    -0.002 A 
HETATM   19  C   UNK N   1      22.912  11.513   4.498  0.00  0.00     0.030 A 
HETATM   20  C   UNK N   1      22.161  13.100   6.729  0.00  0.00     0.014 A 
HETATM   21  C   UNK N   1      22.042  11.701   6.781  0.00  0.00     0.001 A 
HETATM   22  C   UNK N   1      22.419  10.909   5.671  0.00  0.00     0.002 A 
ENDBRANCH  12  13
ENDBRANCH   1  12
BRANCH   1  23
HETATM   23  C   UNK N   1      21.720  18.401   5.581  0.00  0.00     0.242 C 
HETATM   24  O   UNK N   1      21.426  18.660   6.738  0.00  0.00    -0.271 OA
HETATM   25  N   UNK N   1      21.030  19.008   4.577  0.00  0.00    -0.338 N 
HETATM   26  H   UNK N   1      20.343  19.663   4.839  0.00  0.00     0.164 HD
BRANCH  25  27
HETATM   27  C   UNK N   1      21.214  18.779   3.155  0.00  0.00     0.190 C 
BRANCH  27  28
HETATM   28  C   UNK N   1      19.968  18.229   2.471  0.00  0.00     0.087 C 
BRANCH  28  29
HETATM   29  C   UNK N   1      20.086  16.772   2.209  0.00  0.00    -0.027 A 
HETATM   30  C   UNK N   1      20.549  16.154   1.053  0.00  0.00     0.096 A 
HETATM   31  N   UNK N   1      20.515  14.807   1.219  0.00  0.00    -0.365 N 
HETATM   32  C   UNK N   1      20.033  14.597   2.458  0.00  0.00     0.042 A 
HETATM   33  H   UNK N   1      20.787  14.123   0.565  0.00  0.00     0.165 HD
HETATM   34  C   UNK N   1      19.758  15.777   3.084  0.00  0.00    -0.002 A 
HETATM   35  C   UNK N   1      19.824  13.371   3.081  0.00  0.00     0.030 A 
HETATM   36  C   UNK N   1      19.247  15.828   4.379  0.00  0.00     0.014 A 
HETATM   37  C   UNK N   1      19.019  14.606   5.038  0.00  0.00     0.001 A 
HETATM   38  C   UNK N   1      19.309  13.382   4.392  0.00  0.00     0.002 A 
ENDBRANCH  28  29
ENDBRANCH  27  28
BRANCH  27  39
HETATM   39  N   UNK N   1      21.673  19.974   2.502  0.00  0.00    -0.347 N 
HETATM   40  H   UNK N   1      22.516  20.400   2.780  0.00  0.00     0.163 HD
BRANCH  39  41
HETATM   41  C   UNK N   1      20.937  20.509   1.506  0.00  0.00     0.350 C 
HETATM   42  O   UNK N   1      21.442  20.717   0.416  0.00  0.00    -0.284 OA
ENDBRANCH  39  41
ENDBRANCH  27  39
ENDBRANCH  25  27
ENDBRANCH   1  23
TORSDOF 11
ENDMDL
MODEL 2
REMARK VINA RESULT:      -6.6      2.685      6.443
REMARK  11 active torsions:
REMARK  status: ('A' for Active; 'I' for Inactive)
REMARK    1  A    between atoms: C_2  and  C_4 
REMARK    2  A    between atoms: C_2  and  N_35 
REMARK       I    between atoms: C_4  and  N_6 
REMARK    3  A    between atoms: C_7  and  N_6 
REMARK    4  A    between atoms: C_7  and  C_8 
REMARK    5  A    between atoms: C_7  and  C_18 
REMARK    6  A    between atoms: C_8  and  C_9 
REMARK       I    between atoms: C_18  and  N_20 
REMARK    7  A    between atoms: C_21  and  N_20 
REMARK    8  A    between atoms: C_21  and  C_22 
REMARK    9  A    between atoms: C_21  and  N_32 
REMARK   10  A    between atoms: C_22  and  C_23 
REMARK   11  A    between atoms: N_32  and  C_33 
ROOT
HETATM    1  C   UNK N   1      22.177  17.646   5.053  0.00  0.00     0.181 C 
ENDROOT
BRANCH   1   2
HETATM    2  N   UNK N   1      21.350  18.178   3.983  0.00  0.00    -0.345 N 
HETATM    3  C   UNK N   1      20.984  17.494   2.867  0.00  0.00     0.245 C 
HETATM    4  O   UNK N   1      21.336  16.334   2.706  0.00  0.00    -0.271 OA
HETATM    5  H   UNK N   1      21.030  19.106   4.073  0.00  0.00     0.163 HD
BRANCH   3   6
HETATM    6  C   UNK N   1      20.133  18.163   1.818  0.00  0.00     0.098 C 
HETATM    7  C   UNK N   1      20.097  17.313   0.561  0.00  0.00     0.048 C 
HETATM    8  C   UNK N   1      20.718  19.521   1.481  0.00  0.00     0.048 C 
BRANCH   6   9
HETATM    9  N   UNK N   1      18.770  18.346   2.295  0.00  0.00    -0.415 N 
HETATM   10  H   UNK N   1      18.370  19.026   2.941  0.00  0.00     0.151 HD
HETATM   11  H   UNK N   1      18.099  17.678   1.917  0.00  0.00     0.151 HD
ENDBRANCH   6   9
ENDBRANCH   3   6
ENDBRANCH   1   2
BRANCH   1  12
HETATM   12  C   UNK N   1      23.484  18.442   5.152  0.00  0.00     0.075 C 
BRANCH  12  13
HETATM   13  C   UNK N   1      24.675  17.570   4.911  0.00  0.00    -0.028 A 
HETATM   14  C   UNK N   1      24.661  16.207   4.624  0.00  0.00     0.096 A 
HETATM   15  N   UNK N   1      25.923  15.780   4.388  0.00  0.00    -0.365 N 
HETATM   16  C   UNK N   1      26.716  16.865   4.521  0.00  0.00     0.042 A 
HETATM   17  H   UNK N   1      26.207  14.864   4.165  0.00  0.00     0.165 HD
HETATM   18  C   UNK N   1      25.979  17.966   4.847  0.00  0.00    -0.002 A 
HETATM   19  C   UNK N   1      28.090  16.923   4.339  0.00  0.00     0.030 A 
HETATM   20  C   UNK N   1      26.567  19.219   5.020  0.00  0.00     0.014 A 
HETATM   21  C   UNK N   1      27.958  19.317   4.848  0.00  0.00     0.001 A 
HETATM   22  C   UNK N   1      28.718  18.173   4.506  0.00  0.00     0.002 A 
ENDBRANCH  12  13
ENDBRANCH   1  12
BRANCH   1  23
HETATM   23  C   UNK N   1      21.434  17.618   6.371  0.00  0.00     0.242 C 
HETATM   24  O   UNK N   1      21.242  18.660   6.977  0.00  0.00    -0.271 OA
HETATM   25  N   UNK N   1      20.926  16.462   6.878  0.00  0.00    -0.338 N 
HETATM   26  H   UNK N   1      20.389  16.532   7.701  0.00  0.00     0.164 HD
BRANCH  25  27
HETATM   27  C   UNK N   1      21.100  15.133   6.317  0.00  0.00     0.190 C 
BRANCH  27  28
HETATM   28  C   UNK N   1      20.931  14.022   7.346  0.00  0.00     0.087 C 
BRANCH  28  29
HETATM   29  C   UNK N   1      22.228  13.649   7.965  0.00  0.00    -0.027 A 
HETATM   30  C   UNK N   1      23.501  13.816   7.431  0.00  0.00     0.096 A 
HETATM   31  N   UNK N   1      24.424  13.361   8.316  0.00  0.00    -0.365 N 
HETATM   32  C   UNK N   1      23.730  12.914   9.380  0.00  0.00     0.042 A 
HETATM   33  H   UNK N   1      25.402  13.358   8.204  0.00  0.00     0.165 HD
HETATM   34  C   UNK N   1      22.389  13.072   9.192  0.00  0.00    -0.002 A 
HETATM   35  C   UNK N   1      24.246  12.360  10.546  0.00  0.00     0.030 A 
HETATM   36  C   UNK N   1      21.455  12.686  10.151  0.00  0.00     0.014 A 
HETATM   37  C   UNK N   1      21.941  12.117  11.341  0.00  0.00     0.001 A 
HETATM   38  C   UNK N   1      23.332  11.958  11.540  0.00  0.00     0.002 A 
ENDBRANCH  28  29
ENDBRANCH  27  28
BRANCH  27  39
HETATM   39  N   UNK N   1      20.222  14.934   5.197  0.00  0.00    -0.347 N 
HETATM   40  H   UNK N   1      20.550  14.496   4.379  0.00  0.00     0.163 HD
BRANCH  39  41
HETATM   41  C   UNK N   1      18.943  15.354   5.276  0.00  0.00     0.350 C 
HETATM   42  O   UNK N   1      18.028  14.571   5.086  0.00  0.00    -0.284 OA
ENDBRANCH  39  41
ENDBRANCH  27  39
ENDBRANCH  25  27
ENDBRANCH   1  23
TORSDOF 11
ENDMDL
MODEL 3
REMARK VINA RESULT:      -6.5     12.542     16.591
REMARK  11 active torsions:
REMARK  status: ('A' for Active; 'I' for Inactive)
REMARK    1  A    between atoms: C_2  and  C_4 
REMARK    2  A    between atoms: C_2  and  N_35 
REMARK       I    between atoms: C_4  and  N_6 
REMARK    3  A    between atoms: C_7  and  N_6 
REMARK    4  A    between atoms: C_7  and  C_8 
REMARK    5  A    between atoms: C_7  and  C_18 
REMARK    6  A    between atoms: C_8  and  C_9 
REMARK       I    between atoms: C_18  and  N_20 
REMARK    7  A    between atoms: C_21  and  N_20 
REMARK    8  A    between atoms: C_21  and  C_22 
REMARK    9  A    between atoms: C_21  and  N_32 
REMARK   10  A    between atoms: C_22  and  C_23 
REMARK   11  A    between atoms: N_32  and  C_33 
ROOT
HETATM    1  C   UNK N   1      26.661  24.867  -5.309  0.00  0.00     0.181 C 
ENDROOT
BRANCH   1   2
HETATM    2  N   UNK N   1      26.331  23.856  -6.299  0.00  0.00    -0.345 N 
HETATM    3  C   UNK N   1      27.228  23.022  -6.889  0.00  0.00     0.245 C 
HETATM    4  O   UNK N   1      28.413  23.071  -6.589  0.00  0.00    -0.271 OA
HETATM    5  H   UNK N   1      25.386  23.769  -6.564  0.00  0.00     0.163 HD
BRANCH   3   6
HETATM    6  C   UNK N   1      26.764  22.022  -7.918  0.00  0.00     0.098 C 
HETATM    7  C   UNK N   1      26.699  22.678  -9.284  0.00  0.00     0.048 C 
HETATM    8  C   UNK N   1      25.383  21.516  -7.545  0.00  0.00     0.048 C 
BRANCH   6   9
HETATM    9  N   UNK N   1      27.674  20.889  -7.987  0.00  0.00    -0.415 N 
HETATM   10  H   UNK N   1      27.850  20.126  -7.333  0.00  0.00     0.151 HD
HETATM   11  H   UNK N   1      28.234  20.852  -8.838  0.00  0.00     0.151 HD
ENDBRANCH   6   9
ENDBRANCH   3   6
ENDBRANCH   1   2
BRANCH   1  12
HETATM   12  C   UNK N   1      25.576  25.951  -5.282  0.00  0.00     0.075 C 
BRANCH  12  13
HETATM   13  C   UNK N   1      26.080  27.214  -4.658  0.00  0.00    -0.028 A 
HETATM   14  C   UNK N   1      25.886  27.622  -3.340  0.00  0.00     0.096 A 
HETATM   15  N   UNK N   1      26.558  28.777  -3.120  0.00  0.00    -0.365 N 
HETATM   16  C   UNK N   1      27.167  29.082  -4.286  0.00  0.00     0.042 A 
HETATM   17  H   UNK N   1      26.595  29.290  -2.281  0.00  0.00     0.165 HD
HETATM   18  C   UNK N   1      26.885  28.149  -5.239  0.00  0.00    -0.002 A 
HETATM   19  C   UNK N   1      27.999  30.165  -4.535  0.00  0.00     0.030 A 
HETATM   20  C   UNK N   1      27.415  28.230  -6.527  0.00  0.00     0.014 A 
HETATM   21  C   UNK N   1      28.258  29.315  -6.819  0.00  0.00     0.001 A 
HETATM   22  C   UNK N   1      28.553  30.279  -5.825  0.00  0.00     0.002 A 
ENDBRANCH  12  13
ENDBRANCH   1  12
BRANCH   1  23
HETATM   23  C   UNK N   1      26.880  24.257  -3.941  0.00  0.00     0.242 C 
HETATM   24  O   UNK N   1      25.924  23.839  -3.308  0.00  0.00    -0.271 OA
HETATM   25  N   UNK N   1      28.127  24.116  -3.415  0.00  0.00    -0.338 N 
HETATM   26  H   UNK N   1      28.199  23.642  -2.555  0.00  0.00     0.164 HD
BRANCH  25  27
HETATM   27  C   UNK N   1      29.363  24.598  -4.006  0.00  0.00     0.190 C 
BRANCH  27  28
HETATM   28  C   UNK N   1      29.609  26.081  -3.753  0.00  0.00     0.087 C 
BRANCH  28  29
HETATM   29  C   UNK N   1      30.361  26.708  -4.869  0.00  0.00    -0.027 A 
HETATM   30  C   UNK N   1      30.468  26.255  -6.180  0.00  0.00     0.096 A 
HETATM   31  N   UNK N   1      31.231  27.120  -6.894  0.00  0.00    -0.365 N 
HETATM   32  C   UNK N   1      31.596  28.091  -6.036  0.00  0.00     0.042 A 
HETATM   33  H   UNK N   1      31.471  27.052  -7.846  0.00  0.00     0.165 HD
HETATM   34  C   UNK N   1      31.084  27.864  -4.792  0.00  0.00    -0.002 A 
HETATM   35  C   UNK N   1      32.381  29.205  -6.312  0.00  0.00     0.030 A 
HETATM   36  C   UNK N   1      31.319  28.727  -3.724  0.00  0.00     0.014 A 
HETATM   37  C   UNK N   1      32.112  29.862  -3.967  0.00  0.00     0.001 A 
HETATM   38  C   UNK N   1      32.639  30.102  -5.257  0.00  0.00     0.002 A 
ENDBRANCH  28  29
ENDBRANCH  27  28
BRANCH  27  39
HETATM   39  N   UNK N   1      30.481  23.810  -3.563  0.00  0.00    -0.347 N 
HETATM   40  H   UNK N   1      31.381  23.975  -3.925  0.00  0.00     0.163 HD
BRANCH  39  41
HETATM   41  C   UNK N   1      30.284  22.839  -2.648  0.00  0.00     0.350 C 
HETATM   42  O   UNK N   1      30.405  23.085  -1.460  0.00  0.00    -0.284 OA
ENDBRANCH  39  41
ENDBRANCH  27  39
ENDBRANCH  25  27
ENDBRANCH   1  23
TORSDOF 11
ENDMDL
MODEL 4
REMARK VINA RESULT:      -6.5     12.047     15.777
REMARK  11 active torsions:
REMARK  status: ('A' for Active; 'I' for Inactive)
REMARK    1  A    between atoms: C_2  and  C_4 
REMARK    2  A    between atoms: C_2  and  N_35 
REMARK       I    between atoms: C_4  and  N_6 
REMARK    3  A    between atoms: C_7  and  N_6 
REMARK    4  A    between atoms: C_7  and  C_8 
REMARK    5  A    between atoms: C_7  and  C_18 
REMARK    6  A    between atoms: C_8  and  C_9 
REMARK       I    between atoms: C_18  and  N_20 
REMARK    7  A    between atoms: C_21  and  N_20 
REMARK    8  A    between atoms: C_21  and  C_22 
REMARK    9  A    between atoms: C_21  and  N_32 
REMARK   10  A    between atoms: C_22  and  C_23 
REMARK   11  A    between atoms: N_32  and  C_33 
ROOT
HETATM    1  C   UNK N   1      36.549  14.217  10.995  0.00  0.00     0.181 C 
ENDROOT
BRANCH   1   2
HETATM    2  N   UNK N   1      36.905  14.068  12.397  0.00  0.00    -0.345 N 
HETATM    3  C   UNK N   1      36.059  13.652  13.376  0.00  0.00     0.245 C 
HETATM    4  O   UNK N   1      34.903  13.350  13.111  0.00  0.00    -0.271 OA
HETATM    5  H   UNK N   1      37.830  14.286  12.657  0.00  0.00     0.163 HD
BRANCH   3   6
HETATM    6  C   UNK N   1      36.544  13.553  14.799  0.00  0.00     0.098 C 
HETATM    7  C   UNK N   1      35.401  13.142  15.708  0.00  0.00     0.048 C 
HETATM    8  C   UNK N   1      37.075  14.901  15.249  0.00  0.00     0.048 C 
BRANCH   6   9
HETATM    9  N   UNK N   1      37.609  12.568  14.917  0.00  0.00    -0.415 N 
HETATM   10  H   UNK N   1      38.203  12.133  14.211  0.00  0.00     0.151 HD
HETATM   11  H   UNK N   1      37.792  12.259  15.871  0.00  0.00     0.151 HD
ENDBRANCH   6   9
ENDBRANCH   3   6
ENDBRANCH   1   2
BRANCH   1  12
HETATM   12  C   UNK N   1      36.030  15.635  10.732  0.00  0.00     0.075 C 
BRANCH  12  13
HETATM   13  C   UNK N   1      34.628  15.615  10.208  0.00  0.00    -0.028 A 
HETATM   14  C   UNK N   1      33.610  14.746  10.596  0.00  0.00     0.096 A 
HETATM   15  N   UNK N   1      32.461  15.084   9.965  0.00  0.00    -0.365 N 
HETATM   16  C   UNK N   1      32.757  16.155   9.197  0.00  0.00     0.042 A 
HETATM   17  H   UNK N   1      31.586  14.640  10.049  0.00  0.00     0.165 HD
HETATM   18  C   UNK N   1      34.073  16.492   9.323  0.00  0.00    -0.002 A 
HETATM   19  C   UNK N   1      31.884  16.872   8.392  0.00  0.00     0.030 A 
HETATM   20  C   UNK N   1      34.621  17.580   8.644  0.00  0.00     0.014 A 
HETATM   21  C   UNK N   1      33.769  18.328   7.815  0.00  0.00     0.001 A 
HETATM   22  C   UNK N   1      32.403  17.978   7.691  0.00  0.00     0.002 A 
ENDBRANCH  12  13
ENDBRANCH   1  12
BRANCH   1  23
HETATM   23  C   UNK N   1      37.707  13.864  10.086  0.00  0.00     0.242 C 
HETATM   24  O   UNK N   1      38.553  14.707   9.834  0.00  0.00    -0.271 OA
HETATM   25  N   UNK N   1      37.859  12.611   9.579  0.00  0.00    -0.338 N 
HETATM   26  H   UNK N   1      38.676  12.435   9.057  0.00  0.00     0.164 HD
BRANCH  25  27
HETATM   27  C   UNK N   1      36.928  11.507   9.736  0.00  0.00     0.190 C 
BRANCH  27  28
HETATM   28  C   UNK N   1      36.380  10.993   8.410  0.00  0.00     0.087 C 
BRANCH  28  29
HETATM   29  C   UNK N   1      35.161  11.735   7.999  0.00  0.00    -0.027 A 
HETATM   30  C   UNK N   1      33.839  11.429   8.306  0.00  0.00     0.096 A 
HETATM   31  N   UNK N   1      33.022  12.363   7.756  0.00  0.00    -0.365 N 
HETATM   32  C   UNK N   1      33.827  13.230   7.114  0.00  0.00     0.042 A 
HETATM   33  H   UNK N   1      32.040  12.398   7.814  0.00  0.00     0.165 HD
HETATM   34  C   UNK N   1      35.136  12.870   7.240  0.00  0.00    -0.002 A 
HETATM   35  C   UNK N   1      33.444  14.362   6.402  0.00  0.00     0.030 A 
HETATM   36  C   UNK N   1      36.168  13.607   6.664  0.00  0.00     0.014 A 
HETATM   37  C   UNK N   1      35.817  14.757   5.934  0.00  0.00     0.001 A 
HETATM   38  C   UNK N   1      34.460  15.134   5.806  0.00  0.00     0.002 A 
ENDBRANCH  28  29
ENDBRANCH  27  28
BRANCH  27  39
HETATM   39  N   UNK N   1      37.527  10.440  10.491  0.00  0.00    -0.347 N 
HETATM   40  H   UNK N   1      37.827   9.618  10.040  0.00  0.00     0.163 HD
BRANCH  39  41
HETATM   41  C   UNK N   1      37.672  10.575  11.825  0.00  0.00     0.350 C 
HETATM   42  O   UNK N   1      36.698  10.513  12.556  0.00  0.00    -0.284 OA
ENDBRANCH  39  41
ENDBRANCH  27  39
ENDBRANCH  25  27
ENDBRANCH   1  23
TORSDOF 11
ENDMDL
MODEL 5
REMARK VINA RESULT:      -6.5      1.525      2.033
REMARK  11 active torsions:
REMARK  status: ('A' for Active; 'I' for Inactive)
REMARK    1  A    between atoms: C_2  and  C_4 
REMARK    2  A    between atoms: C_2  and  N_35 
REMARK       I    between atoms: C_4  and  N_6 
REMARK    3  A    between atoms: C_7  and  N_6 
REMARK    4  A    between atoms: C_7  and  C_8 
REMARK    5  A    between atoms: C_7  and  C_18 
REMARK    6  A    between atoms: C_8  and  C_9 
REMARK       I    between atoms: C_18  and  N_20 
REMARK    7  A    between atoms: C_21  and  N_20 
REMARK    8  A    between atoms: C_21  and  C_22 
REMARK    9  A    between atoms: C_21  and  N_32 
REMARK   10  A    between atoms: C_22  and  C_23 
REMARK   11  A    between atoms: N_32  and  C_33 
ROOT
HETATM    1  C   UNK N   1      22.998  17.487   4.999  0.00  0.00     0.181 C 
ENDROOT
BRANCH   1   2
HETATM    2  N   UNK N   1      24.306  18.014   5.350  0.00  0.00    -0.345 N 
HETATM    3  C   UNK N   1      24.929  19.042   4.715  0.00  0.00     0.245 C 
HETATM    4  O   UNK N   1      24.386  19.614   3.780  0.00  0.00    -0.271 OA
HETATM    5  H   UNK N   1      24.778  17.593   6.106  0.00  0.00     0.163 HD
BRANCH   3   6
HETATM    6  C   UNK N   1      26.297  19.488   5.165  0.00  0.00     0.098 C 
HETATM    7  C   UNK N   1      26.197  20.823   5.877  0.00  0.00     0.048 C 
HETATM    8  C   UNK N   1      27.204  19.637   3.958  0.00  0.00     0.048 C 
BRANCH   6   9
HETATM    9  N   UNK N   1      26.885  18.517   6.075  0.00  0.00    -0.415 N 
HETATM   10  H   UNK N   1      27.333  18.634   6.985  0.00  0.00     0.151 HD
HETATM   11  H   UNK N   1      26.843  17.553   5.746  0.00  0.00     0.151 HD
ENDBRANCH   6   9
ENDBRANCH   3   6
ENDBRANCH   1   2
BRANCH   1  12
HETATM   12  C   UNK N   1      22.830  16.073   5.568  0.00  0.00     0.075 C 
BRANCH  12  13
HETATM   13  C   UNK N   1      23.890  15.148   5.056  0.00  0.00    -0.028 A 
HETATM   14  C   UNK N   1      24.855  14.492   5.817  0.00  0.00     0.096 A 
HETATM   15  N   UNK N   1      25.586  13.679   5.018  0.00  0.00    -0.365 N 
HETATM   16  C   UNK N   1      25.078  13.823   3.775  0.00  0.00     0.042 A 
HETATM   17  H   UNK N   1      26.334  13.100   5.288  0.00  0.00     0.165 HD
HETATM   18  C   UNK N   1      24.050  14.718   3.772  0.00  0.00    -0.002 A 
HETATM   19  C   UNK N   1      25.485  13.161   2.625  0.00  0.00     0.030 A 
HETATM   20  C   UNK N   1      23.345  15.026   2.607  0.00  0.00     0.014 A 
HETATM   21  C   UNK N   1      23.732  14.378   1.421  0.00  0.00     0.001 A 
HETATM   22  C   UNK N   1      24.796  13.446   1.430  0.00  0.00     0.002 A 
ENDBRANCH  12  13
ENDBRANCH   1  12
BRANCH   1  23
HETATM   23  C   UNK N   1      21.886  18.410   5.450  0.00  0.00     0.242 C 
HETATM   24  O   UNK N   1      21.707  18.599   6.643  0.00  0.00    -0.271 OA
HETATM   25  N   UNK N   1      21.108  19.078   4.556  0.00  0.00    -0.338 N 
HETATM   26  H   UNK N   1      20.455  19.718   4.922  0.00  0.00     0.164 HD
BRANCH  25  27
HETATM   27  C   UNK N   1      21.152  18.935   3.111  0.00  0.00     0.190 C 
BRANCH  27  28
HETATM   28  C   UNK N   1      19.836  18.445   2.518  0.00  0.00     0.087 C 
BRANCH  28  29
HETATM   29  C   UNK N   1      19.926  17.027   2.087  0.00  0.00    -0.027 A 
HETATM   30  C   UNK N   1      20.199  16.544   0.812  0.00  0.00     0.096 A 
HETATM   31  N   UNK N   1      20.208  15.187   0.837  0.00  0.00    -0.365 N 
HETATM   32  C   UNK N   1      19.939  14.836   2.109  0.00  0.00     0.042 A 
HETATM   33  H   UNK N   1      20.376  14.582   0.079  0.00  0.00     0.165 HD
HETATM   34  C   UNK N   1      19.758  15.937   2.893  0.00  0.00    -0.002 A 
HETATM   35  C   UNK N   1      19.849  13.548   2.624  0.00  0.00     0.030 A 
HETATM   36  C   UNK N   1      19.467  15.840   4.252  0.00  0.00     0.014 A 
HETATM   37  C   UNK N   1      19.364  14.552   4.806  0.00  0.00     0.001 A 
HETATM   38  C   UNK N   1      19.558  13.409   3.995  0.00  0.00     0.002 A 
ENDBRANCH  28  29
ENDBRANCH  27  28
BRANCH  27  39
HETATM   39  N   UNK N   1      21.569  20.163   2.490  0.00  0.00    -0.347 N 
HETATM   40  H   UNK N   1      22.351  20.653   2.833  0.00  0.00     0.163 HD
BRANCH  39  41
HETATM   41  C   UNK N   1      20.877  20.639   1.435  0.00  0.00     0.350 C 
HETATM   42  O   UNK N   1      21.423  20.765   0.352  0.00  0.00    -0.284 OA
ENDBRANCH  39  41
ENDBRANCH  27  39
ENDBRANCH  25  27
ENDBRANCH   1  23
TORSDOF 11
ENDMDL
MODEL 6
REMARK VINA RESULT:      -6.5     12.634     14.528
REMARK  11 active torsions:
REMARK  status: ('A' for Active; 'I' for Inactive)
REMARK    1  A    between atoms: C_2  and  C_4 
REMARK    2  A    between atoms: C_2  and  N_35 
REMARK       I    between atoms: C_4  and  N_6 
REMARK    3  A    between atoms: C_7  and  N_6 
REMARK    4  A    between atoms: C_7  and  C_8 
REMARK    5  A    between atoms: C_7  and  C_18 
REMARK    6  A    between atoms: C_8  and  C_9 
REMARK       I    between atoms: C_18  and  N_20 
REMARK    7  A    between atoms: C_21  and  N_20 
REMARK    8  A    between atoms: C_21  and  C_22 
REMARK    9  A    between atoms: C_21  and  N_32 
REMARK   10  A    between atoms: C_22  and  C_23 
REMARK   11  A    between atoms: N_32  and  C_33 
ROOT
HETATM    1  C   UNK N   1      28.260  24.718  -4.093  0.00  0.00     0.181 C 
ENDROOT
BRANCH   1   2
HETATM    2  N   UNK N   1      28.226  26.132  -3.758  0.00  0.00    -0.345 N 
HETATM    3  C   UNK N   1      27.636  27.098  -4.512  0.00  0.00     0.245 C 
HETATM    4  O   UNK N   1      27.063  26.809  -5.552  0.00  0.00    -0.271 OA
HETATM    5  H   UNK N   1      28.664  26.412  -2.921  0.00  0.00     0.163 HD
BRANCH   3   6
HETATM    6  C   UNK N   1      27.682  28.537  -4.063  0.00  0.00     0.098 C 
HETATM    7  C   UNK N   1      27.380  29.453  -5.234  0.00  0.00     0.048 C 
HETATM    8  C   UNK N   1      29.065  28.857  -3.527  0.00  0.00     0.048 C 
BRANCH   6   9
HETATM    9  N   UNK N   1      26.705  28.784  -3.014  0.00  0.00    -0.415 N 
HETATM   10  H   UNK N   1      26.457  28.244  -2.185  0.00  0.00     0.151 HD
HETATM   11  H   UNK N   1      26.175  29.648  -3.128  0.00  0.00     0.151 HD
ENDBRANCH   6   9
ENDBRANCH   3   6
ENDBRANCH   1   2
BRANCH   1  12
HETATM   12  C   UNK N   1      29.289  23.995  -3.216  0.00  0.00     0.075 C 
BRANCH  12  13
HETATM   13  C   UNK N   1      30.563  23.745  -3.961  0.00  0.00    -0.028 A 
HETATM   14  C   UNK N   1      31.490  24.705  -4.362  0.00  0.00     0.096 A 
HETATM   15  N   UNK N   1      32.553  24.095  -4.936  0.00  0.00    -0.365 N 
HETATM   16  C   UNK N   1      32.295  22.770  -4.889  0.00  0.00     0.042 A 
HETATM   17  H   UNK N   1      33.353  24.529  -5.312  0.00  0.00     0.165 HD
HETATM   18  C   UNK N   1      31.085  22.533  -4.306  0.00  0.00    -0.002 A 
HETATM   19  C   UNK N   1      33.116  21.743  -5.330  0.00  0.00     0.030 A 
HETATM   20  C   UNK N   1      30.599  21.239  -4.121  0.00  0.00     0.014 A 
HETATM   21  C   UNK N   1      31.401  20.172  -4.560  0.00  0.00     0.001 A 
HETATM   22  C   UNK N   1      32.658  20.422  -5.160  0.00  0.00     0.002 A 
ENDBRANCH  12  13
ENDBRANCH   1  12
BRANCH   1  23
HETATM   23  C   UNK N   1      26.888  24.087  -3.988  0.00  0.00     0.242 C 
HETATM   24  O   UNK N   1      26.371  23.951  -2.890  0.00  0.00    -0.271 OA
HETATM   25  N   UNK N   1      26.190  23.711  -5.093  0.00  0.00    -0.338 N 
HETATM   26  H   UNK N   1      25.274  23.378  -4.952  0.00  0.00     0.164 HD
BRANCH  25  27
HETATM   27  C   UNK N   1      26.670  23.756  -6.463  0.00  0.00     0.190 C 
BRANCH  27  28
HETATM   28  C   UNK N   1      27.027  22.383  -7.018  0.00  0.00     0.087 C 
BRANCH  28  29
HETATM   29  C   UNK N   1      28.454  22.311  -7.422  0.00  0.00    -0.027 A 
HETATM   30  C   UNK N   1      29.346  23.367  -7.573  0.00  0.00     0.096 A 
HETATM   31  N   UNK N   1      30.560  22.882  -7.937  0.00  0.00    -0.365 N 
HETATM   32  C   UNK N   1      30.418  21.545  -8.016  0.00  0.00     0.042 A 
HETATM   33  H   UNK N   1      31.378  23.401  -8.110  0.00  0.00     0.165 HD
HETATM   34  C   UNK N   1      29.143  21.169  -7.712  0.00  0.00    -0.002 A 
HETATM   35  C   UNK N   1      31.397  20.615  -8.350  0.00  0.00     0.030 A 
HETATM   36  C   UNK N   1      28.741  19.835  -7.722  0.00  0.00     0.014 A 
HETATM   37  C   UNK N   1      29.704  18.867  -8.060  0.00  0.00     0.001 A 
HETATM   38  C   UNK N   1      31.028  19.256  -8.370  0.00  0.00     0.002 A 
ENDBRANCH  28  29
ENDBRANCH  27  28
BRANCH  27  39
HETATM   39  N   UNK N   1      25.721  24.422  -7.313  0.00  0.00    -0.347 N 
HETATM   40  H   UNK N   1      25.238  25.218  -6.992  0.00  0.00     0.163 HD
BRANCH  39  41
HETATM   41  C   UNK N   1      25.495  23.946  -8.555  0.00  0.00     0.350 C 
HETATM   42  O   UNK N   1      24.409  23.474  -8.841  0.00  0.00    -0.284 OA
ENDBRANCH  39  41
ENDBRANCH  27  39
ENDBRANCH  25  27
ENDBRANCH   1  23
TORSDOF 11
ENDMDL
MODEL 7
REMARK VINA RESULT:      -6.3     13.068     15.850
REMARK  11 active torsions:
REMARK  status: ('A' for Active; 'I' for Inactive)
REMARK    1  A    between atoms: C_2  and  C_4 
REMARK    2  A    between atoms: C_2  and  N_35 
REMARK       I    between atoms: C_4  and  N_6 
REMARK    3  A    between atoms: C_7  and  N_6 
REMARK    4  A    between atoms: C_7  and  C_8 
REMARK    5  A    between atoms: C_7  and  C_18 
REMARK    6  A    between atoms: C_8  and  C_9 
REMARK       I    between atoms: C_18  and  N_20 
REMARK    7  A    between atoms: C_21  and  N_20 
REMARK    8  A    between atoms: C_21  and  C_22 
REMARK    9  A    between atoms: C_21  and  N_32 
REMARK   10  A    between atoms: C_22  and  C_23 
REMARK   11  A    between atoms: N_32  and  C_33 
ROOT
HETATM    1  C   UNK N   1      28.925  23.502  -8.246  0.00  0.00     0.181 C 
ENDROOT
BRANCH   1   2
HETATM    2  N   UNK N   1      29.724  22.291  -8.161  0.00  0.00    -0.345 N 
HETATM    3  C   UNK N   1      29.816  21.493  -7.064  0.00  0.00     0.245 C 
HETATM    4  O   UNK N   1      29.186  21.758  -6.049  0.00  0.00    -0.271 OA
HETATM    5  H   UNK N   1      30.240  22.030  -8.958  0.00  0.00     0.163 HD
BRANCH   3   6
HETATM    6  C   UNK N   1      30.695  20.269  -7.094  0.00  0.00     0.098 C 
HETATM    7  C   UNK N   1      31.864  20.494  -8.035  0.00  0.00     0.048 C 
HETATM    8  C   UNK N   1      29.890  19.079  -7.581  0.00  0.00     0.048 C 
BRANCH   6   9
HETATM    9  N   UNK N   1      31.215  19.971  -5.768  0.00  0.00    -0.415 N 
HETATM   10  H   UNK N   1      32.119  19.606  -5.467  0.00  0.00     0.151 HD
HETATM   11  H   UNK N   1      30.561  20.158  -5.009  0.00  0.00     0.151 HD
ENDBRANCH   6   9
ENDBRANCH   3   6
ENDBRANCH   1   2
BRANCH   1  12
HETATM   12  C   UNK N   1      29.835  24.736  -8.239  0.00  0.00     0.075 C 
BRANCH  12  13
HETATM   13  C   UNK N   1      29.729  25.486  -6.949  0.00  0.00    -0.028 A 
HETATM   14  C   UNK N   1      30.197  25.068  -5.705  0.00  0.00     0.096 A 
HETATM   15  N   UNK N   1      29.994  26.046  -4.792  0.00  0.00    -0.365 N 
HETATM   16  C   UNK N   1      29.410  27.065  -5.459  0.00  0.00     0.042 A 
HETATM   17  H   UNK N   1      30.224  26.021  -3.835  0.00  0.00     0.165 HD
HETATM   18  C   UNK N   1      29.231  26.744  -6.773  0.00  0.00    -0.002 A 
HETATM   19  C   UNK N   1      29.043  28.300  -4.944  0.00  0.00     0.030 A 
HETATM   20  C   UNK N   1      28.664  27.641  -7.678  0.00  0.00     0.014 A 
HETATM   21  C   UNK N   1      28.276  28.901  -7.192  0.00  0.00     0.001 A 
HETATM   22  C   UNK N   1      28.467  29.231  -5.829  0.00  0.00     0.002 A 
ENDBRANCH  12  13
ENDBRANCH   1  12
BRANCH   1  23
HETATM   23  C   UNK N   1      28.012  23.483  -9.453  0.00  0.00     0.242 C 
HETATM   24  O   UNK N   1      28.495  23.525 -10.574  0.00  0.00    -0.271 OA
HETATM   25  N   UNK N   1      26.662  23.369  -9.325  0.00  0.00    -0.338 N 
HETATM   26  H   UNK N   1      26.140  23.288 -10.156  0.00  0.00     0.164 HD
BRANCH  25  27
HETATM   27  C   UNK N   1      25.921  23.357  -8.076  0.00  0.00     0.190 C 
BRANCH  27  28
HETATM   28  C   UNK N   1      25.620  24.752  -7.544  0.00  0.00     0.087 C 
BRANCH  28  29
HETATM   29  C   UNK N   1      26.013  24.890  -6.119  0.00  0.00    -0.027 A 
HETATM   30  C   UNK N   1      26.617  23.933  -5.310  0.00  0.00     0.096 A 
HETATM   31  N   UNK N   1      26.827  24.456  -4.076  0.00  0.00    -0.365 N 
HETATM   32  C   UNK N   1      26.354  25.715  -4.119  0.00  0.00     0.042 A 
HETATM   33  H   UNK N   1      27.241  24.005  -3.304  0.00  0.00     0.165 HD
HETATM   34  C   UNK N   1      25.847  26.006  -5.351  0.00  0.00    -0.002 A 
HETATM   35  C   UNK N   1      26.355  26.649  -3.088  0.00  0.00     0.030 A 
HETATM   36  C   UNK N   1      25.296  27.250  -5.651  0.00  0.00     0.014 A 
HETATM   37  C   UNK N   1      25.277  28.217  -4.631  0.00  0.00     0.001 A 
HETATM   38  C   UNK N   1      25.807  27.919  -3.354  0.00  0.00     0.002 A 
ENDBRANCH  28  29
ENDBRANCH  27  28
BRANCH  27  39
HETATM   39  N   UNK N   1      24.714  22.587  -8.209  0.00  0.00    -0.347 N 
HETATM   40  H   UNK N   1      23.968  22.922  -8.758  0.00  0.00     0.163 HD
BRANCH  39  41
HETATM   41  C   UNK N   1      24.611  21.401  -7.575  0.00  0.00     0.350 C 
HETATM   42  O   UNK N   1      24.005  21.322  -6.521  0.00  0.00    -0.284 OA
ENDBRANCH  39  41
ENDBRANCH  27  39
ENDBRANCH  25  27
ENDBRANCH   1  23
TORSDOF 11
ENDMDL
MODEL 8
REMARK VINA RESULT:      -6.1     11.249     14.831
REMARK  11 active torsions:
REMARK  status: ('A' for Active; 'I' for Inactive)
REMARK    1  A    between atoms: C_2  and  C_4 
REMARK    2  A    between atoms: C_2  and  N_35 
REMARK       I    between atoms: C_4  and  N_6 
REMARK    3  A    between atoms: C_7  and  N_6 
REMARK    4  A    between atoms: C_7  and  C_8 
REMARK    5  A    between atoms: C_7  and  C_18 
REMARK    6  A    between atoms: C_8  and  C_9 
REMARK       I    between atoms: C_18  and  N_20 
REMARK    7  A    between atoms: C_21  and  N_20 
REMARK    8  A    between atoms: C_21  and  C_22 
REMARK    9  A    between atoms: C_21  and  N_32 
REMARK   10  A    between atoms: C_22  and  C_23 
REMARK   11  A    between atoms: N_32  and  C_33 
ROOT
HETATM    1  C   UNK N   1      35.948  13.332  10.799  0.00  0.00     0.181 C 
ENDROOT
BRANCH   1   2
HETATM    2  N   UNK N   1      36.457  13.524  12.146  0.00  0.00    -0.345 N 
HETATM    3  C   UNK N   1      35.745  13.315  13.285  0.00  0.00     0.245 C 
HETATM    4  O   UNK N   1      34.588  12.921  13.231  0.00  0.00    -0.271 OA
HETATM    5  H   UNK N   1      37.389  13.828  12.241  0.00  0.00     0.163 HD
BRANCH   3   6
HETATM    6  C   UNK N   1      36.382  13.565  14.629  0.00  0.00     0.098 C 
HETATM    7  C   UNK N   1      35.400  13.234  15.737  0.00  0.00     0.048 C 
HETATM    8  C   UNK N   1      36.779  15.025  14.738  0.00  0.00     0.048 C 
BRANCH   6   9
HETATM    9  N   UNK N   1      37.571  12.743  14.799  0.00  0.00    -0.415 N 
HETATM   10  H   UNK N   1      38.527  12.866  14.466  0.00  0.00     0.151 HD
HETATM   11  H   UNK N   1      37.421  11.897  15.348  0.00  0.00     0.151 HD
ENDBRANCH   6   9
ENDBRANCH   3   6
ENDBRANCH   1   2
BRANCH   1  12
HETATM   12  C   UNK N   1      35.904  14.674  10.057  0.00  0.00     0.075 C 
BRANCH  12  13
HETATM   13  C   UNK N   1      34.499  15.075   9.735  0.00  0.00    -0.028 A 
HETATM   14  C   UNK N   1      33.340  14.385  10.081  0.00  0.00     0.096 A 
HETATM   15  N   UNK N   1      32.256  15.095   9.690  0.00  0.00    -0.365 N 
HETATM   16  C   UNK N   1      32.733  16.218   9.111  0.00  0.00     0.042 A 
HETATM   17  H   UNK N   1      31.310  14.845   9.804  0.00  0.00     0.165 HD
HETATM   18  C   UNK N   1      34.097  16.225   9.120  0.00  0.00    -0.002 A 
HETATM   19  C   UNK N   1      31.993  17.267   8.587  0.00  0.00     0.030 A 
HETATM   20  C   UNK N   1      34.831  17.290   8.597  0.00  0.00     0.014 A 
HETATM   21  C   UNK N   1      34.115  18.369   8.052  0.00  0.00     0.001 A 
HETATM   22  C   UNK N   1      32.700  18.360   8.049  0.00  0.00     0.002 A 
ENDBRANCH  12  13
ENDBRANCH   1  12
BRANCH   1  23
HETATM   23  C   UNK N   1      36.751  12.297  10.041  0.00  0.00     0.242 C 
HETATM   24  O   UNK N   1      37.930  12.133  10.312  0.00  0.00    -0.271 OA
HETATM   25  N   UNK N   1      36.180  11.503   9.095  0.00  0.00    -0.338 N 
HETATM   26  H   UNK N   1      36.746  10.802   8.698  0.00  0.00     0.164 HD
BRANCH  25  27
HETATM   27  C   UNK N   1      34.811  11.595   8.616  0.00  0.00     0.190 C 
BRANCH  27  28
HETATM   28  C   UNK N   1      34.709  11.612   7.096  0.00  0.00     0.087 C 
BRANCH  28  29
HETATM   29  C   UNK N   1      34.927  12.975   6.549  0.00  0.00    -0.027 A 
HETATM   30  C   UNK N   1      36.142  13.609   6.311  0.00  0.00     0.096 A 
HETATM   31  N   UNK N   1      35.913  14.841   5.792  0.00  0.00    -0.365 N 
HETATM   32  C   UNK N   1      34.575  14.970   5.715  0.00  0.00     0.042 A 
HETATM   33  H   UNK N   1      36.587  15.507   5.527  0.00  0.00     0.165 HD
HETATM   34  C   UNK N   1      33.947  13.850   6.175  0.00  0.00    -0.002 A 
HETATM   35  C   UNK N   1      33.862  16.065   5.239  0.00  0.00     0.030 A 
HETATM   36  C   UNK N   1      32.559  13.734   6.199  0.00  0.00     0.014 A 
HETATM   37  C   UNK N   1      31.807  14.825   5.728  0.00  0.00     0.001 A 
HETATM   38  C   UNK N   1      32.456  15.985   5.247  0.00  0.00     0.002 A 
ENDBRANCH  28  29
ENDBRANCH  27  28
BRANCH  27  39
HETATM   39  N   UNK N   1      34.006  10.542   9.173  0.00  0.00    -0.347 N 
HETATM   40  H   UNK N   1      34.406   9.667   9.382  0.00  0.00     0.163 HD
BRANCH  39  41
HETATM   41  C   UNK N   1      32.696  10.764   9.406  0.00  0.00     0.350 C 
HETATM   42  O   UNK N   1      31.888   9.864   9.258  0.00  0.00    -0.284 OA
ENDBRANCH  39  41
ENDBRANCH  27  39
ENDBRANCH  25  27
ENDBRANCH   1  23
TORSDOF 11
ENDMDL
MODEL 9
REMARK VINA RESULT:      -6.0      2.274      3.722
REMARK  11 active torsions:
REMARK  status: ('A' for Active; 'I' for Inactive)
REMARK    1  A    between atoms: C_2  and  C_4 
REMARK    2  A    between atoms: C_2  and  N_35 
REMARK       I    between atoms: C_4  and  N_6 
REMARK    3  A    between atoms: C_7  and  N_6 
REMARK    4  A    between atoms: C_7  and  C_8 
REMARK    5  A    between atoms: C_7  and  C_18 
REMARK    6  A    between atoms: C_8  and  C_9 
REMARK       I    between atoms: C_18  and  N_20 
REMARK    7  A    between atoms: C_21  and  N_20 
REMARK    8  A    between atoms: C_21  and  C_22 
REMARK    9  A    between atoms: C_21  and  N_32 
REMARK   10  A    between atoms: C_22  and  C_23 
REMARK   11  A    between atoms: N_32  and  C_33 
ROOT
HETATM    1  C   UNK N   1      25.254  15.977   4.631  0.00  0.00     0.181 C 
ENDROOT
BRANCH   1   2
HETATM    2  N   UNK N   1      26.006  17.215   4.510  0.00  0.00    -0.345 N 
HETATM    3  C   UNK N   1      25.477  18.417   4.157  0.00  0.00     0.245 C 
HETATM    4  O   UNK N   1      24.280  18.525   3.929  0.00  0.00    -0.271 OA
HETATM    5  H   UNK N   1      26.972  17.181   4.696  0.00  0.00     0.163 HD
BRANCH   3   6
HETATM    6  C   UNK N   1      26.366  19.629   4.050  0.00  0.00     0.098 C 
HETATM    7  C   UNK N   1      26.316  20.423   5.342  0.00  0.00     0.048 C 
HETATM    8  C   UNK N   1      25.889  20.509   2.910  0.00  0.00     0.048 C 
BRANCH   6   9
HETATM    9  N   UNK N   1      27.745  19.240   3.795  0.00  0.00    -0.415 N 
HETATM   10  H   UNK N   1      28.534  19.110   4.428  0.00  0.00     0.151 HD
HETATM   11  H   UNK N   1      27.958  19.069   2.813  0.00  0.00     0.151 HD
ENDBRANCH   6   9
ENDBRANCH   3   6
ENDBRANCH   1   2
BRANCH   1  12
HETATM   12  C   UNK N   1      26.019  14.829   3.961  0.00  0.00     0.075 C 
BRANCH  12  13
HETATM   13  C   UNK N   1      25.114  13.681   3.643  0.00  0.00    -0.028 A 
HETATM   14  C   UNK N   1      24.739  12.656   4.509  0.00  0.00     0.096 A 
HETATM   15  N   UNK N   1      23.847  11.846   3.893  0.00  0.00    -0.365 N 
HETATM   16  C   UNK N   1      23.663  12.362   2.659  0.00  0.00     0.042 A 
HETATM   17  H   UNK N   1      23.418  11.043   4.268  0.00  0.00     0.165 HD
HETATM   18  C   UNK N   1      24.430  13.476   2.481  0.00  0.00    -0.002 A 
HETATM   19  C   UNK N   1      22.809  11.889   1.674  0.00  0.00     0.030 A 
HETATM   20  C   UNK N   1      24.403  14.206   1.292  0.00  0.00     0.014 A 
HETATM   21  C   UNK N   1      23.552  13.754   0.269  0.00  0.00     0.001 A 
HETATM   22  C   UNK N   1      22.755  12.600   0.459  0.00  0.00     0.002 A 
ENDBRANCH  12  13
ENDBRANCH   1  12
BRANCH   1  23
HETATM   23  C   UNK N   1      24.923  15.665   6.075  0.00  0.00     0.242 C 
HETATM   24  O   UNK N   1      25.819  15.352   6.844  0.00  0.00    -0.271 OA
HETATM   25  N   UNK N   1      23.655  15.773   6.555  0.00  0.00    -0.338 N 
HETATM   26  H   UNK N   1      23.528  15.628   7.520  0.00  0.00     0.164 HD
BRANCH  25  27
HETATM   27  C   UNK N   1      22.470  16.084   5.774  0.00  0.00     0.190 C 
BRANCH  27  28
HETATM   28  C   UNK N   1      21.838  14.856   5.131  0.00  0.00     0.087 C 
BRANCH  28  29
HETATM   29  C   UNK N   1      21.365  15.144   3.753  0.00  0.00    -0.027 A 
HETATM   30  C   UNK N   1      21.710  16.222   2.946  0.00  0.00     0.096 A 
HETATM   31  N   UNK N   1      21.076  16.112   1.752  0.00  0.00    -0.365 N 
HETATM   32  C   UNK N   1      20.344  14.985   1.821  0.00  0.00     0.042 A 
HETATM   33  H   UNK N   1      21.137  16.732   0.989  0.00  0.00     0.165 HD
HETATM   34  C   UNK N   1      20.496  14.375   3.032  0.00  0.00    -0.002 A 
HETATM   35  C   UNK N   1      19.527  14.451   0.831  0.00  0.00     0.030 A 
HETATM   36  C   UNK N   1      19.842  13.188   3.352  0.00  0.00     0.014 A 
HETATM   37  C   UNK N   1      19.003  12.623   2.375  0.00  0.00     0.001 A 
HETATM   38  C   UNK N   1      18.848  13.251   1.118  0.00  0.00     0.002 A 
ENDBRANCH  28  29
ENDBRANCH  27  28
BRANCH  27  39
HETATM   39  N   UNK N   1      21.509  16.797   6.571  0.00  0.00    -0.347 N 
HETATM   40  H   UNK N   1      20.972  16.323   7.247  0.00  0.00     0.163 HD
BRANCH  39  41
HETATM   41  C   UNK N   1      21.347  18.123   6.383  0.00  0.00     0.350 C 
HETATM   42  O   UNK N   1      20.892  18.816   7.275  0.00  0.00    -0.284 OA
ENDBRANCH  39  41
ENDBRANCH  27  39
ENDBRANCH  25  27
ENDBRANCH   1  23
TORSDOF 11
ENDMDL
