REMARK  3 active torsions:
REMARK  status: ('A' for Active; 'I' for Inactive)
REMARK    1  A    between atoms: C_2  and  C_3 
REMARK    2  A    between atoms: C_2  and  O_25 
REMARK    3  A    between atoms: C_5  and  C_3 
ROOT
HETATM    1  C   UNK N   1      -0.282  -1.922  -0.770  0.00  0.00     0.027 C 
HETATM    2  C   UNK N   1      -0.254  -3.005  -1.837  0.00  0.00     0.018 C 
HETATM    3  C   UNK N   1       0.549  -4.136  -1.198  0.00  0.00     0.007 C 
HETATM    4  C   UNK N   1       1.511  -3.480  -0.203  0.00  0.00     0.003 C 
HETATM    5  C   UNK N   1       1.186  -1.961  -0.259  0.00  0.00    -0.025 C 
HETATM    6  C   UNK N   1       2.145  -1.247  -1.254  0.00  0.00     0.015 C 
HETATM    7  C   UNK N   1       3.608  -1.328  -0.792  0.00  0.00     0.036 C 
HETATM    8  C   UNK N   1       3.967  -2.738  -0.406  0.00  0.00    -0.069 C 
HETATM    9  C   UNK N   1       5.174  -3.036   0.118  0.00  0.00    -0.049 C 
HETATM   10  C   UNK N   1       6.239  -1.987   0.315  0.00  0.00     0.047 C 
HETATM   11  C   UNK N   1       7.580  -2.515  -0.188  0.00  0.00     0.087 C 
HETATM   12  C   UNK N   1       7.871  -3.863   0.420  0.00  0.00     0.150 C 
HETATM   13  O   UNK N   1       9.023  -4.191   0.648  0.00  0.00    -0.293 OA
HETATM   14  C   UNK N   1       6.764  -4.815   0.679  0.00  0.00     0.057 C 
HETATM   15  C   UNK N   1       5.489  -4.434   0.505  0.00  0.00    -0.048 C 
HETATM   16  C   UNK N   1       4.365  -5.403   0.698  0.00  0.00     0.040 C 
HETATM   17  C   UNK N   1       3.389  -5.274  -0.462  0.00  0.00     0.014 C 
HETATM   18  C   UNK N   1       2.938  -3.818  -0.676  0.00  0.00     0.020 C 
HETATM   19  C   UNK N   1       1.359  -1.301   1.110  0.00  0.00     0.016 C 
HETATM   20  C   UNK N   1      -0.657  -0.579  -1.391  0.00  0.00     0.024 C 
ENDROOT
BRANCH   1  21
HETATM   21  C   UNK N   1      -1.332  -2.238   0.300  0.00  0.00     0.164 C 
HETATM   22  O   UNK N   1      -1.461  -1.489   1.258  0.00  0.00    -0.294 OA
BRANCH  21  23
HETATM   23  C   UNK N   1      -2.257  -3.419   0.175  0.00  0.00     0.184 C 
HETATM   24  C   UNK N   1      -2.057  -4.380   1.331  0.00  0.00     0.047 C 
BRANCH  23  25
HETATM   25  O   UNK N   1      -3.583  -2.984   0.150  0.00  0.00    -0.388 OA
HETATM   26  H   UNK N   1      -3.782  -2.034   0.132  0.00  0.00     0.210 HD
ENDBRANCH  23  25
ENDBRANCH  21  23
ENDBRANCH   1  21
TORSDOF 3
