MODEL 1
REMARK VINA RESULT:      -8.5      0.000      0.000
REMARK  11 active torsions:
REMARK  status: ('A' for Active; 'I' for Inactive)
REMARK    1  A    between atoms: C_17  and  C_9 
REMARK    2  A    between atoms: C_18  and  C_10 
REMARK    3  A    between atoms: C_19  and  C_11 
REMARK    4  A    between atoms: C_20  and  C_12 
REMARK    5  A    between atoms: C_22  and  C_21 
REMARK    6  A    between atoms: O_33  and  C_25 
REMARK    7  A    between atoms: O_34  and  C_26 
REMARK    8  A    between atoms: O_35  and  C_27 
REMARK    9  A    between atoms: O_36  and  C_28 
REMARK   10  A    between atoms: O_37  and  C_29 
REMARK   11  A    between atoms: O_38  and  C_30 
ROOT
HETATM    1  C   UNK N   1      28.424  15.815   2.821  0.00  0.00     0.049 C 
HETATM    2  C   UNK N   1      30.291  16.429   4.280  0.00  0.00     0.020 A 
HETATM    3  C   UNK N   1      28.916  16.393   4.107  0.00  0.00    -0.047 A 
HETATM    4  C   UNK N   1      30.884  16.845   5.474  0.00  0.00    -0.012 A 
HETATM    5  C   UNK N   1      30.675  17.499   7.827  0.00  0.00     0.051 A 
HETATM    6  C   UNK N   1      32.298  16.922   5.564  0.00  0.00    -0.007 A 
HETATM    7  C   UNK N   1      28.054  16.854   5.138  0.00  0.00     0.017 A 
HETATM    8  C   UNK N   1      30.061  17.186   6.574  0.00  0.00     0.025 A 
HETATM    9  C   UNK N   1      32.080  17.522   7.921  0.00  0.00     0.113 A 
HETATM   10  C   UNK N   1      28.647  17.237   6.380  0.00  0.00     0.089 A 
HETATM   11  C   UNK N   1      32.881  17.264   6.808  0.00  0.00     0.107 A 
ENDROOT
BRANCH   7  12
HETATM   12  C   UNK N   1      26.552  17.034   4.926  0.00  0.00     0.017 A 
HETATM   13  C   UNK N   1      25.600  16.090   5.395  0.00  0.00    -0.047 A 
HETATM   14  C   UNK N   1      25.971  14.739   5.913  0.00  0.00     0.049 C 
HETATM   15  C   UNK N   1      24.246  16.384   5.355  0.00  0.00     0.020 A 
HETATM   16  C   UNK N   1      23.755  17.567   4.799  0.00  0.00    -0.012 A 
HETATM   17  C   UNK N   1      22.363  17.839   4.847  0.00  0.00    -0.007 A 
HETATM   18  C   UNK N   1      24.658  18.477   4.198  0.00  0.00     0.025 A 
HETATM   19  C   UNK N   1      21.876  19.002   4.204  0.00  0.00     0.107 A 
HETATM   20  C   UNK N   1      22.747  19.863   3.538  0.00  0.00     0.113 A 
HETATM   21  C   UNK N   1      24.137  19.628   3.530  0.00  0.00     0.051 A 
HETATM   22  C   UNK N   1      26.058  18.226   4.312  0.00  0.00     0.089 A 
BRANCH  17  23
HETATM   23  C   UNK N   1      21.452  16.880   5.623  0.00  0.00     0.014 C 
HETATM   24  C   UNK N   1      20.236  16.322   4.902  0.00  0.00     0.015 C 
HETATM   25  C   UNK N   1      20.959  17.548   6.900  0.00  0.00     0.015 C 
ENDBRANCH  17  23
BRANCH  19  26
HETATM   26  O   UNK N   1      20.567  19.309   4.219  0.00  0.00    -0.357 OA
HETATM   27  H   UNK N   1      19.952  18.832   3.696  0.00  0.00     0.217 HD
ENDBRANCH  19  26
BRANCH  20  28
HETATM   28  O   UNK N   1      22.233  20.942   2.914  0.00  0.00    -0.357 OA
HETATM   29  H   UNK N   1      22.237  21.798   3.296  0.00  0.00     0.217 HD
ENDBRANCH  20  28
BRANCH  21  30
HETATM   30  C   UNK N   1      25.039  20.559   2.797  0.00  0.00     0.273 C 
HETATM   31  O   UNK N   1      25.097  20.600   1.578  0.00  0.00    -0.301 OA
ENDBRANCH  21  30
BRANCH  22  32
HETATM   32  O   UNK N   1      26.929  19.167   3.912  0.00  0.00    -0.359 OA
HETATM   33  H   UNK N   1      27.679  19.421   4.413  0.00  0.00     0.217 HD
ENDBRANCH  22  32
ENDBRANCH   7  12
BRANCH  10  34
HETATM   34  O   UNK N   1      27.868  17.735   7.354  0.00  0.00    -0.359 OA
HETATM   35  H   UNK N   1      27.907  17.444   8.244  0.00  0.00     0.217 HD
ENDBRANCH  10  34
BRANCH   5  36
HETATM   36  C   UNK N   1      29.848  17.765   9.036  0.00  0.00     0.273 C 
HETATM   37  O   UNK N   1      29.834  18.848   9.600  0.00  0.00    -0.301 OA
ENDBRANCH   5  36
BRANCH   6  38
HETATM   38  C   UNK N   1      33.132  16.663   4.303  0.00  0.00     0.014 C 
HETATM   39  C   UNK N   1      32.548  17.099   2.969  0.00  0.00     0.015 C 
HETATM   40  C   UNK N   1      33.463  15.181   4.193  0.00  0.00     0.015 C 
ENDBRANCH   6  38
BRANCH   9  41
HETATM   41  O   UNK N   1      32.682  17.814   9.091  0.00  0.00    -0.357 OA
HETATM   42  H   UNK N   1      32.881  17.164   9.735  0.00  0.00     0.217 HD
ENDBRANCH   9  41
BRANCH  11  43
HETATM   43  O   UNK N   1      34.216  17.352   6.950  0.00  0.00    -0.357 OA
HETATM   44  H   UNK N   1      34.596  17.843   7.651  0.00  0.00     0.217 HD
ENDBRANCH  11  43
TORSDOF 11
ENDMDL
MODEL 2
REMARK VINA RESULT:      -8.5      0.028      9.091
REMARK  11 active torsions:
REMARK  status: ('A' for Active; 'I' for Inactive)
REMARK    1  A    between atoms: C_17  and  C_9 
REMARK    2  A    between atoms: C_18  and  C_10 
REMARK    3  A    between atoms: C_19  and  C_11 
REMARK    4  A    between atoms: C_20  and  C_12 
REMARK    5  A    between atoms: C_22  and  C_21 
REMARK    6  A    between atoms: O_33  and  C_25 
REMARK    7  A    between atoms: O_34  and  C_26 
REMARK    8  A    between atoms: O_35  and  C_27 
REMARK    9  A    between atoms: O_36  and  C_28 
REMARK   10  A    between atoms: O_37  and  C_29 
REMARK   11  A    between atoms: O_38  and  C_30 
ROOT
HETATM    1  C   UNK N   1      25.977  14.717   5.932  0.00  0.00     0.049 C 
HETATM    2  C   UNK N   1      24.253  16.363   5.373  0.00  0.00     0.020 A 
HETATM    3  C   UNK N   1      25.607  16.068   5.413  0.00  0.00    -0.047 A 
HETATM    4  C   UNK N   1      23.763  17.546   4.815  0.00  0.00    -0.012 A 
HETATM    5  C   UNK N   1      24.145  19.605   3.543  0.00  0.00     0.051 A 
HETATM    6  C   UNK N   1      22.371  17.818   4.865  0.00  0.00    -0.007 A 
HETATM    7  C   UNK N   1      26.559  17.011   4.941  0.00  0.00     0.017 A 
HETATM    8  C   UNK N   1      24.665  18.454   4.213  0.00  0.00     0.025 A 
HETATM    9  C   UNK N   1      22.755  19.840   3.551  0.00  0.00     0.113 A 
HETATM   10  C   UNK N   1      26.066  18.202   4.326  0.00  0.00     0.089 A 
HETATM   11  C   UNK N   1      21.884  18.980   4.220  0.00  0.00     0.107 A 
ENDROOT
BRANCH   7  12
HETATM   12  C   UNK N   1      28.061  16.831   5.152  0.00  0.00     0.017 A 
HETATM   13  C   UNK N   1      28.921  16.362   4.124  0.00  0.00    -0.047 A 
HETATM   14  C   UNK N   1      28.426  15.778   2.842  0.00  0.00     0.049 C 
HETATM   15  C   UNK N   1      30.297  16.398   4.294  0.00  0.00     0.020 A 
HETATM   16  C   UNK N   1      30.892  16.820   5.485  0.00  0.00    -0.012 A 
HETATM   17  C   UNK N   1      32.306  16.896   5.573  0.00  0.00    -0.007 A 
HETATM   18  C   UNK N   1      30.070  17.169   6.583  0.00  0.00     0.025 A 
HETATM   19  C   UNK N   1      32.891  17.245   6.813  0.00  0.00     0.107 A 
HETATM   20  C   UNK N   1      32.093  17.511   7.925  0.00  0.00     0.113 A 
HETATM   21  C   UNK N   1      30.686  17.490   7.832  0.00  0.00     0.051 A 
HETATM   22  C   UNK N   1      28.657  17.220   6.391  0.00  0.00     0.089 A 
BRANCH  17  23
HETATM   23  C   UNK N   1      33.138  16.630   4.312  0.00  0.00     0.014 C 
HETATM   24  C   UNK N   1      32.571  17.093   2.981  0.00  0.00     0.015 C 
HETATM   25  C   UNK N   1      33.436  15.141   4.188  0.00  0.00     0.015 C 
ENDBRANCH  17  23
BRANCH  19  26
HETATM   26  O   UNK N   1      34.225  17.332   6.953  0.00  0.00    -0.357 OA
HETATM   27  H   UNK N   1      34.748  17.803   6.333  0.00  0.00     0.217 HD
ENDBRANCH  19  26
BRANCH  20  28
HETATM   28  O   UNK N   1      32.695  17.810   9.094  0.00  0.00    -0.357 OA
HETATM   29  H   UNK N   1      32.236  17.832   9.910  0.00  0.00     0.217 HD
ENDBRANCH  20  28
BRANCH  21  30
HETATM   30  C   UNK N   1      29.862  17.764   9.042  0.00  0.00     0.273 C 
HETATM   31  O   UNK N   1      29.845  18.851   9.596  0.00  0.00    -0.301 OA
ENDBRANCH  21  30
BRANCH  22  32
HETATM   32  O   UNK N   1      27.880  17.726   7.363  0.00  0.00    -0.359 OA
HETATM   33  H   UNK N   1      28.088  18.508   7.835  0.00  0.00     0.217 HD
ENDBRANCH  22  32
ENDBRANCH   7  12
BRANCH  10  34
HETATM   34  O   UNK N   1      26.937  19.143   3.923  0.00  0.00    -0.359 OA
HETATM   35  H   UNK N   1      26.789  19.699   3.184  0.00  0.00     0.217 HD
ENDBRANCH  10  34
BRANCH   5  36
HETATM   36  C   UNK N   1      25.047  20.534   2.808  0.00  0.00     0.273 C 
HETATM   37  O   UNK N   1      25.093  20.582   1.589  0.00  0.00    -0.301 OA
ENDBRANCH   5  36
BRANCH   6  38
HETATM   38  C   UNK N   1      21.460  16.860   5.642  0.00  0.00     0.014 C 
HETATM   39  C   UNK N   1      20.257  16.284   4.914  0.00  0.00     0.015 C 
HETATM   40  C   UNK N   1      20.946  17.540   6.905  0.00  0.00     0.015 C 
ENDBRANCH   6  38
BRANCH   9  41
HETATM   41  O   UNK N   1      22.241  20.918   2.927  0.00  0.00    -0.357 OA
HETATM   42  H   UNK N   1      21.516  20.864   2.336  0.00  0.00     0.217 HD
ENDBRANCH   9  41
BRANCH  11  43
HETATM   43  O   UNK N   1      20.574  19.288   4.235  0.00  0.00    -0.357 OA
HETATM   44  H   UNK N   1      19.969  18.803   4.761  0.00  0.00     0.217 HD
ENDBRANCH  11  43
TORSDOF 11
ENDMDL
MODEL 3
REMARK VINA RESULT:      -8.3     10.310     15.006
REMARK  11 active torsions:
REMARK  status: ('A' for Active; 'I' for Inactive)
REMARK    1  A    between atoms: C_17  and  C_9 
REMARK    2  A    between atoms: C_18  and  C_10 
REMARK    3  A    between atoms: C_19  and  C_11 
REMARK    4  A    between atoms: C_20  and  C_12 
REMARK    5  A    between atoms: C_22  and  C_21 
REMARK    6  A    between atoms: O_33  and  C_25 
REMARK    7  A    between atoms: O_34  and  C_26 
REMARK    8  A    between atoms: O_35  and  C_27 
REMARK    9  A    between atoms: O_36  and  C_28 
REMARK   10  A    between atoms: O_37  and  C_29 
REMARK   11  A    between atoms: O_38  and  C_30 
ROOT
HETATM    1  C   UNK N   1      35.006   9.212  13.979  0.00  0.00     0.049 C 
HETATM    2  C   UNK N   1      34.920   9.840  16.343  0.00  0.00     0.020 A 
HETATM    3  C   UNK N   1      35.256  10.219  15.053  0.00  0.00    -0.047 A 
HETATM    4  C   UNK N   1      35.002  10.718  17.426  0.00  0.00    -0.012 A 
HETATM    5  C   UNK N   1      35.355  12.982  18.294  0.00  0.00     0.051 A 
HETATM    6  C   UNK N   1      34.707  10.248  18.732  0.00  0.00    -0.007 A 
HETATM    7  C   UNK N   1      35.773  11.519  14.802  0.00  0.00     0.017 A 
HETATM    8  C   UNK N   1      35.384  12.061  17.201  0.00  0.00     0.025 A 
HETATM    9  C   UNK N   1      35.008  12.518  19.579  0.00  0.00     0.113 A 
HETATM   10  C   UNK N   1      35.816  12.439  15.893  0.00  0.00     0.089 A 
HETATM   11  C   UNK N   1      34.714  11.173  19.803  0.00  0.00     0.107 A 
ENDROOT
BRANCH   7  12
HETATM   12  C   UNK N   1      36.354  11.918  13.447  0.00  0.00     0.017 A 
HETATM   13  C   UNK N   1      37.545  11.343  12.932  0.00  0.00    -0.047 A 
HETATM   14  C   UNK N   1      38.465  10.492  13.747  0.00  0.00     0.049 C 
HETATM   15  C   UNK N   1      37.931  11.587  11.623  0.00  0.00     0.020 A 
HETATM   16  C   UNK N   1      37.221  12.449  10.784  0.00  0.00    -0.012 A 
HETATM   17  C   UNK N   1      37.629  12.606   9.435  0.00  0.00    -0.007 A 
HETATM   18  C   UNK N   1      36.102  13.149  11.297  0.00  0.00     0.025 A 
HETATM   19  C   UNK N   1      36.950  13.547   8.625  0.00  0.00     0.107 A 
HETATM   20  C   UNK N   1      35.898  14.302   9.144  0.00  0.00     0.113 A 
HETATM   21  C   UNK N   1      35.452  14.114  10.468  0.00  0.00     0.051 A 
HETATM   22  C   UNK N   1      35.647  12.838  12.613  0.00  0.00     0.089 A 
BRANCH  17  23
HETATM   23  C   UNK N   1      38.767  11.727   8.902  0.00  0.00     0.014 C 
HETATM   24  C   UNK N   1      39.949  12.421   8.247  0.00  0.00     0.015 C 
HETATM   25  C   UNK N   1      38.220  10.716   7.902  0.00  0.00     0.015 C 
ENDBRANCH  17  23
BRANCH  19  26
HETATM   26  O   UNK N   1      37.294  13.737   7.339  0.00  0.00    -0.357 OA
HETATM   27  H   UNK N   1      37.592  14.572   7.037  0.00  0.00     0.217 HD
ENDBRANCH  19  26
BRANCH  20  28
HETATM   28  O   UNK N   1      35.300  15.208   8.344  0.00  0.00    -0.357 OA
HETATM   29  H   UNK N   1      35.761  15.679   7.678  0.00  0.00     0.217 HD
ENDBRANCH  20  28
BRANCH  21  30
HETATM   30  C   UNK N   1      34.336  14.947  10.997  0.00  0.00     0.273 C 
HETATM   31  O   UNK N   1      33.190  14.852  10.588  0.00  0.00    -0.301 OA
ENDBRANCH  21  30
BRANCH  22  32
HETATM   32  O   UNK N   1      34.484  13.354  13.044  0.00  0.00    -0.359 OA
HETATM   33  H   UNK N   1      34.430  14.071  13.646  0.00  0.00     0.217 HD
ENDBRANCH  22  32
ENDBRANCH   7  12
BRANCH  10  34
HETATM   34  O   UNK N   1      36.354  13.655  15.705  0.00  0.00    -0.359 OA
HETATM   35  H   UNK N   1      36.369  14.090  14.875  0.00  0.00     0.217 HD
ENDBRANCH  10  34
BRANCH   5  36
HETATM   36  C   UNK N   1      35.650  14.427  18.084  0.00  0.00     0.273 C 
HETATM   37  O   UNK N   1      35.128  15.309  18.747  0.00  0.00    -0.301 OA
ENDBRANCH   5  36
BRANCH   6  38
HETATM   38  C   UNK N   1      34.424   8.754  18.932  0.00  0.00     0.014 C 
HETATM   39  C   UNK N   1      33.091   8.364  19.550  0.00  0.00     0.015 C 
HETATM   40  C   UNK N   1      35.522   8.126  19.780  0.00  0.00     0.015 C 
ENDBRANCH   6  38
BRANCH   9  41
HETATM   41  O   UNK N   1      34.974  13.367  20.625  0.00  0.00    -0.357 OA
HETATM   42  H   UNK N   1      34.933  14.297  20.523  0.00  0.00     0.217 HD
ENDBRANCH   9  41
BRANCH  11  43
HETATM   43  O   UNK N   1      34.441  10.784  21.062  0.00  0.00    -0.357 OA
HETATM   44  H   UNK N   1      33.898  11.302  21.622  0.00  0.00     0.217 HD
ENDBRANCH  11  43
TORSDOF 11
ENDMDL
MODEL 4
REMARK VINA RESULT:      -8.3     10.360     15.057
REMARK  11 active torsions:
REMARK  status: ('A' for Active; 'I' for Inactive)
REMARK    1  A    between atoms: C_17  and  C_9 
REMARK    2  A    between atoms: C_18  and  C_10 
REMARK    3  A    between atoms: C_19  and  C_11 
REMARK    4  A    between atoms: C_20  and  C_12 
REMARK    5  A    between atoms: C_22  and  C_21 
REMARK    6  A    between atoms: O_33  and  C_25 
REMARK    7  A    between atoms: O_34  and  C_26 
REMARK    8  A    between atoms: O_35  and  C_27 
REMARK    9  A    between atoms: O_36  and  C_28 
REMARK   10  A    between atoms: O_37  and  C_29 
REMARK   11  A    between atoms: O_38  and  C_30 
ROOT
HETATM    1  C   UNK N   1      38.485  10.506  13.853  0.00  0.00     0.049 C 
HETATM    2  C   UNK N   1      37.977  11.580  11.712  0.00  0.00     0.020 A 
HETATM    3  C   UNK N   1      37.573  11.345  13.018  0.00  0.00    -0.047 A 
HETATM    4  C   UNK N   1      37.276  12.432  10.856  0.00  0.00    -0.012 A 
HETATM    5  C   UNK N   1      35.505  14.087  10.498  0.00  0.00     0.051 A 
HETATM    6  C   UNK N   1      37.704  12.578   9.511  0.00  0.00    -0.007 A 
HETATM    7  C   UNK N   1      36.371  11.921  13.510  0.00  0.00     0.017 A 
HETATM    8  C   UNK N   1      36.147  13.131  11.345  0.00  0.00     0.025 A 
HETATM    9  C   UNK N   1      35.970  14.265   9.180  0.00  0.00     0.113 A 
HETATM   10  C   UNK N   1      35.673  12.830  12.658  0.00  0.00     0.089 A 
HETATM   11  C   UNK N   1      37.032  13.509   8.683  0.00  0.00     0.107 A 
ENDROOT
BRANCH   7  12
HETATM   12  C   UNK N   1      35.772  11.531  14.859  0.00  0.00     0.017 A 
HETATM   13  C   UNK N   1      35.241  10.238  15.109  0.00  0.00    -0.047 A 
HETATM   14  C   UNK N   1      34.994   9.229  14.035  0.00  0.00     0.049 C 
HETATM   15  C   UNK N   1      34.887   9.864  16.397  0.00  0.00     0.020 A 
HETATM   16  C   UNK N   1      34.966  10.745  17.478  0.00  0.00    -0.012 A 
HETATM   17  C   UNK N   1      34.651  10.283  18.781  0.00  0.00    -0.007 A 
HETATM   18  C   UNK N   1      35.362  12.085  17.251  0.00  0.00     0.025 A 
HETATM   19  C   UNK N   1      34.656  11.211  19.850  0.00  0.00     0.107 A 
HETATM   20  C   UNK N   1      34.964  12.552  19.625  0.00  0.00     0.113 A 
HETATM   21  C   UNK N   1      35.330  13.009  18.342  0.00  0.00     0.051 A 
HETATM   22  C   UNK N   1      35.812  12.454  15.948  0.00  0.00     0.089 A 
BRANCH  17  23
HETATM   23  C   UNK N   1      34.354   8.792  18.983  0.00  0.00     0.014 C 
HETATM   24  C   UNK N   1      33.015   8.415  19.594  0.00  0.00     0.015 C 
HETATM   25  C   UNK N   1      35.442   8.154  19.838  0.00  0.00     0.015 C 
ENDBRANCH  17  23
BRANCH  19  26
HETATM   26  O   UNK N   1      34.366  10.828  21.106  0.00  0.00    -0.357 OA
HETATM   27  H   UNK N   1      33.671  10.224  21.280  0.00  0.00     0.217 HD
ENDBRANCH  19  26
BRANCH  20  28
HETATM   28  O   UNK N   1      34.926  13.406  20.668  0.00  0.00    -0.357 OA
HETATM   29  H   UNK N   1      35.699  13.743  21.075  0.00  0.00     0.217 HD
ENDBRANCH  20  28
BRANCH  21  30
HETATM   30  C   UNK N   1      35.639  14.450  18.131  0.00  0.00     0.273 C 
HETATM   31  O   UNK N   1      35.095  15.341  18.764  0.00  0.00    -0.301 OA
ENDBRANCH  21  30
BRANCH  22  32
HETATM   32  O   UNK N   1      36.363  13.665  15.763  0.00  0.00    -0.359 OA
HETATM   33  H   UNK N   1      37.195  13.795  15.352  0.00  0.00     0.217 HD
ENDBRANCH  22  32
ENDBRANCH   7  12
BRANCH  10  34
HETATM   34  O   UNK N   1      34.502  13.345  13.067  0.00  0.00    -0.359 OA
HETATM   35  H   UNK N   1      34.409  14.220  13.392  0.00  0.00     0.217 HD
ENDBRANCH  10  34
BRANCH   5  36
HETATM   36  C   UNK N   1      34.378  14.919  11.003  0.00  0.00     0.273 C 
HETATM   37  O   UNK N   1      33.234  14.799  10.594  0.00  0.00    -0.301 OA
ENDBRANCH   5  36
BRANCH   6  38
HETATM   38  C   UNK N   1      38.853  11.699   9.003  0.00  0.00     0.014 C 
HETATM   39  C   UNK N   1      39.989  12.383   8.259  0.00  0.00     0.015 C 
HETATM   40  C   UNK N   1      38.309  10.602   8.097  0.00  0.00     0.015 C 
ENDBRANCH   6  38
BRANCH   9  41
HETATM   41  O   UNK N   1      35.380  15.160   8.363  0.00  0.00    -0.357 OA
HETATM   42  H   UNK N   1      35.313  15.034   7.437  0.00  0.00     0.217 HD
ENDBRANCH   9  41
BRANCH  11  43
HETATM   43  O   UNK N   1      37.395  13.689   7.400  0.00  0.00    -0.357 OA
HETATM   44  H   UNK N   1      37.734  14.510   7.103  0.00  0.00     0.217 HD
ENDBRANCH  11  43
TORSDOF 11
ENDMDL
MODEL 5
REMARK VINA RESULT:      -8.3      1.658      3.107
REMARK  11 active torsions:
REMARK  status: ('A' for Active; 'I' for Inactive)
REMARK    1  A    between atoms: C_17  and  C_9 
REMARK    2  A    between atoms: C_18  and  C_10 
REMARK    3  A    between atoms: C_19  and  C_11 
REMARK    4  A    between atoms: C_20  and  C_12 
REMARK    5  A    between atoms: C_22  and  C_21 
REMARK    6  A    between atoms: O_33  and  C_25 
REMARK    7  A    between atoms: O_34  and  C_26 
REMARK    8  A    between atoms: O_35  and  C_27 
REMARK    9  A    between atoms: O_36  and  C_28 
REMARK   10  A    between atoms: O_37  and  C_29 
REMARK   11  A    between atoms: O_38  and  C_30 
ROOT
HETATM    1  C   UNK N   1      28.244  18.145   8.223  0.00  0.00     0.049 C 
HETATM    2  C   UNK N   1      30.426  17.188   7.664  0.00  0.00     0.020 A 
HETATM    3  C   UNK N   1      29.137  17.467   7.237  0.00  0.00    -0.047 A 
HETATM    4  C   UNK N   1      31.396  16.653   6.812  0.00  0.00    -0.012 A 
HETATM    5  C   UNK N   1      32.111  16.003   4.560  0.00  0.00     0.051 A 
HETATM    6  C   UNK N   1      32.677  16.329   7.328  0.00  0.00    -0.007 A 
HETATM    7  C   UNK N   1      28.737  17.145   5.912  0.00  0.00     0.017 A 
HETATM    8  C   UNK N   1      31.080  16.441   5.450  0.00  0.00     0.025 A 
HETATM    9  C   UNK N   1      33.396  15.734   5.072  0.00  0.00     0.113 A 
HETATM   10  C   UNK N   1      29.733  16.642   5.020  0.00  0.00     0.089 A 
HETATM   11  C   UNK N   1      33.672  15.868   6.433  0.00  0.00     0.107 A 
ENDROOT
BRANCH   7  12
HETATM   12  C   UNK N   1      27.282  17.234   5.454  0.00  0.00     0.017 A 
HETATM   13  C   UNK N   1      26.335  16.214   5.733  0.00  0.00    -0.047 A 
HETATM   14  C   UNK N   1      26.708  14.872   6.273  0.00  0.00     0.049 C 
HETATM   15  C   UNK N   1      24.988  16.420   5.473  0.00  0.00     0.020 A 
HETATM   16  C   UNK N   1      24.515  17.588   4.869  0.00  0.00    -0.012 A 
HETATM   17  C   UNK N   1      23.120  17.766   4.690  0.00  0.00    -0.007 A 
HETATM   18  C   UNK N   1      25.440  18.575   4.452  0.00  0.00     0.025 A 
HETATM   19  C   UNK N   1      22.665  18.916   4.002  0.00  0.00     0.107 A 
HETATM   20  C   UNK N   1      23.573  19.856   3.512  0.00  0.00     0.113 A 
HETATM   21  C   UNK N   1      24.958  19.713   3.733  0.00  0.00     0.051 A 
HETATM   22  C   UNK N   1      26.816  18.412   4.794  0.00  0.00     0.089 A 
BRANCH  17  23
HETATM   23  C   UNK N   1      22.161  16.723   5.277  0.00  0.00     0.014 C 
HETATM   24  C   UNK N   1      21.139  16.098   4.344  0.00  0.00     0.015 C 
HETATM   25  C   UNK N   1      21.400  17.319   6.455  0.00  0.00     0.015 C 
ENDBRANCH  17  23
BRANCH  19  26
HETATM   26  O   UNK N   1      21.354  19.137   3.803  0.00  0.00    -0.357 OA
HETATM   27  H   UNK N   1      20.712  18.811   4.403  0.00  0.00     0.217 HD
ENDBRANCH  19  26
BRANCH  20  28
HETATM   28  O   UNK N   1      23.096  20.921   2.837  0.00  0.00    -0.357 OA
HETATM   29  H   UNK N   1      23.586  21.711   2.725  0.00  0.00     0.217 HD
ENDBRANCH  20  28
BRANCH  21  30
HETATM   30  C   UNK N   1      25.902  20.726   3.185  0.00  0.00     0.273 C 
HETATM   31  O   UNK N   1      25.832  21.142   2.040  0.00  0.00    -0.301 OA
ENDBRANCH  21  30
BRANCH  22  32
HETATM   32  O   UNK N   1      27.672  19.421   4.569  0.00  0.00    -0.359 OA
HETATM   33  H   UNK N   1      28.057  19.594   3.732  0.00  0.00     0.217 HD
ENDBRANCH  22  32
ENDBRANCH   7  12
BRANCH  10  34
HETATM   34  O   UNK N   1      29.377  16.270   3.780  0.00  0.00    -0.359 OA
HETATM   35  H   UNK N   1      28.783  15.567   3.603  0.00  0.00     0.217 HD
ENDBRANCH  10  34
BRANCH   5  36
HETATM   36  C   UNK N   1      31.851  15.864   3.101  0.00  0.00     0.273 C 
HETATM   37  O   UNK N   1      32.129  16.739   2.296  0.00  0.00    -0.301 OA
ENDBRANCH   5  36
BRANCH   6  38
HETATM   38  C   UNK N   1      32.919  16.460   8.837  0.00  0.00     0.014 C 
HETATM   39  C   UNK N   1      34.184  17.172   9.289  0.00  0.00     0.015 C 
HETATM   40  C   UNK N   1      32.914  15.083   9.487  0.00  0.00     0.015 C 
ENDBRANCH   6  38
BRANCH   9  41
HETATM   41  O   UNK N   1      34.383  15.320   4.254  0.00  0.00    -0.357 OA
HETATM   42  H   UNK N   1      34.954  14.608   4.467  0.00  0.00     0.217 HD
ENDBRANCH   9  41
BRANCH  11  43
HETATM   43  O   UNK N   1      34.904  15.545   6.866  0.00  0.00    -0.357 OA
HETATM   44  H   UNK N   1      35.044  15.232   7.738  0.00  0.00     0.217 HD
ENDBRANCH  11  43
TORSDOF 11
ENDMDL
MODEL 6
REMARK VINA RESULT:      -8.2      1.826      3.245
REMARK  11 active torsions:
REMARK  status: ('A' for Active; 'I' for Inactive)
REMARK    1  A    between atoms: C_17  and  C_9 
REMARK    2  A    between atoms: C_18  and  C_10 
REMARK    3  A    between atoms: C_19  and  C_11 
REMARK    4  A    between atoms: C_20  and  C_12 
REMARK    5  A    between atoms: C_22  and  C_21 
REMARK    6  A    between atoms: O_33  and  C_25 
REMARK    7  A    between atoms: O_34  and  C_26 
REMARK    8  A    between atoms: O_35  and  C_27 
REMARK    9  A    between atoms: O_36  and  C_28 
REMARK   10  A    between atoms: O_37  and  C_29 
REMARK   11  A    between atoms: O_38  and  C_30 
ROOT
HETATM    1  C   UNK N   1      27.355  15.938   2.829  0.00  0.00     0.049 C 
HETATM    2  C   UNK N   1      29.296  16.408   4.245  0.00  0.00     0.020 A 
HETATM    3  C   UNK N   1      27.922  16.503   4.090  0.00  0.00    -0.047 A 
HETATM    4  C   UNK N   1      29.945  16.798   5.418  0.00  0.00    -0.012 A 
HETATM    5  C   UNK N   1      29.837  17.540   7.751  0.00  0.00     0.051 A 
HETATM    6  C   UNK N   1      31.361  16.738   5.488  0.00  0.00    -0.007 A 
HETATM    7  C   UNK N   1      27.125  17.078   5.117  0.00  0.00     0.017 A 
HETATM    8  C   UNK N   1      29.177  17.252   6.516  0.00  0.00     0.025 A 
HETATM    9  C   UNK N   1      31.239  17.426   7.827  0.00  0.00     0.113 A 
HETATM   10  C   UNK N   1      27.772  17.436   6.338  0.00  0.00     0.089 A 
HETATM   11  C   UNK N   1      31.994  17.057   6.713  0.00  0.00     0.107 A 
ENDROOT
BRANCH   7  12
HETATM   12  C   UNK N   1      25.645  17.399   4.917  0.00  0.00     0.017 A 
HETATM   13  C   UNK N   1      25.206  18.548   4.207  0.00  0.00    -0.047 A 
HETATM   14  C   UNK N   1      26.117  19.662   3.805  0.00  0.00     0.049 C 
HETATM   15  C   UNK N   1      23.867  18.700   3.882  0.00  0.00     0.020 A 
HETATM   16  C   UNK N   1      22.892  17.786   4.290  0.00  0.00    -0.012 A 
HETATM   17  C   UNK N   1      21.549  17.963   3.869  0.00  0.00    -0.007 A 
HETATM   18  C   UNK N   1      23.265  16.697   5.113  0.00  0.00     0.025 A 
HETATM   19  C   UNK N   1      20.561  17.076   4.360  0.00  0.00     0.107 A 
HETATM   20  C   UNK N   1      20.904  16.048   5.239  0.00  0.00     0.113 A 
HETATM   21  C   UNK N   1      22.245  15.833   5.620  0.00  0.00     0.051 A 
HETATM   22  C   UNK N   1      24.650  16.484   5.379  0.00  0.00     0.089 A 
BRANCH  17  23
HETATM   23  C   UNK N   1      21.229  19.085   2.875  0.00  0.00     0.014 C 
HETATM   24  C   UNK N   1      20.401  20.257   3.374  0.00  0.00     0.015 C 
HETATM   25  C   UNK N   1      20.522  18.514   1.652  0.00  0.00     0.015 C 
ENDBRANCH  17  23
BRANCH  19  26
HETATM   26  O   UNK N   1      19.273  17.195   3.995  0.00  0.00    -0.357 OA
HETATM   27  H   UNK N   1      18.713  16.445   3.942  0.00  0.00     0.217 HD
ENDBRANCH  19  26
BRANCH  20  28
HETATM   28  O   UNK N   1      19.926  15.246   5.705  0.00  0.00    -0.357 OA
HETATM   29  H   UNK N   1      20.070  14.347   5.928  0.00  0.00     0.217 HD
ENDBRANCH  20  28
BRANCH  21  30
HETATM   30  C   UNK N   1      22.576  14.736   6.571  0.00  0.00     0.273 C 
HETATM   31  O   UNK N   1      22.514  13.556   6.264  0.00  0.00    -0.301 OA
ENDBRANCH  21  30
BRANCH  22  32
HETATM   32  O   UNK N   1      25.033  15.356   6.001  0.00  0.00    -0.359 OA
HETATM   33  H   UNK N   1      25.038  15.258   6.933  0.00  0.00     0.217 HD
ENDBRANCH  22  32
ENDBRANCH   7  12
BRANCH  10  34
HETATM   34  O   UNK N   1      27.061  18.038   7.306  0.00  0.00    -0.359 OA
HETATM   35  H   UNK N   1      26.191  17.781   7.542  0.00  0.00     0.217 HD
ENDBRANCH  10  34
BRANCH   5  36
HETATM   36  C   UNK N   1      29.059  17.922   8.962  0.00  0.00     0.273 C 
HETATM   37  O   UNK N   1      29.499  18.673   9.819  0.00  0.00    -0.301 OA
ENDBRANCH   5  36
BRANCH   6  38
HETATM   38  C   UNK N   1      32.146  16.361   4.226  0.00  0.00     0.014 C 
HETATM   39  C   UNK N   1      33.191  15.263   4.346  0.00  0.00     0.015 C 
HETATM   40  C   UNK N   1      32.840  17.592   3.658  0.00  0.00     0.015 C 
ENDBRANCH   6  38
BRANCH   9  41
HETATM   41  O   UNK N   1      31.885  17.692   8.981  0.00  0.00    -0.357 OA
HETATM   42  H   UNK N   1      32.668  17.247   9.238  0.00  0.00     0.217 HD
ENDBRANCH   9  41
BRANCH  11  43
HETATM   43  O   UNK N   1      33.333  17.017   6.837  0.00  0.00    -0.357 OA
HETATM   44  H   UNK N   1      33.844  16.391   6.363  0.00  0.00     0.217 HD
ENDBRANCH  11  43
TORSDOF 11
ENDMDL
MODEL 7
REMARK VINA RESULT:      -8.2      1.818      9.154
REMARK  11 active torsions:
REMARK  status: ('A' for Active; 'I' for Inactive)
REMARK    1  A    between atoms: C_17  and  C_9 
REMARK    2  A    between atoms: C_18  and  C_10 
REMARK    3  A    between atoms: C_19  and  C_11 
REMARK    4  A    between atoms: C_20  and  C_12 
REMARK    5  A    between atoms: C_22  and  C_21 
REMARK    6  A    between atoms: O_33  and  C_25 
REMARK    7  A    between atoms: O_34  and  C_26 
REMARK    8  A    between atoms: O_35  and  C_27 
REMARK    9  A    between atoms: O_36  and  C_28 
REMARK   10  A    between atoms: O_37  and  C_29 
REMARK   11  A    between atoms: O_38  and  C_30 
ROOT
HETATM    1  C   UNK N   1      26.165  19.772   3.809  0.00  0.00     0.049 C 
HETATM    2  C   UNK N   1      23.893  18.861   3.818  0.00  0.00     0.020 A 
HETATM    3  C   UNK N   1      25.223  18.666   4.157  0.00  0.00    -0.047 A 
HETATM    4  C   UNK N   1      22.890  17.957   4.179  0.00  0.00    -0.012 A 
HETATM    5  C   UNK N   1      22.175  15.975   5.429  0.00  0.00     0.051 A 
HETATM    6  C   UNK N   1      21.558  18.182   3.744  0.00  0.00    -0.007 A 
HETATM    7  C   UNK N   1      25.623  17.482   4.834  0.00  0.00     0.017 A 
HETATM    8  C   UNK N   1      23.223  16.832   4.968  0.00  0.00     0.025 A 
HETATM    9  C   UNK N   1      20.847  16.236   5.036  0.00  0.00     0.113 A 
HETATM   10  C   UNK N   1      24.600  16.575   5.248  0.00  0.00     0.089 A 
HETATM   11  C   UNK N   1      20.543  17.301   4.189  0.00  0.00     0.107 A 
ENDROOT
BRANCH   7  12
HETATM   12  C   UNK N   1      27.091  17.118   5.043  0.00  0.00     0.017 A 
HETATM   13  C   UNK N   1      27.856  16.448   4.053  0.00  0.00    -0.047 A 
HETATM   14  C   UNK N   1      27.257  15.824   2.834  0.00  0.00     0.049 C 
HETATM   15  C   UNK N   1      29.228  16.310   4.203  0.00  0.00     0.020 A 
HETATM   16  C   UNK N   1      29.902  16.752   5.344  0.00  0.00    -0.012 A 
HETATM   17  C   UNK N   1      31.315  16.642   5.409  0.00  0.00    -0.007 A 
HETATM   18  C   UNK N   1      29.160  17.306   6.415  0.00  0.00     0.025 A 
HETATM   19  C   UNK N   1      31.971  17.017   6.605  0.00  0.00     0.107 A 
HETATM   20  C   UNK N   1      31.241  17.486   7.698  0.00  0.00     0.113 A 
HETATM   21  C   UNK N   1      29.843  17.649   7.623  0.00  0.00     0.051 A 
HETATM   22  C   UNK N   1      27.763  17.531   6.235  0.00  0.00     0.089 A 
BRANCH  17  23
HETATM   23  C   UNK N   1      32.073  16.154   4.169  0.00  0.00     0.014 C 
HETATM   24  C   UNK N   1      33.046  15.000   4.344  0.00  0.00     0.015 C 
HETATM   25  C   UNK N   1      32.843  17.309   3.540  0.00  0.00     0.015 C 
ENDBRANCH  17  23
BRANCH  19  26
HETATM   26  O   UNK N   1      33.307  16.934   6.722  0.00  0.00    -0.357 OA
HETATM   27  H   UNK N   1      33.858  17.661   6.508  0.00  0.00     0.217 HD
ENDBRANCH  19  26
BRANCH  20  28
HETATM   28  O   UNK N   1      31.906  17.803   8.827  0.00  0.00    -0.357 OA
HETATM   29  H   UNK N   1      31.929  18.672   9.175  0.00  0.00     0.217 HD
ENDBRANCH  20  28
BRANCH  21  30
HETATM   30  C   UNK N   1      29.092  18.138   8.812  0.00  0.00     0.273 C 
HETATM   31  O   UNK N   1      28.797  17.415   9.750  0.00  0.00    -0.301 OA
ENDBRANCH  21  30
BRANCH  22  32
HETATM   32  O   UNK N   1      27.084  18.221   7.165  0.00  0.00    -0.359 OA
HETATM   33  H   UNK N   1      26.554  18.969   6.968  0.00  0.00     0.217 HD
ENDBRANCH  22  32
ENDBRANCH   7  12
BRANCH  10  34
HETATM   34  O   UNK N   1      24.946  15.418   5.835  0.00  0.00    -0.359 OA
HETATM   35  H   UNK N   1      24.825  15.247   6.749  0.00  0.00     0.217 HD
ENDBRANCH  10  34
BRANCH   5  36
HETATM   36  C   UNK N   1      22.466  14.838   6.345  0.00  0.00     0.273 C 
HETATM   37  O   UNK N   1      22.382  13.671   5.996  0.00  0.00    -0.301 OA
ENDBRANCH   5  36
BRANCH   6  38
HETATM   38  C   UNK N   1      21.281  19.346   2.785  0.00  0.00     0.014 C 
HETATM   39  C   UNK N   1      20.450  20.507   3.307  0.00  0.00     0.015 C 
HETATM   40  C   UNK N   1      20.604  18.831   1.523  0.00  0.00     0.015 C 
ENDBRANCH   6  38
BRANCH   9  41
HETATM   41  O   UNK N   1      19.842  15.442   5.458  0.00  0.00    -0.357 OA
HETATM   42  H   UNK N   1      19.355  14.890   4.879  0.00  0.00     0.217 HD
ENDBRANCH   9  41
BRANCH  11  43
HETATM   43  O   UNK N   1      19.263  17.466   3.809  0.00  0.00    -0.357 OA
HETATM   44  H   UNK N   1      18.568  17.469   4.437  0.00  0.00     0.217 HD
ENDBRANCH  11  43
TORSDOF 11
ENDMDL
MODEL 8
REMARK VINA RESULT:      -7.8      2.562      4.086
REMARK  11 active torsions:
REMARK  status: ('A' for Active; 'I' for Inactive)
REMARK    1  A    between atoms: C_17  and  C_9 
REMARK    2  A    between atoms: C_18  and  C_10 
REMARK    3  A    between atoms: C_19  and  C_11 
REMARK    4  A    between atoms: C_20  and  C_12 
REMARK    5  A    between atoms: C_22  and  C_21 
REMARK    6  A    between atoms: O_33  and  C_25 
REMARK    7  A    between atoms: O_34  and  C_26 
REMARK    8  A    between atoms: O_35  and  C_27 
REMARK    9  A    between atoms: O_36  and  C_28 
REMARK   10  A    between atoms: O_37  and  C_29 
REMARK   11  A    between atoms: O_38  and  C_30 
ROOT
HETATM    1  C   UNK N   1      27.561  14.406   3.883  0.00  0.00     0.049 C 
HETATM    2  C   UNK N   1      29.462  15.548   4.920  0.00  0.00     0.020 A 
HETATM    3  C   UNK N   1      28.094  15.320   4.937  0.00  0.00    -0.047 A 
HETATM    4  C   UNK N   1      30.107  16.295   5.909  0.00  0.00    -0.012 A 
HETATM    5  C   UNK N   1      30.044  17.454   8.066  0.00  0.00     0.051 A 
HETATM    6  C   UNK N   1      31.499  16.546   5.797  0.00  0.00    -0.007 A 
HETATM    7  C   UNK N   1      27.283  15.911   5.943  0.00  0.00     0.017 A 
HETATM    8  C   UNK N   1      29.358  16.790   7.002  0.00  0.00     0.025 A 
HETATM    9  C   UNK N   1      31.436  17.653   7.973  0.00  0.00     0.113 A 
HETATM   10  C   UNK N   1      27.939  16.637   6.984  0.00  0.00     0.089 A 
HETATM   11  C   UNK N   1      32.150  17.233   6.851  0.00  0.00     0.107 A 
ENDROOT
BRANCH   7  12
HETATM   12  C   UNK N   1      25.757  15.869   5.890  0.00  0.00     0.017 A 
HETATM   13  C   UNK N   1      25.004  16.717   5.036  0.00  0.00    -0.047 A 
HETATM   14  C   UNK N   1      25.593  17.877   4.302  0.00  0.00     0.049 C 
HETATM   15  C   UNK N   1      23.641  16.514   4.875  0.00  0.00     0.020 A 
HETATM   16  C   UNK N   1      22.944  15.533   5.584  0.00  0.00    -0.012 A 
HETATM   17  C   UNK N   1      21.563  15.332   5.326  0.00  0.00    -0.007 A 
HETATM   18  C   UNK N   1      23.631  14.754   6.545  0.00  0.00     0.025 A 
HETATM   19  C   UNK N   1      20.856  14.392   6.112  0.00  0.00     0.107 A 
HETATM   20  C   UNK N   1      21.504  13.678   7.119  0.00  0.00     0.113 A 
HETATM   21  C   UNK N   1      22.887  13.833   7.347  0.00  0.00     0.051 A 
HETATM   22  C   UNK N   1      25.046  14.894   6.655  0.00  0.00     0.089 A 
BRANCH  17  23
HETATM   23  C   UNK N   1      20.905  16.116   4.184  0.00  0.00     0.014 C 
HETATM   24  C   UNK N   1      19.534  16.720   4.440  0.00  0.00     0.015 C 
HETATM   25  C   UNK N   1      20.793  15.237   2.944  0.00  0.00     0.015 C 
ENDBRANCH  17  23
BRANCH  19  26
HETATM   26  O   UNK N   1      19.547  14.161   5.911  0.00  0.00    -0.357 OA
HETATM   27  H   UNK N   1      19.112  13.445   6.332  0.00  0.00     0.217 HD
ENDBRANCH  19  26
BRANCH  20  28
HETATM   28  O   UNK N   1      20.783  12.815   7.863  0.00  0.00    -0.357 OA
HETATM   29  H   UNK N   1      19.932  12.515   7.609  0.00  0.00     0.217 HD
ENDBRANCH  20  28
BRANCH  21  30
HETATM   30  C   UNK N   1      23.546  13.066   8.439  0.00  0.00     0.273 C 
HETATM   31  O   UNK N   1      23.744  11.863   8.375  0.00  0.00    -0.301 OA
ENDBRANCH  21  30
BRANCH  22  32
HETATM   32  O   UNK N   1      25.733  14.036   7.427  0.00  0.00    -0.359 OA
HETATM   33  H   UNK N   1      25.796  14.118   8.358  0.00  0.00     0.217 HD
ENDBRANCH  22  32
ENDBRANCH   7  12
BRANCH  10  34
HETATM   34  O   UNK N   1      27.199  17.260   7.916  0.00  0.00    -0.359 OA
HETATM   35  H   UNK N   1      26.738  18.061   7.758  0.00  0.00     0.217 HD
ENDBRANCH  10  34
BRANCH   5  36
HETATM   36  C   UNK N   1      29.313  17.902   9.284  0.00  0.00     0.273 C 
HETATM   37  O   UNK N   1      29.114  17.170  10.240  0.00  0.00    -0.301 OA
ENDBRANCH   5  36
BRANCH   6  38
HETATM   38  C   UNK N   1      32.231  16.094   4.528  0.00  0.00     0.014 C 
HETATM   39  C   UNK N   1      33.498  15.271   4.700  0.00  0.00     0.015 C 
HETATM   40  C   UNK N   1      32.585  17.303   3.673  0.00  0.00     0.015 C 
ENDBRANCH   6  38
BRANCH   9  41
HETATM   41  O   UNK N   1      32.105  18.276   8.963  0.00  0.00    -0.357 OA
HETATM   42  H   UNK N   1      32.856  17.904   9.381  0.00  0.00     0.217 HD
ENDBRANCH   9  41
BRANCH  11  43
HETATM   43  O   UNK N   1      33.468  17.499   6.799  0.00  0.00    -0.357 OA
HETATM   44  H   UNK N   1      34.019  17.093   6.159  0.00  0.00     0.217 HD
ENDBRANCH  11  43
TORSDOF 11
ENDMDL
MODEL 9
REMARK VINA RESULT:      -7.8      2.188      4.346
REMARK  11 active torsions:
REMARK  status: ('A' for Active; 'I' for Inactive)
REMARK    1  A    between atoms: C_17  and  C_9 
REMARK    2  A    between atoms: C_18  and  C_10 
REMARK    3  A    between atoms: C_19  and  C_11 
REMARK    4  A    between atoms: C_20  and  C_12 
REMARK    5  A    between atoms: C_22  and  C_21 
REMARK    6  A    between atoms: O_33  and  C_25 
REMARK    7  A    between atoms: O_34  and  C_26 
REMARK    8  A    between atoms: O_35  and  C_27 
REMARK    9  A    between atoms: O_36  and  C_28 
REMARK   10  A    between atoms: O_37  and  C_29 
REMARK   11  A    between atoms: O_38  and  C_30 
ROOT
HETATM    1  C   UNK N   1      27.301  19.783   7.007  0.00  0.00     0.049 C 
HETATM    2  C   UNK N   1      29.154  18.246   6.565  0.00  0.00     0.020 A 
HETATM    3  C   UNK N   1      27.884  18.668   6.203  0.00  0.00    -0.047 A 
HETATM    4  C   UNK N   1      29.860  17.287   5.835  0.00  0.00    -0.012 A 
HETATM    5  C   UNK N   1      30.069  15.873   3.844  0.00  0.00     0.051 A 
HETATM    6  C   UNK N   1      31.128  16.850   6.296  0.00  0.00    -0.007 A 
HETATM    7  C   UNK N   1      27.222  18.074   5.094  0.00  0.00     0.017 A 
HETATM    8  C   UNK N   1      29.293  16.766   4.647  0.00  0.00     0.025 A 
HETATM    9  C   UNK N   1      31.350  15.485   4.284  0.00  0.00     0.113 A 
HETATM   10  C   UNK N   1      27.953  17.128   4.313  0.00  0.00     0.089 A 
HETATM   11  C   UNK N   1      31.864  15.941   5.498  0.00  0.00     0.107 A 
ENDROOT
BRANCH   7  12
HETATM   12  C   UNK N   1      25.753  18.347   4.779  0.00  0.00     0.017 A 
HETATM   13  C   UNK N   1      25.345  19.398   3.915  0.00  0.00    -0.047 A 
HETATM   14  C   UNK N   1      26.267  20.471   3.434  0.00  0.00     0.049 C 
HETATM   15  C   UNK N   1      24.024  19.490   3.503  0.00  0.00     0.020 A 
HETATM   16  C   UNK N   1      23.036  18.616   3.962  0.00  0.00    -0.012 A 
HETATM   17  C   UNK N   1      21.717  18.722   3.452  0.00  0.00    -0.007 A 
HETATM   18  C   UNK N   1      23.372  17.637   4.927  0.00  0.00     0.025 A 
HETATM   19  C   UNK N   1      20.711  17.884   3.990  0.00  0.00     0.107 A 
HETATM   20  C   UNK N   1      21.014  16.972   5.001  0.00  0.00     0.113 A 
HETATM   21  C   UNK N   1      22.333  16.823   5.476  0.00  0.00     0.051 A 
HETATM   22  C   UNK N   1      24.742  17.478   5.291  0.00  0.00     0.089 A 
BRANCH  17  23
HETATM   23  C   UNK N   1      21.443  19.715   2.316  0.00  0.00     0.014 C 
HETATM   24  C   UNK N   1      20.686  20.988   2.657  0.00  0.00     0.015 C 
HETATM   25  C   UNK N   1      20.688  19.023   1.188  0.00  0.00     0.015 C 
ENDBRANCH  17  23
BRANCH  19  26
HETATM   26  O   UNK N   1      19.444  17.941   3.544  0.00  0.00    -0.357 OA
HETATM   27  H   UNK N   1      19.093  18.731   3.183  0.00  0.00     0.217 HD
ENDBRANCH  19  26
BRANCH  20  28
HETATM   28  O   UNK N   1      20.018  16.215   5.504  0.00  0.00    -0.357 OA
HETATM   29  H   UNK N   1      20.170  15.395   5.932  0.00  0.00     0.217 HD
ENDBRANCH  20  28
BRANCH  21  30
HETATM   30  C   UNK N   1      22.620  15.851   6.566  0.00  0.00     0.273 C 
HETATM   31  O   UNK N   1      21.811  15.579   7.439  0.00  0.00    -0.301 OA
ENDBRANCH  21  30
BRANCH  22  32
HETATM   32  O   UNK N   1      25.100  16.437   6.061  0.00  0.00    -0.359 OA
HETATM   33  H   UNK N   1      25.833  16.456   6.646  0.00  0.00     0.217 HD
ENDBRANCH  22  32
ENDBRANCH   7  12
BRANCH  10  34
HETATM   34  O   UNK N   1      27.338  16.502   3.296  0.00  0.00    -0.359 OA
HETATM   35  H   UNK N   1      27.549  15.630   3.025  0.00  0.00     0.217 HD
ENDBRANCH  10  34
BRANCH   5  36
HETATM   36  C   UNK N   1      29.555  15.379   2.537  0.00  0.00     0.273 C 
HETATM   37  O   UNK N   1      29.229  14.217   2.353  0.00  0.00    -0.301 OA
ENDBRANCH   5  36
BRANCH   6  38
HETATM   38  C   UNK N   1      31.633  17.354   7.654  0.00  0.00     0.014 C 
HETATM   39  C   UNK N   1      33.035  17.937   7.713  0.00  0.00     0.015 C 
HETATM   40  C   UNK N   1      31.560  16.235   8.684  0.00  0.00     0.015 C 
ENDBRANCH   6  38
BRANCH   9  41
HETATM   41  O   UNK N   1      32.100  14.644   3.545  0.00  0.00    -0.357 OA
HETATM   42  H   UNK N   1      31.958  14.509   2.629  0.00  0.00     0.217 HD
ENDBRANCH   9  41
BRANCH  11  43
HETATM   43  O   UNK N   1      33.072  15.493   5.887  0.00  0.00    -0.357 OA
HETATM   44  H   UNK N   1      33.241  14.576   5.978  0.00  0.00     0.217 HD
ENDBRANCH  11  43
TORSDOF 11
ENDMDL
