MODEL 1
REMARK VINA RESULT:      -5.5      0.000      0.000
REMARK  2 active torsions:
REMARK  status: ('A' for Active; 'I' for Inactive)
REMARK    1  A    between atoms: C_7  and  C_8 
REMARK    2  A    between atoms: C_7  and  N_13 
ROOT
HETATM    1  C   UNK N   1      26.543  26.886  -3.296  0.00  0.00     0.013 C 
HETATM    2  C   UNK N   1      26.186  25.820  -4.330  0.00  0.00     0.026 C 
HETATM    3  C   UNK N   1      25.151  26.388  -5.310  0.00  0.00     0.007 C 
HETATM    4  C   UNK N   1      25.765  27.473  -6.192  0.00  0.00     0.001 C 
HETATM    5  C   UNK N   1      26.979  26.929  -6.936  0.00  0.00     0.003 C 
HETATM    6  C   UNK N   1      28.014  26.389  -5.947  0.00  0.00     0.048 C 
HETATM    7  C   UNK N   1      27.442  25.252  -5.068  0.00  0.00     0.196 C 
ENDROOT
BRANCH   7   8
HETATM    8  C   UNK N   1      27.056  24.073  -5.973  0.00  0.00     0.021 A 
HETATM    9  C   UNK N   1      25.844  23.376  -5.978  0.00  0.00     0.018 A 
HETATM   10  C   UNK N   1      25.788  22.354  -6.969  0.00  0.00     0.008 A 
HETATM   11  C   UNK N   1      26.947  22.249  -7.748  0.00  0.00     0.050 A 
HETATM   12  S   UNK N   1      27.984  23.411  -7.181  0.00  0.00    -0.104 SA
ENDBRANCH   7   8
BRANCH   7  13
HETATM   13  N   UNK N   1      28.458  24.855  -4.059  0.00  0.00     0.103 N 
HETATM   14  C   UNK N   1      29.842  24.912  -4.560  0.00  0.00     0.274 C 
HETATM   15  C   UNK N   1      30.833  24.685  -3.419  0.00  0.00     0.030 C 
HETATM   16  C   UNK N   1      30.552  23.349  -2.736  0.00  0.00     0.003 C 
HETATM   17  C   UNK N   1      29.094  23.277  -2.297  0.00  0.00     0.030 C 
HETATM   18  C   UNK N   1      28.198  23.518  -3.507  0.00  0.00     0.274 C 
ENDBRANCH   7  13
TORSDOF 2
ENDMDL
MODEL 2
REMARK VINA RESULT:      -5.5     13.963     15.767
REMARK  2 active torsions:
REMARK  status: ('A' for Active; 'I' for Inactive)
REMARK    1  A    between atoms: C_7  and  C_8 
REMARK    2  A    between atoms: C_7  and  N_13 
ROOT
HETATM    1  C   UNK N   1      30.267  14.619   5.525  0.00  0.00     0.013 C 
HETATM    2  C   UNK N   1      31.552  15.032   6.240  0.00  0.00     0.026 C 
HETATM    3  C   UNK N   1      32.760  14.667   5.367  0.00  0.00     0.007 C 
HETATM    4  C   UNK N   1      32.816  15.537   4.112  0.00  0.00     0.001 C 
HETATM    5  C   UNK N   1      32.843  17.014   4.490  0.00  0.00     0.003 C 
HETATM    6  C   UNK N   1      31.621  17.370   5.339  0.00  0.00     0.048 C 
HETATM    7  C   UNK N   1      31.556  16.543   6.645  0.00  0.00     0.196 C 
ENDROOT
BRANCH   7   8
HETATM    8  C   UNK N   1      32.787  16.874   7.501  0.00  0.00     0.021 A 
HETATM    9  C   UNK N   1      33.506  18.072   7.516  0.00  0.00     0.018 A 
HETATM   10  C   UNK N   1      34.578  18.072   8.454  0.00  0.00     0.008 A 
HETATM   11  C   UNK N   1      34.701  16.883   9.183  0.00  0.00     0.050 A 
HETATM   12  S   UNK N   1      33.492  15.888   8.638  0.00  0.00    -0.104 SA
ENDBRANCH   7   8
BRANCH   7  13
HETATM   13  N   UNK N   1      30.293  16.856   7.360  0.00  0.00     0.103 N 
HETATM   14  C   UNK N   1      29.416  17.787   6.631  0.00  0.00     0.274 C 
HETATM   15  C   UNK N   1      28.061  17.905   7.330  0.00  0.00     0.030 C 
HETATM   16  C   UNK N   1      28.253  18.352   8.777  0.00  0.00     0.003 C 
HETATM   17  C   UNK N   1      29.227  17.422   9.492  0.00  0.00     0.030 C 
HETATM   18  C   UNK N   1      30.537  17.379   8.712  0.00  0.00     0.274 C 
ENDBRANCH   7  13
TORSDOF 2
ENDMDL
MODEL 3
REMARK VINA RESULT:      -5.3     13.198     15.391
REMARK  2 active torsions:
REMARK  status: ('A' for Active; 'I' for Inactive)
REMARK    1  A    between atoms: C_7  and  C_8 
REMARK    2  A    between atoms: C_7  and  N_13 
ROOT
HETATM    1  C   UNK N   1      33.435  18.265   7.965  0.00  0.00     0.013 C 
HETATM    2  C   UNK N   1      32.944  17.503   6.736  0.00  0.00     0.026 C 
HETATM    3  C   UNK N   1      34.091  16.658   6.167  0.00  0.00     0.007 C 
HETATM    4  C   UNK N   1      34.452  15.512   7.111  0.00  0.00     0.001 C 
HETATM    5  C   UNK N   1      33.226  14.649   7.392  0.00  0.00     0.003 C 
HETATM    6  C   UNK N   1      32.099  15.499   7.981  0.00  0.00     0.048 C 
HETATM    7  C   UNK N   1      31.672  16.642   7.030  0.00  0.00     0.196 C 
ENDROOT
BRANCH   7   8
HETATM    8  C   UNK N   1      31.117  16.029   5.737  0.00  0.00     0.021 A 
HETATM    9  C   UNK N   1      30.423  14.823   5.605  0.00  0.00     0.018 A 
HETATM   10  C   UNK N   1      30.010  14.555   4.268  0.00  0.00     0.008 A 
HETATM   11  C   UNK N   1      30.370  15.547   3.348  0.00  0.00     0.050 A 
HETATM   12  S   UNK N   1      31.180  16.702   4.220  0.00  0.00    -0.104 SA
ENDBRANCH   7   8
BRANCH   7  13
HETATM   13  N   UNK N   1      30.659  17.491   7.710  0.00  0.00     0.103 N 
HETATM   14  C   UNK N   1      30.342  17.051   9.079  0.00  0.00     0.274 C 
HETATM   15  C   UNK N   1      29.450  18.077   9.777  0.00  0.00     0.030 C 
HETATM   16  C   UNK N   1      28.178  18.307   8.967  0.00  0.00     0.003 C 
HETATM   17  C   UNK N   1      28.527  18.683   7.531  0.00  0.00     0.030 C 
HETATM   18  C   UNK N   1      29.415  17.596   6.934  0.00  0.00     0.274 C 
ENDBRANCH   7  13
TORSDOF 2
ENDMDL
MODEL 4
REMARK VINA RESULT:      -5.2      2.250      4.525
REMARK  2 active torsions:
REMARK  status: ('A' for Active; 'I' for Inactive)
REMARK    1  A    between atoms: C_7  and  C_8 
REMARK    2  A    between atoms: C_7  and  N_13 
ROOT
HETATM    1  C   UNK N   1      27.944  29.263  -6.450  0.00  0.00     0.013 C 
HETATM    2  C   UNK N   1      28.064  28.132  -5.431  0.00  0.00     0.026 C 
HETATM    3  C   UNK N   1      27.964  28.711  -4.014  0.00  0.00     0.007 C 
HETATM    4  C   UNK N   1      26.556  29.231  -3.728  0.00  0.00     0.001 C 
HETATM    5  C   UNK N   1      25.529  28.124  -3.938  0.00  0.00     0.003 C 
HETATM    6  C   UNK N   1      25.622  27.573  -5.362  0.00  0.00     0.048 C 
HETATM    7  C   UNK N   1      27.021  26.992  -5.673  0.00  0.00     0.196 C 
ENDROOT
BRANCH   7   8
HETATM    8  C   UNK N   1      27.284  25.805  -4.734  0.00  0.00     0.021 A 
HETATM    9  C   UNK N   1      26.338  24.918  -4.212  0.00  0.00     0.018 A 
HETATM   10  C   UNK N   1      26.913  23.899  -3.399  0.00  0.00     0.008 A 
HETATM   11  C   UNK N   1      28.306  23.977  -3.284  0.00  0.00     0.050 A 
HETATM   12  S   UNK N   1      28.764  25.293  -4.183  0.00  0.00    -0.104 SA
ENDBRANCH   7   8
BRANCH   7  13
HETATM   13  N   UNK N   1      27.075  26.581  -7.100  0.00  0.00     0.103 N 
HETATM   14  C   UNK N   1      25.771  26.168  -7.646  0.00  0.00     0.274 C 
HETATM   15  C   UNK N   1      25.868  25.952  -9.156  0.00  0.00     0.030 C 
HETATM   16  C   UNK N   1      26.946  24.920  -9.472  0.00  0.00     0.003 C 
HETATM   17  C   UNK N   1      28.269  25.324  -8.830  0.00  0.00     0.030 C 
HETATM   18  C   UNK N   1      28.058  25.512  -7.332  0.00  0.00     0.274 C 
ENDBRANCH   7  13
TORSDOF 2
ENDMDL
MODEL 5
REMARK VINA RESULT:      -5.1      1.216      4.333
REMARK  2 active torsions:
REMARK  status: ('A' for Active; 'I' for Inactive)
REMARK    1  A    between atoms: C_7  and  C_8 
REMARK    2  A    between atoms: C_7  and  N_13 
ROOT
HETATM    1  C   UNK N   1      30.648  26.477  -3.545  0.00  0.00     0.013 C 
HETATM    2  C   UNK N   1      30.275  25.525  -4.680  0.00  0.00     0.026 C 
HETATM    3  C   UNK N   1      31.250  24.341  -4.691  0.00  0.00     0.007 C 
HETATM    4  C   UNK N   1      31.050  23.449  -3.467  0.00  0.00     0.001 C 
HETATM    5  C   UNK N   1      29.606  22.965  -3.393  0.00  0.00     0.003 C 
HETATM    6  C   UNK N   1      28.646  24.155  -3.357  0.00  0.00     0.048 C 
HETATM    7  C   UNK N   1      28.785  25.056  -4.606  0.00  0.00     0.196 C 
ENDROOT
BRANCH   7   8
HETATM    8  C   UNK N   1      28.409  24.238  -5.850  0.00  0.00     0.021 A 
HETATM    9  C   UNK N   1      27.318  23.376  -5.995  0.00  0.00     0.018 A 
HETATM   10  C   UNK N   1      27.230  22.794  -7.292  0.00  0.00     0.008 A 
HETATM   11  C   UNK N   1      28.242  23.199  -8.171  0.00  0.00     0.050 A 
HETATM   12  S   UNK N   1      29.197  24.248  -7.312  0.00  0.00    -0.104 SA
ENDBRANCH   7   8
BRANCH   7  13
HETATM   13  N   UNK N   1      27.910  26.246  -4.451  0.00  0.00     0.103 N 
HETATM   14  C   UNK N   1      26.726  26.004  -3.610  0.00  0.00     0.274 C 
HETATM   15  C   UNK N   1      25.986  27.314  -3.337  0.00  0.00     0.030 C 
HETATM   16  C   UNK N   1      25.596  27.982  -4.653  0.00  0.00     0.003 C 
HETATM   17  C   UNK N   1      26.822  28.150  -5.543  0.00  0.00     0.030 C 
HETATM   18  C   UNK N   1      27.479  26.790  -5.748  0.00  0.00     0.274 C 
ENDBRANCH   7  13
TORSDOF 2
ENDMDL
MODEL 6
REMARK VINA RESULT:      -5.0      1.615      4.432
REMARK  2 active torsions:
REMARK  status: ('A' for Active; 'I' for Inactive)
REMARK    1  A    between atoms: C_7  and  C_8 
REMARK    2  A    between atoms: C_7  and  N_13 
ROOT
HETATM    1  C   UNK N   1      25.912  26.326  -8.315  0.00  0.00     0.013 C 
HETATM    2  C   UNK N   1      27.026  26.242  -7.272  0.00  0.00     0.026 C 
HETATM    3  C   UNK N   1      27.063  27.544  -6.462  0.00  0.00     0.007 C 
HETATM    4  C   UNK N   1      25.826  27.678  -5.576  0.00  0.00     0.001 C 
HETATM    5  C   UNK N   1      25.697  26.468  -4.657  0.00  0.00     0.003 C 
HETATM    6  C   UNK N   1      25.636  25.179  -5.479  0.00  0.00     0.048 C 
HETATM    7  C   UNK N   1      26.896  24.983  -6.354  0.00  0.00     0.196 C 
ENDROOT
BRANCH   7   8
HETATM    8  C   UNK N   1      28.120  24.850  -5.436  0.00  0.00     0.021 A 
HETATM    9  C   UNK N   1      29.386  25.408  -5.633  0.00  0.00     0.018 A 
HETATM   10  C   UNK N   1      30.295  25.126  -4.573  0.00  0.00     0.008 A 
HETATM   11  C   UNK N   1      29.748  24.356  -3.539  0.00  0.00     0.050 A 
HETATM   12  S   UNK N   1      28.178  24.055  -3.979  0.00  0.00    -0.104 SA
ENDBRANCH   7   8
BRANCH   7  13
HETATM   13  N   UNK N   1      26.719  23.779  -7.205  0.00  0.00     0.103 N 
HETATM   14  C   UNK N   1      25.791  22.785  -6.638  0.00  0.00     0.274 C 
HETATM   15  C   UNK N   1      25.510  21.677  -7.652  0.00  0.00     0.030 C 
HETATM   16  C   UNK N   1      26.816  21.020  -8.090  0.00  0.00     0.003 C 
HETATM   17  C   UNK N   1      27.793  22.074  -8.598  0.00  0.00     0.030 C 
HETATM   18  C   UNK N   1      27.999  23.125  -7.513  0.00  0.00     0.274 C 
ENDBRANCH   7  13
TORSDOF 2
ENDMDL
MODEL 7
REMARK VINA RESULT:      -5.0     11.193     13.495
REMARK  2 active torsions:
REMARK  status: ('A' for Active; 'I' for Inactive)
REMARK    1  A    between atoms: C_7  and  C_8 
REMARK    2  A    between atoms: C_7  and  N_13 
ROOT
HETATM    1  C   UNK N   1      26.083  15.989   5.522  0.00  0.00     0.013 C 
HETATM    2  C   UNK N   1      27.589  15.903   5.762  0.00  0.00     0.026 C 
HETATM    3  C   UNK N   1      28.099  14.528   5.313  0.00  0.00     0.007 C 
HETATM    4  C   UNK N   1      28.024  14.381   3.794  0.00  0.00     0.001 C 
HETATM    5  C   UNK N   1      28.804  15.501   3.113  0.00  0.00     0.003 C 
HETATM    6  C   UNK N   1      28.270  16.866   3.551  0.00  0.00     0.048 C 
HETATM    7  C   UNK N   1      28.374  17.071   5.080  0.00  0.00     0.196 C 
ENDROOT
BRANCH   7   8
HETATM    8  C   UNK N   1      29.856  17.039   5.483  0.00  0.00     0.021 A 
HETATM    9  C   UNK N   1      30.397  16.532   6.667  0.00  0.00     0.018 A 
HETATM   10  C   UNK N   1      31.818  16.619   6.719  0.00  0.00     0.008 A 
HETATM   11  C   UNK N   1      32.398  17.187   5.578  0.00  0.00     0.050 A 
HETATM   12  S   UNK N   1      31.139  17.557   4.564  0.00  0.00    -0.104 SA
ENDBRANCH   7   8
BRANCH   7  13
HETATM   13  N   UNK N   1      27.737  18.362   5.445  0.00  0.00     0.103 N 
HETATM   14  C   UNK N   1      27.813  19.380   4.384  0.00  0.00     0.274 C 
HETATM   15  C   UNK N   1      26.971  20.601   4.753  0.00  0.00     0.030 C 
HETATM   16  C   UNK N   1      27.429  21.170   6.093  0.00  0.00     0.003 C 
HETATM   17  C   UNK N   1      27.420  20.082   7.160  0.00  0.00     0.030 C 
HETATM   18  C   UNK N   1      28.286  18.918   6.690  0.00  0.00     0.274 C 
ENDBRANCH   7  13
TORSDOF 2
ENDMDL
MODEL 8
REMARK VINA RESULT:      -5.0     14.149     16.875
REMARK  2 active torsions:
REMARK  status: ('A' for Active; 'I' for Inactive)
REMARK    1  A    between atoms: C_7  and  C_8 
REMARK    2  A    between atoms: C_7  and  N_13 
ROOT
HETATM    1  C   UNK N   1      31.170  17.131   8.325  0.00  0.00     0.013 C 
HETATM    2  C   UNK N   1      31.767  16.022   7.460  0.00  0.00     0.026 C 
HETATM    3  C   UNK N   1      31.237  16.155   6.026  0.00  0.00     0.007 C 
HETATM    4  C   UNK N   1      31.793  17.404   5.346  0.00  0.00     0.001 C 
HETATM    5  C   UNK N   1      33.318  17.385   5.365  0.00  0.00     0.003 C 
HETATM    6  C   UNK N   1      33.833  17.278   6.801  0.00  0.00     0.048 C 
HETATM    7  C   UNK N   1      33.330  15.998   7.508  0.00  0.00     0.196 C 
ENDROOT
BRANCH   7   8
HETATM    8  C   UNK N   1      33.878  14.773   6.762  0.00  0.00     0.021 A 
HETATM    9  C   UNK N   1      33.187  13.600   6.444  0.00  0.00     0.018 A 
HETATM   10  C   UNK N   1      33.974  12.666   5.711  0.00  0.00     0.008 A 
HETATM   11  C   UNK N   1      35.279  13.100   5.446  0.00  0.00     0.050 A 
HETATM   12  S   UNK N   1      35.404  14.607   6.126  0.00  0.00    -0.104 SA
ENDBRANCH   7   8
BRANCH   7  13
HETATM   13  N   UNK N   1      33.771  16.016   8.926  0.00  0.00     0.103 N 
HETATM   14  C   UNK N   1      35.005  16.788   9.152  0.00  0.00     0.274 C 
HETATM   15  C   UNK N   1      35.284  16.926  10.648  0.00  0.00     0.030 C 
HETATM   16  C   UNK N   1      35.374  15.546  11.295  0.00  0.00     0.003 C 
HETATM   17  C   UNK N   1      34.123  14.733  10.983  0.00  0.00     0.030 C 
HETATM   18  C   UNK N   1      33.941  14.661   9.471  0.00  0.00     0.274 C 
ENDBRANCH   7  13
TORSDOF 2
ENDMDL
MODEL 9
REMARK VINA RESULT:      -4.8     11.540     13.376
REMARK  2 active torsions:
REMARK  status: ('A' for Active; 'I' for Inactive)
REMARK    1  A    between atoms: C_7  and  C_8 
REMARK    2  A    between atoms: C_7  and  N_13 
ROOT
HETATM    1  C   UNK N   1      31.805  17.660   4.410  0.00  0.00     0.013 C 
HETATM    2  C   UNK N   1      30.719  16.785   3.786  0.00  0.00     0.026 C 
HETATM    3  C   UNK N   1      31.340  15.468   3.304  0.00  0.00     0.007 C 
HETATM    4  C   UNK N   1      31.787  14.605   4.483  0.00  0.00     0.001 C 
HETATM    5  C   UNK N   1      30.615  14.343   5.423  0.00  0.00     0.003 C 
HETATM    6  C   UNK N   1      30.021  15.664   5.916  0.00  0.00     0.048 C 
HETATM    7  C   UNK N   1      29.512  16.546   4.751  0.00  0.00     0.196 C 
ENDROOT
BRANCH   7   8
HETATM    8  C   UNK N   1      28.376  15.805   4.030  0.00  0.00     0.021 A 
HETATM    9  C   UNK N   1      28.197  15.677   2.650  0.00  0.00     0.018 A 
HETATM   10  C   UNK N   1      27.059  14.893   2.302  0.00  0.00     0.008 A 
HETATM   11  C   UNK N   1      26.347  14.399   3.402  0.00  0.00     0.050 A 
HETATM   12  S   UNK N   1      27.145  14.951   4.746  0.00  0.00    -0.104 SA
ENDBRANCH   7   8
BRANCH   7  13
HETATM   13  N   UNK N   1      29.056  17.853   5.290  0.00  0.00     0.103 N 
HETATM   14  C   UNK N   1      28.455  17.762   6.631  0.00  0.00     0.274 C 
HETATM   15  C   UNK N   1      28.194  19.158   7.196  0.00  0.00     0.030 C 
HETATM   16  C   UNK N   1      27.299  19.950   6.247  0.00  0.00     0.003 C 
HETATM   17  C   UNK N   1      27.897  19.964   4.845  0.00  0.00     0.030 C 
HETATM   18  C   UNK N   1      28.116  18.528   4.383  0.00  0.00     0.274 C 
ENDBRANCH   7  13
TORSDOF 2
ENDMDL
