REMARK  3 active torsions:
REMARK  status: ('A' for Active; 'I' for Inactive)
REMARK    1  A    between atoms: C_2  and  C_10 
REMARK    2  A    between atoms: C_6  and  N_9 
REMARK    3  A    between atoms: C_12  and  C_18 
ROOT
HETATM    1  C   UNK N   1      -0.029  -2.573  -0.204  0.00  0.00     0.009 A 
HETATM    2  C   UNK N   1      -0.699  -1.334  -0.139  0.00  0.00     0.028 A 
HETATM    3  C   UNK N   1      -0.010  -0.126   0.075  0.00  0.00     0.016 A 
HETATM    4  C   UNK N   1       1.392  -0.168   0.230  0.00  0.00     0.130 A 
HETATM    5  C   UNK N   1       2.064  -1.388   0.190  0.00  0.00     0.086 A 
HETATM    6  C   UNK N   1       1.378  -2.582  -0.020  0.00  0.00     0.128 A 
HETATM    7  F   UNK N   1       2.105  -3.724  -0.064  0.00  0.00    -0.205 F 
HETATM    8  F   UNK N   1       2.120   0.959   0.427  0.00  0.00    -0.205 F 
ENDROOT
BRANCH   1   9
HETATM    9  C   UNK N   1      -0.856  -3.828  -0.509  0.00  0.00     0.059 C 
HETATM   10  C   UNK N   1      -1.487  -3.611  -1.885  0.00  0.00     0.044 C 
HETATM   11  C   UNK N   1      -0.017  -5.125  -0.579  0.00  0.00     0.046 C 
HETATM   12  C   UNK N   1      -0.792  -6.441  -0.401  0.00  0.00     0.085 C 
HETATM   13  S   UNK N   1      -2.577  -6.285  -0.735  0.00  0.00    -0.095 SA
HETATM   14  C   UNK N   1      -2.725  -4.976   0.493  0.00  0.00     0.134 C 
HETATM   15  N   UNK N   1      -1.904  -3.977   0.494  0.00  0.00    -0.358 N 
ATOM     16  HN  UNK N   1      -1.992  -3.268   1.222  1.00  0.00     0.162 HD
BRANCH  14  17
HETATM   17  N   UNK N   1      -3.718  -5.070   1.491  0.00  0.00    -0.380 N 
HETATM   18  H   UNK N   1      -4.122  -4.503   2.188  0.00  0.00     0.158 HD
HETATM   19  H   UNK N   1      -4.128  -5.966   1.491  0.00  0.00     0.158 HD
ENDBRANCH  14  17
ENDBRANCH   1   9
BRANCH   3  20
HETATM   20  C   UNK N   1      -0.772   1.158   0.117  0.00  0.00     0.008 A 
HETATM   21  C   UNK N   1      -2.171   1.163   0.060  0.00  0.00     0.102 A 
HETATM   22  N   UNK N   1      -2.855   2.337   0.099  0.00  0.00    -0.361 N 
HETATM   23  C   UNK N   1      -2.199   3.523   0.186  0.00  0.00     0.180 A 
ATOM     24  HN  UNK N   1      -3.874   2.328   0.064  1.00  0.00     0.166 HD
HETATM   25  N   UNK N   1      -0.842   3.549   0.238  0.00  0.00    -0.361 N 
HETATM   26  C   UNK N   1      -0.124   2.397   0.209  0.00  0.00     0.102 A 
ATOM     27  HN  UNK N   1      -0.357   4.444   0.300  1.00  0.00     0.166 HD
ENDBRANCH   3  20
TORSDOF 3
