MODEL 1
REMARK VINA RESULT:      -7.0      0.000      0.000
REMARK  5 active torsions:
REMARK  status: ('A' for Active; 'I' for Inactive)
REMARK    1  A    between atoms: C_6  and  C_8 
REMARK    2  A    between atoms: C_8  and  C_9 
REMARK    3  A    between atoms: C_10  and  C_9 
REMARK    4  A    between atoms: C_10  and  O_23 
REMARK       I    between atoms: N_18  and  C_19 
REMARK    5  A    between atoms: C_19  and  O_21 
ROOT
HETATM    1  C   UNK N   1      30.678  16.046   4.237  0.00  0.00     0.073 C 
HETATM    2  C   UNK N   1      31.341  16.805   3.063  0.00  0.00     0.039 C 
HETATM    3  C   UNK N   1      32.893  16.753   3.162  0.00  0.00     0.005 C 
HETATM    4  C   UNK N   1      33.450  17.263   4.527  0.00  0.00     0.026 C 
HETATM    5  C   UNK N   1      32.322  17.318   5.562  0.00  0.00     0.096 C 
HETATM    6  C   UNK N   1      31.558  16.033   5.501  0.00  0.00     0.045 C 
HETATM    7  C   UNK N   1      30.856  15.907   6.872  0.00  0.00     0.029 C 
HETATM    8  C   UNK N   1      31.443  17.030   7.731  0.00  0.00     0.129 C 
HETATM    9  N   UNK N   1      32.569  17.468   6.967  0.00  0.00    -0.323 N 
HETATM   10  C   UNK N   1      33.747  17.764   7.578  0.00  0.00     0.362 C 
HETATM   11  O   UNK N   1      34.751  17.998   6.922  0.00  0.00    -0.238 OA
ENDROOT
BRANCH   1  12
HETATM   12  C   UNK N   1      29.339  16.550   4.587  0.00  0.00     0.123 C 
BRANCH  12  13
HETATM   13  C   UNK N   1      28.453  17.332   4.828  0.00  0.00    -0.141 C 
BRANCH  13  14
HETATM   14  C   UNK N   1      27.663  18.523   4.968  0.00  0.00     0.005 A 
HETATM   15  C   UNK N   1      27.723  19.323   6.112  0.00  0.00     0.020 A 
HETATM   16  C   UNK N   1      27.033  20.543   6.139  0.00  0.00     0.002 A 
HETATM   17  C   UNK N   1      26.280  20.955   5.031  0.00  0.00     0.007 A 
HETATM   18  C   UNK N   1      26.209  20.144   3.897  0.00  0.00    -0.061 A 
HETATM   19  C   UNK N   1      25.401  20.559   2.719  0.00  0.00     0.048 C 
HETATM   20  C   UNK N   1      26.911  18.941   3.864  0.00  0.00     0.026 A 
ENDBRANCH  13  14
ENDBRANCH  12  13
ENDBRANCH   1  12
BRANCH   1  21
HETATM   21  O   UNK N   1      30.505  14.735   3.798  0.00  0.00    -0.389 OA
HETATM   22  H   UNK N   1      30.476  14.182   3.002  0.00  0.00     0.210 HD
ENDBRANCH   1  21
BRANCH  10  23
HETATM   23  O   UNK N   1      33.789  17.796   8.937  0.00  0.00    -0.309 OA
HETATM   24  C   UNK N   1      34.615  16.992   9.684  0.00  0.00     0.215 C 
ENDBRANCH  10  23
TORSDOF 5
ENDMDL
MODEL 2
REMARK VINA RESULT:      -6.7     11.504     14.532
REMARK  5 active torsions:
REMARK  status: ('A' for Active; 'I' for Inactive)
REMARK    1  A    between atoms: C_6  and  C_8 
REMARK    2  A    between atoms: C_8  and  C_9 
REMARK    3  A    between atoms: C_10  and  C_9 
REMARK    4  A    between atoms: C_10  and  O_23 
REMARK       I    between atoms: N_18  and  C_19 
REMARK    5  A    between atoms: C_19  and  O_21 
ROOT
HETATM    1  C   UNK N   1      25.717  23.203  -8.278  0.00  0.00     0.073 C 
HETATM    2  C   UNK N   1      26.255  22.752  -9.656  0.00  0.00     0.039 C 
HETATM    3  C   UNK N   1      26.966  21.371  -9.560  0.00  0.00     0.005 C 
HETATM    4  C   UNK N   1      28.099  21.324  -8.489  0.00  0.00     0.026 C 
HETATM    5  C   UNK N   1      27.966  22.518  -7.538  0.00  0.00     0.096 C 
HETATM    6  C   UNK N   1      26.537  22.626  -7.108  0.00  0.00     0.045 C 
HETATM    7  C   UNK N   1      26.565  23.419  -5.781  0.00  0.00     0.029 C 
HETATM    8  C   UNK N   1      28.047  23.529  -5.409  0.00  0.00     0.129 C 
HETATM    9  N   UNK N   1      28.674  22.596  -6.292  0.00  0.00    -0.323 N 
HETATM   10  C   UNK N   1      29.667  21.782  -5.847  0.00  0.00     0.362 C 
HETATM   11  O   UNK N   1      30.106  20.885  -6.553  0.00  0.00    -0.238 OA
ENDROOT
BRANCH   1  12
HETATM   12  C   UNK N   1      25.625  24.665  -8.127  0.00  0.00     0.123 C 
BRANCH  12  13
HETATM   13  C   UNK N   1      25.702  25.757  -7.618  0.00  0.00    -0.141 C 
BRANCH  13  14
HETATM   14  C   UNK N   1      25.896  26.838  -6.693  0.00  0.00     0.005 A 
HETATM   15  C   UNK N   1      25.070  27.019  -5.581  0.00  0.00     0.020 A 
HETATM   16  C   UNK N   1      25.385  28.008  -4.640  0.00  0.00     0.002 A 
HETATM   17  C   UNK N   1      26.516  28.818  -4.816  0.00  0.00     0.007 A 
HETATM   18  C   UNK N   1      27.329  28.644  -5.938  0.00  0.00    -0.061 A 
HETATM   19  C   UNK N   1      28.523  29.506  -6.148  0.00  0.00     0.048 C 
HETATM   20  C   UNK N   1      27.024  27.648  -6.862  0.00  0.00     0.026 A 
ENDBRANCH  13  14
ENDBRANCH  12  13
ENDBRANCH   1  12
BRANCH   1  21
HETATM   21  O   UNK N   1      24.414  22.714  -8.195  0.00  0.00    -0.389 OA
HETATM   22  H   UNK N   1      23.492  22.986  -8.066  0.00  0.00     0.210 HD
ENDBRANCH   1  21
BRANCH  10  23
HETATM   23  O   UNK N   1      30.166  21.982  -4.598  0.00  0.00    -0.309 OA
HETATM   24  C   UNK N   1      30.555  20.958  -3.769  0.00  0.00     0.215 C 
ENDBRANCH  10  23
TORSDOF 5
ENDMDL
MODEL 3
REMARK VINA RESULT:      -6.7      5.928     11.056
REMARK  5 active torsions:
REMARK  status: ('A' for Active; 'I' for Inactive)
REMARK    1  A    between atoms: C_6  and  C_8 
REMARK    2  A    between atoms: C_8  and  C_9 
REMARK    3  A    between atoms: C_10  and  C_9 
REMARK    4  A    between atoms: C_10  and  O_23 
REMARK       I    between atoms: N_18  and  C_19 
REMARK    5  A    between atoms: C_19  and  O_21 
ROOT
HETATM    1  C   UNK N   1      36.241  12.703  11.330  0.00  0.00     0.073 C 
HETATM    2  C   UNK N   1      35.066  11.700  11.247  0.00  0.00     0.039 C 
HETATM    3  C   UNK N   1      34.333  11.800   9.878  0.00  0.00     0.005 C 
HETATM    4  C   UNK N   1      33.846  13.242   9.534  0.00  0.00     0.026 C 
HETATM    5  C   UNK N   1      34.548  14.259  10.439  0.00  0.00     0.096 C 
HETATM    6  C   UNK N   1      36.012  13.950  10.454  0.00  0.00     0.045 C 
HETATM    7  C   UNK N   1      36.707  15.267  10.872  0.00  0.00     0.029 C 
HETATM    8  C   UNK N   1      35.602  16.327  10.857  0.00  0.00     0.129 C 
HETATM    9  N   UNK N   1      34.530  15.669  10.178  0.00  0.00    -0.323 N 
HETATM   10  C   UNK N   1      33.781  16.336   9.260  0.00  0.00     0.362 C 
HETATM   11  O   UNK N   1      32.960  15.744   8.573  0.00  0.00    -0.238 OA
ENDROOT
BRANCH   1  12
HETATM   12  C   UNK N   1      36.559  13.130  12.703  0.00  0.00     0.123 C 
BRANCH  12  13
HETATM   13  C   UNK N   1      36.393  13.453  13.854  0.00  0.00    -0.141 C 
BRANCH  13  14
HETATM   14  C   UNK N   1      36.531  14.043  15.156  0.00  0.00     0.005 A 
HETATM   15  C   UNK N   1      37.239  15.230  15.360  0.00  0.00     0.020 A 
HETATM   16  C   UNK N   1      37.228  15.832  16.626  0.00  0.00     0.002 A 
HETATM   17  C   UNK N   1      36.521  15.244  17.684  0.00  0.00     0.007 A 
HETATM   18  C   UNK N   1      35.830  14.047  17.479  0.00  0.00    -0.061 A 
HETATM   19  C   UNK N   1      35.089  13.401  18.595  0.00  0.00     0.048 C 
HETATM   20  C   UNK N   1      35.826  13.461  16.215  0.00  0.00     0.026 A 
ENDBRANCH  13  14
ENDBRANCH  12  13
ENDBRANCH   1  12
BRANCH   1  21
HETATM   21  O   UNK N   1      37.362  12.023  10.858  0.00  0.00    -0.389 OA
HETATM   22  H   UNK N   1      37.766  11.660  10.054  0.00  0.00     0.210 HD
ENDBRANCH   1  21
BRANCH  10  23
HETATM   23  O   UNK N   1      33.959  17.676   9.119  0.00  0.00    -0.309 OA
HETATM   24  C   UNK N   1      34.311  18.268   7.930  0.00  0.00     0.215 C 
ENDBRANCH  10  23
TORSDOF 5
ENDMDL
MODEL 4
REMARK VINA RESULT:      -6.6     11.257     14.902
REMARK  5 active torsions:
REMARK  status: ('A' for Active; 'I' for Inactive)
REMARK    1  A    between atoms: C_6  and  C_8 
REMARK    2  A    between atoms: C_8  and  C_9 
REMARK    3  A    between atoms: C_10  and  C_9 
REMARK    4  A    between atoms: C_10  and  O_23 
REMARK       I    between atoms: N_18  and  C_19 
REMARK    5  A    between atoms: C_19  and  O_21 
ROOT
HETATM    1  C   UNK N   1      27.004  25.747  -4.132  0.00  0.00     0.073 C 
HETATM    2  C   UNK N   1      27.725  27.085  -4.426  0.00  0.00     0.039 C 
HETATM    3  C   UNK N   1      26.918  27.950  -5.437  0.00  0.00     0.005 C 
HETATM    4  C   UNK N   1      26.581  27.207  -6.766  0.00  0.00     0.026 C 
HETATM    5  C   UNK N   1      26.787  25.699  -6.587  0.00  0.00     0.096 C 
HETATM    6  C   UNK N   1      26.130  25.279  -5.311  0.00  0.00     0.045 C 
HETATM    7  C   UNK N   1      25.868  23.763  -5.462  0.00  0.00     0.029 C 
HETATM    8  C   UNK N   1      26.194  23.442  -6.923  0.00  0.00     0.129 C 
HETATM    9  N   UNK N   1      26.291  24.735  -7.526  0.00  0.00    -0.323 N 
HETATM   10  C   UNK N   1      25.759  24.967  -8.755  0.00  0.00     0.362 C 
HETATM   11  O   UNK N   1      25.710  26.100  -9.213  0.00  0.00    -0.238 OA
ENDROOT
BRANCH   1  12
HETATM   12  C   UNK N   1      27.915  24.657  -3.745  0.00  0.00     0.123 C 
BRANCH  12  13
HETATM   13  C   UNK N   1      28.913  23.980  -3.696  0.00  0.00    -0.141 C 
BRANCH  13  14
HETATM   14  C   UNK N   1      29.879  22.931  -3.861  0.00  0.00     0.005 A 
HETATM   15  C   UNK N   1      30.809  22.616  -2.867  0.00  0.00     0.020 A 
HETATM   16  C   UNK N   1      31.637  21.496  -3.026  0.00  0.00     0.002 A 
HETATM   17  C   UNK N   1      31.542  20.702  -4.177  0.00  0.00     0.007 A 
HETATM   18  C   UNK N   1      30.623  21.032  -5.175  0.00  0.00    -0.061 A 
HETATM   19  C   UNK N   1      30.521  20.209  -6.411  0.00  0.00     0.048 C 
HETATM   20  C   UNK N   1      29.787  22.133  -5.007  0.00  0.00     0.026 A 
ENDBRANCH  13  14
ENDBRANCH  12  13
ENDBRANCH   1  12
BRANCH   1  21
HETATM   21  O   UNK N   1      26.183  25.986  -3.031  0.00  0.00    -0.389 OA
HETATM   22  H   UNK N   1      25.772  26.694  -2.511  0.00  0.00     0.210 HD
ENDBRANCH   1  21
BRANCH  10  23
HETATM   23  O   UNK N   1      25.280  23.914  -9.470  0.00  0.00    -0.309 OA
HETATM   24  C   UNK N   1      25.939  23.374 -10.547  0.00  0.00     0.215 C 
ENDBRANCH  10  23
TORSDOF 5
ENDMDL
MODEL 5
REMARK VINA RESULT:      -6.4     10.512     12.741
REMARK  5 active torsions:
REMARK  status: ('A' for Active; 'I' for Inactive)
REMARK    1  A    between atoms: C_6  and  C_8 
REMARK    2  A    between atoms: C_8  and  C_9 
REMARK    3  A    between atoms: C_10  and  C_9 
REMARK    4  A    between atoms: C_10  and  O_23 
REMARK       I    between atoms: N_18  and  C_19 
REMARK    5  A    between atoms: C_19  and  O_21 
ROOT
HETATM    1  C   UNK N   1      30.142  23.053  -2.760  0.00  0.00     0.073 C 
HETATM    2  C   UNK N   1      30.302  21.599  -3.264  0.00  0.00     0.039 C 
HETATM    3  C   UNK N   1      31.767  21.313  -3.705  0.00  0.00     0.005 C 
HETATM    4  C   UNK N   1      32.309  22.321  -4.765  0.00  0.00     0.026 C 
HETATM    5  C   UNK N   1      31.408  23.560  -4.814  0.00  0.00     0.096 C 
HETATM    6  C   UNK N   1      31.152  24.016  -3.412  0.00  0.00     0.045 C 
HETATM    7  C   UNK N   1      30.760  25.507  -3.530  0.00  0.00     0.029 C 
HETATM    8  C   UNK N   1      31.033  25.881  -4.989  0.00  0.00     0.129 C 
HETATM    9  N   UNK N   1      31.798  24.774  -5.471  0.00  0.00    -0.323 N 
HETATM   10  C   UNK N   1      32.872  24.975  -6.279  0.00  0.00     0.362 C 
HETATM   11  O   UNK N   1      33.614  24.049  -6.576  0.00  0.00    -0.238 OA
ENDROOT
BRANCH   1  12
HETATM   12  C   UNK N   1      28.782  23.592  -2.932  0.00  0.00     0.123 C 
BRANCH  12  13
HETATM   13  C   UNK N   1      27.831  24.115  -3.460  0.00  0.00    -0.141 C 
BRANCH  13  14
HETATM   14  C   UNK N   1      26.978  24.997  -4.204  0.00  0.00     0.005 A 
HETATM   15  C   UNK N   1      26.208  24.551  -5.281  0.00  0.00     0.020 A 
HETATM   16  C   UNK N   1      25.293  25.424  -5.886  0.00  0.00     0.002 A 
HETATM   17  C   UNK N   1      25.157  26.739  -5.422  0.00  0.00     0.007 A 
HETATM   18  C   UNK N   1      25.941  27.186  -4.355  0.00  0.00    -0.061 A 
HETATM   19  C   UNK N   1      25.819  28.584  -3.861  0.00  0.00     0.048 C 
HETATM   20  C   UNK N   1      26.835  26.311  -3.743  0.00  0.00     0.026 A 
ENDBRANCH  13  14
ENDBRANCH  12  13
ENDBRANCH   1  12
BRANCH   1  21
HETATM   21  O   UNK N   1      30.381  23.013  -1.388  0.00  0.00    -0.389 OA
HETATM   22  H   UNK N   1      30.912  23.415  -0.682  0.00  0.00     0.210 HD
ENDBRANCH   1  21
BRANCH  10  23
HETATM   23  O   UNK N   1      33.109  26.226  -6.755  0.00  0.00    -0.309 OA
HETATM   24  C   UNK N   1      33.025  26.554  -8.086  0.00  0.00     0.215 C 
ENDBRANCH  10  23
TORSDOF 5
ENDMDL
MODEL 6
REMARK VINA RESULT:      -6.4     10.764     13.565
REMARK  5 active torsions:
REMARK  status: ('A' for Active; 'I' for Inactive)
REMARK    1  A    between atoms: C_6  and  C_8 
REMARK    2  A    between atoms: C_8  and  C_9 
REMARK    3  A    between atoms: C_10  and  C_9 
REMARK    4  A    between atoms: C_10  and  O_23 
REMARK       I    between atoms: N_18  and  C_19 
REMARK    5  A    between atoms: C_19  and  O_21 
ROOT
HETATM    1  C   UNK N   1      35.313  12.891  13.028  0.00  0.00     0.073 C 
HETATM    2  C   UNK N   1      36.640  13.566  12.606  0.00  0.00     0.039 C 
HETATM    3  C   UNK N   1      37.276  12.845  11.382  0.00  0.00     0.005 C 
HETATM    4  C   UNK N   1      37.485  11.315  11.597  0.00  0.00     0.026 C 
HETATM    5  C   UNK N   1      36.661  10.839  12.798  0.00  0.00     0.096 C 
HETATM    6  C   UNK N   1      35.277  11.393  12.672  0.00  0.00     0.045 C 
HETATM    7  C   UNK N   1      34.383  10.466  13.529  0.00  0.00     0.029 C 
HETATM    8  C   UNK N   1      35.283   9.291  13.922  0.00  0.00     0.129 C 
HETATM    9  N   UNK N   1      36.419   9.452  13.070  0.00  0.00    -0.323 N 
HETATM   10  C   UNK N   1      36.994   8.375  12.472  0.00  0.00     0.362 C 
HETATM   11  O   UNK N   1      37.871   8.519  11.632  0.00  0.00    -0.238 OA
ENDROOT
BRANCH   1  12
HETATM   12  C   UNK N   1      34.993  13.055  14.456  0.00  0.00     0.123 C 
BRANCH  12  13
HETATM   13  C   UNK N   1      35.119  13.013  15.655  0.00  0.00    -0.141 C 
BRANCH  13  14
HETATM   14  C   UNK N   1      35.274  12.570  17.012  0.00  0.00     0.005 A 
HETATM   15  C   UNK N   1      35.185  13.449  18.094  0.00  0.00     0.020 A 
HETATM   16  C   UNK N   1      35.210  12.942  19.401  0.00  0.00     0.002 A 
HETATM   17  C   UNK N   1      35.334  11.563  19.623  0.00  0.00     0.007 A 
HETATM   18  C   UNK N   1      35.440  10.690  18.537  0.00  0.00    -0.061 A 
HETATM   19  C   UNK N   1      35.588   9.226  18.756  0.00  0.00     0.048 C 
HETATM   20  C   UNK N   1      35.395  11.195  17.240  0.00  0.00     0.026 A 
ENDBRANCH  13  14
ENDBRANCH  12  13
ENDBRANCH   1  12
BRANCH   1  21
HETATM   21  O   UNK N   1      34.307  13.545  12.319  0.00  0.00    -0.389 OA
HETATM   22  H   UNK N   1      33.612  14.216  12.402  0.00  0.00     0.210 HD
ENDBRANCH   1  21
BRANCH  10  23
HETATM   23  O   UNK N   1      36.578   7.130  12.827  0.00  0.00    -0.309 OA
HETATM   24  C   UNK N   1      37.404   6.033  12.833  0.00  0.00     0.215 C 
ENDBRANCH  10  23
TORSDOF 5
ENDMDL
MODEL 7
REMARK VINA RESULT:      -6.4      9.192     12.421
REMARK  5 active torsions:
REMARK  status: ('A' for Active; 'I' for Inactive)
REMARK    1  A    between atoms: C_6  and  C_8 
REMARK    2  A    between atoms: C_8  and  C_9 
REMARK    3  A    between atoms: C_10  and  C_9 
REMARK    4  A    between atoms: C_10  and  O_23 
REMARK       I    between atoms: N_18  and  C_19 
REMARK    5  A    between atoms: C_19  and  O_21 
ROOT
HETATM    1  C   UNK N   1      35.539  13.691  12.307  0.00  0.00     0.073 C 
HETATM    2  C   UNK N   1      35.973  15.167  12.153  0.00  0.00     0.039 C 
HETATM    3  C   UNK N   1      36.329  15.500  10.675  0.00  0.00     0.005 C 
HETATM    4  C   UNK N   1      37.402  14.548  10.061  0.00  0.00     0.026 C 
HETATM    5  C   UNK N   1      37.546  13.295  10.931  0.00  0.00     0.096 C 
HETATM    6  C   UNK N   1      36.179  12.775  11.246  0.00  0.00     0.045 C 
HETATM    7  C   UNK N   1      36.378  11.283  11.600  0.00  0.00     0.029 C 
HETATM    8  C   UNK N   1      37.836  10.977  11.248  0.00  0.00     0.129 C 
HETATM    9  N   UNK N   1      38.233  12.118  10.485  0.00  0.00    -0.323 N 
HETATM   10  C   UNK N   1      38.995  11.972   9.368  0.00  0.00     0.362 C 
HETATM   11  O   UNK N   1      39.216  12.924   8.632  0.00  0.00    -0.238 OA
ENDROOT
BRANCH   1  12
HETATM   12  C   UNK N   1      35.799  13.133  13.645  0.00  0.00     0.123 C 
BRANCH  12  13
HETATM   13  C   UNK N   1      35.595  12.766  14.776  0.00  0.00    -0.141 C 
BRANCH  13  14
HETATM   14  C   UNK N   1      35.555  12.662  16.207  0.00  0.00     0.005 A 
HETATM   15  C   UNK N   1      35.403  13.782  17.028  0.00  0.00     0.020 A 
HETATM   16  C   UNK N   1      35.235  13.609  18.409  0.00  0.00     0.002 A 
HETATM   17  C   UNK N   1      35.231  12.324  18.967  0.00  0.00     0.007 A 
HETATM   18  C   UNK N   1      35.401  11.208  18.144  0.00  0.00    -0.061 A 
HETATM   19  C   UNK N   1      35.415   9.837  18.722  0.00  0.00     0.048 C 
HETATM   20  C   UNK N   1      35.547  11.380  16.770  0.00  0.00     0.026 A 
ENDBRANCH  13  14
ENDBRANCH  12  13
ENDBRANCH   1  12
BRANCH   1  21
HETATM   21  O   UNK N   1      34.155  13.676  12.135  0.00  0.00    -0.389 OA
HETATM   22  H   UNK N   1      33.375  13.103  12.183  0.00  0.00     0.210 HD
ENDBRANCH   1  21
BRANCH  10  23
HETATM   23  O   UNK N   1      39.509  10.746   9.083  0.00  0.00    -0.309 OA
HETATM   24  C   UNK N   1      40.725  10.564   8.469  0.00  0.00     0.215 C 
ENDBRANCH  10  23
TORSDOF 5
ENDMDL
MODEL 8
REMARK VINA RESULT:      -6.4      5.882     11.329
REMARK  5 active torsions:
REMARK  status: ('A' for Active; 'I' for Inactive)
REMARK    1  A    between atoms: C_6  and  C_8 
REMARK    2  A    between atoms: C_8  and  C_9 
REMARK    3  A    between atoms: C_10  and  C_9 
REMARK    4  A    between atoms: C_10  and  O_23 
REMARK       I    between atoms: N_18  and  C_19 
REMARK    5  A    between atoms: C_19  and  O_21 
ROOT
HETATM    1  C   UNK N   1      36.930  13.186  11.379  0.00  0.00     0.073 C 
HETATM    2  C   UNK N   1      36.372  11.856  10.819  0.00  0.00     0.039 C 
HETATM    3  C   UNK N   1      36.126  11.948   9.285  0.00  0.00     0.005 C 
HETATM    4  C   UNK N   1      35.213  13.142   8.869  0.00  0.00     0.026 C 
HETATM    5  C   UNK N   1      35.108  14.145  10.023  0.00  0.00     0.096 C 
HETATM    6  C   UNK N   1      36.483  14.406  10.551  0.00  0.00     0.045 C 
HETATM    7  C   UNK N   1      36.397  15.774  11.266  0.00  0.00     0.029 C 
HETATM    8  C   UNK N   1      35.014  16.327  10.910  0.00  0.00     0.129 C 
HETATM    9  N   UNK N   1      34.583  15.468   9.852  0.00  0.00    -0.323 N 
HETATM   10  C   UNK N   1      33.947  15.977   8.763  0.00  0.00     0.362 C 
HETATM   11  O   UNK N   1      33.705  15.272   7.794  0.00  0.00    -0.238 OA
ENDROOT
BRANCH   1  12
HETATM   12  C   UNK N   1      36.600  13.417  12.795  0.00  0.00     0.123 C 
BRANCH  12  13
HETATM   13  C   UNK N   1      36.234  13.190  13.923  0.00  0.00    -0.141 C 
BRANCH  13  14
HETATM   14  C   UNK N   1      35.875  12.545  15.154  0.00  0.00     0.005 A 
HETATM   15  C   UNK N   1      35.895  11.155  15.296  0.00  0.00     0.020 A 
HETATM   16  C   UNK N   1      35.667  10.586  16.557  0.00  0.00     0.002 A 
HETATM   17  C   UNK N   1      35.410  11.403  17.666  0.00  0.00     0.007 A 
HETATM   18  C   UNK N   1      35.374  12.791  17.516  0.00  0.00    -0.061 A 
HETATM   19  C   UNK N   1      35.087  13.671  18.680  0.00  0.00     0.048 C 
HETATM   20  C   UNK N   1      35.621  13.355  16.266  0.00  0.00     0.026 A 
ENDBRANCH  13  14
ENDBRANCH  12  13
ENDBRANCH   1  12
BRANCH   1  21
HETATM   21  O   UNK N   1      38.319  13.080  11.309  0.00  0.00    -0.389 OA
HETATM   22  H   UNK N   1      39.140  13.587  11.405  0.00  0.00     0.210 HD
ENDBRANCH   1  21
BRANCH  10  23
HETATM   23  O   UNK N   1      33.582  17.286   8.772  0.00  0.00    -0.309 OA
HETATM   24  C   UNK N   1      33.122  17.947   7.659  0.00  0.00     0.215 C 
ENDBRANCH  10  23
TORSDOF 5
ENDMDL
MODEL 9
REMARK VINA RESULT:      -6.2      8.088     12.806
REMARK  5 active torsions:
REMARK  status: ('A' for Active; 'I' for Inactive)
REMARK    1  A    between atoms: C_6  and  C_8 
REMARK    2  A    between atoms: C_8  and  C_9 
REMARK    3  A    between atoms: C_10  and  C_9 
REMARK    4  A    between atoms: C_10  and  O_23 
REMARK       I    between atoms: N_18  and  C_19 
REMARK    5  A    between atoms: C_19  and  O_21 
ROOT
HETATM    1  C   UNK N   1      35.530  10.439  13.236  0.00  0.00     0.073 C 
HETATM    2  C   UNK N   1      34.388   9.775  12.431  0.00  0.00     0.039 C 
HETATM    3  C   UNK N   1      34.562  10.012  10.903  0.00  0.00     0.005 C 
HETATM    4  C   UNK N   1      34.699  11.517  10.516  0.00  0.00     0.026 C 
HETATM    5  C   UNK N   1      35.019  12.349  11.763  0.00  0.00     0.096 C 
HETATM    6  C   UNK N   1      36.117  11.669  12.518  0.00  0.00     0.045 C 
HETATM    7  C   UNK N   1      36.766  12.773  13.384  0.00  0.00     0.029 C 
HETATM    8  C   UNK N   1      36.136  14.084  12.903  0.00  0.00     0.129 C 
HETATM    9  N   UNK N   1      35.482  13.704  11.690  0.00  0.00    -0.323 N 
HETATM   10  C   UNK N   1      35.534  14.509  10.595  0.00  0.00     0.362 C 
HETATM   11  O   UNK N   1      35.102  14.127   9.517  0.00  0.00    -0.238 OA
ENDROOT
BRANCH   1  12
HETATM   12  C   UNK N   1      35.146  10.819  14.606  0.00  0.00     0.123 C 
BRANCH  12  13
HETATM   13  C   UNK N   1      35.240  11.021  15.792  0.00  0.00    -0.141 C 
BRANCH  13  14
HETATM   14  C   UNK N   1      35.314  11.640  17.085  0.00  0.00     0.005 A 
HETATM   15  C   UNK N   1      35.222  13.025  17.250  0.00  0.00     0.020 A 
HETATM   16  C   UNK N   1      35.165  13.564  18.542  0.00  0.00     0.002 A 
HETATM   17  C   UNK N   1      35.211  12.724  19.663  0.00  0.00     0.007 A 
HETATM   18  C   UNK N   1      35.321  11.342  19.493  0.00  0.00    -0.061 A 
HETATM   19  C   UNK N   1      35.387  10.437  20.672  0.00  0.00     0.048 C 
HETATM   20  C   UNK N   1      35.357  10.806  18.208  0.00  0.00     0.026 A 
ENDBRANCH  13  14
ENDBRANCH  12  13
ENDBRANCH   1  12
BRANCH   1  21
HETATM   21  O   UNK N   1      36.527   9.473  13.358  0.00  0.00    -0.389 OA
HETATM   22  H   UNK N   1      37.489   9.349  13.365  0.00  0.00     0.210 HD
ENDBRANCH   1  21
BRANCH  10  23
HETATM   23  O   UNK N   1      36.074  15.750  10.721  0.00  0.00    -0.309 OA
HETATM   24  C   UNK N   1      35.355  16.906  10.536  0.00  0.00     0.215 C 
ENDBRANCH  10  23
TORSDOF 5
ENDMDL
