MODEL 1
REMARK VINA RESULT:      -5.4      0.000      0.000
REMARK  16 active torsions:
REMARK  status: ('A' for Active; 'I' for Inactive)
REMARK    1  A    between atoms: C_18  and  C_5 
REMARK    2  A    between atoms: C_19  and  C_6 
REMARK    3  A    between atoms: N_31  and  C_7 
REMARK    4  A    between atoms: N_31  and  C_8 
REMARK    5  A    between atoms: N_32  and  C_18 
REMARK    6  A    between atoms: N_32  and  C_19 
REMARK    7  A    between atoms: C_21  and  C_20 
REMARK    8  A    between atoms: N_31  and  C_20 
REMARK    9  A    between atoms: O_35  and  C_21 
REMARK   10  A    between atoms: C_23  and  C_22 
REMARK   11  A    between atoms: C_26  and  C_22 
REMARK   12  A    between atoms: C_27  and  C_24 
REMARK   13  A    between atoms: O_35  and  C_25 
REMARK   14  A    between atoms: C_28  and  C_26 
REMARK   15  A    between atoms: N_29  and  C_26 
REMARK   16  A    between atoms: O_33  and  C_27 
REMARK       I    between atoms: N_32  and  C_28 
ROOT
HETATM    1  C   UNK N   1      27.080  27.406  -4.126  0.00  0.00     0.180 C 
ENDROOT
BRANCH   1   2
HETATM    2  C   UNK N   1      26.065  27.715  -5.242  0.00  0.00     0.073 C 
BRANCH   2   3
HETATM    3  C   UNK N   1      26.393  27.062  -6.547  0.00  0.00    -0.056 A 
HETATM    4  C   UNK N   1      27.573  27.385  -7.220  0.00  0.00     0.010 A 
HETATM    5  C   UNK N   1      27.891  26.771  -8.430  0.00  0.00     0.037 A 
HETATM    6  C   UNK N   1      27.020  25.832  -8.985  0.00  0.00     0.068 A 
HETATM    7  C   UNK N   1      25.838  25.494  -8.300  0.00  0.00     0.037 A 
HETATM    8  C   UNK N   1      25.531  26.102  -7.081  0.00  0.00     0.010 A 
BRANCH   6   9
HETATM    9  O   UNK N   1      27.326  25.284 -10.184  0.00  0.00    -0.349 OA
BRANCH   9  10
HETATM   10  C   UNK N   1      26.915  24.025 -10.561  0.00  0.00     0.206 C 
BRANCH  10  11
HETATM   11  C   UNK N   1      27.949  23.003 -10.112  0.00  0.00     0.299 C 
BRANCH  11  12
HETATM   12  N   UNK N   1      27.399  22.157  -9.066  0.00  0.00     0.089 N 
BRANCH  12  13
HETATM   13  C   UNK N   1      28.052  20.863  -9.194  0.00  0.00     0.268 C 
HETATM   14  C   UNK N   1      28.744  20.516  -7.893  0.00  0.00     0.037 C 
ENDBRANCH  12  13
BRANCH  12  15
HETATM   15  C   UNK N   1      25.985  21.962  -9.358  0.00  0.00     0.268 C 
HETATM   16  C   UNK N   1      25.210  21.721  -8.073  0.00  0.00     0.037 C 
ENDBRANCH  12  15
ENDBRANCH  11  12
ENDBRANCH  10  11
ENDBRANCH   9  10
ENDBRANCH   6   9
ENDBRANCH   2   3
ENDBRANCH   1   2
BRANCH   1  17
HETATM   17  C   UNK N   1      27.153  28.662  -3.234  0.00  0.00     0.242 C 
HETATM   18  N   UNK N   1      28.315  29.174  -2.690  0.00  0.00    -0.350 N 
HETATM   19  O   UNK N   1      26.091  29.202  -2.967  0.00  0.00    -0.271 OA
BRANCH  18  20
HETATM   20  C   UNK N   1      29.623  28.659  -3.013  0.00  0.00     0.125 C 
BRANCH  20  21
HETATM   21  C   UNK N   1      30.154  29.293  -4.286  0.00  0.00     0.015 C 
HETATM   22  C   UNK N   1      30.591  28.205  -5.244  0.00  0.00     0.006 C 
ENDBRANCH  20  21
ENDBRANCH  18  20
BRANCH  18  23
HETATM   23  C   UNK N   1      28.248  30.228  -1.687  0.00  0.00     0.125 C 
BRANCH  23  24
HETATM   24  C   UNK N   1      29.144  29.974  -0.489  0.00  0.00     0.015 C 
HETATM   25  C   UNK N   1      28.353  30.296   0.766  0.00  0.00     0.006 C 
ENDBRANCH  23  24
ENDBRANCH  18  23
ENDBRANCH   1  17
BRANCH   1  26
HETATM   26  N   UNK N   1      26.616  26.219  -3.435  0.00  0.00    -0.357 N 
HETATM   27  C   UNK N   1      27.101  25.018  -3.537  0.00  0.00     0.146 C 
ATOM     28  HN  UNK N   1      25.826  26.339  -2.801  1.00  0.00     0.162 HD
BRANCH  27  29
HETATM   29  C   UNK N   1      28.327  24.674  -4.315  0.00  0.00     0.014 A 
HETATM   30  C   UNK N   1      29.619  24.886  -3.810  0.00  0.00     0.016 A 
HETATM   31  C   UNK N   1      30.746  24.545  -4.564  0.00  0.00     0.001 A 
HETATM   32  C   UNK N   1      30.594  23.993  -5.836  0.00  0.00     0.000 A 
HETATM   33  C   UNK N   1      29.314  23.759  -6.345  0.00  0.00     0.001 A 
HETATM   34  C   UNK N   1      28.188  24.085  -5.582  0.00  0.00     0.016 A 
ENDBRANCH  27  29
BRANCH  27  35
HETATM   35  O   UNK N   1      26.433  24.014  -2.936  0.00  0.00    -0.346 OA
HETATM   36  H   UNK N   1      26.364  23.160  -3.317  0.00  0.00     0.219 HD
ENDBRANCH  27  35
ENDBRANCH   1  26
TORSDOF 16
ENDMDL
MODEL 2
REMARK VINA RESULT:      -5.4     14.045     17.176
REMARK  16 active torsions:
REMARK  status: ('A' for Active; 'I' for Inactive)
REMARK    1  A    between atoms: C_18  and  C_5 
REMARK    2  A    between atoms: C_19  and  C_6 
REMARK    3  A    between atoms: N_31  and  C_7 
REMARK    4  A    between atoms: N_31  and  C_8 
REMARK    5  A    between atoms: N_32  and  C_18 
REMARK    6  A    between atoms: N_32  and  C_19 
REMARK    7  A    between atoms: C_21  and  C_20 
REMARK    8  A    between atoms: N_31  and  C_20 
REMARK    9  A    between atoms: O_35  and  C_21 
REMARK   10  A    between atoms: C_23  and  C_22 
REMARK   11  A    between atoms: C_26  and  C_22 
REMARK   12  A    between atoms: C_27  and  C_24 
REMARK   13  A    between atoms: O_35  and  C_25 
REMARK   14  A    between atoms: C_28  and  C_26 
REMARK   15  A    between atoms: N_29  and  C_26 
REMARK   16  A    between atoms: O_33  and  C_27 
REMARK       I    between atoms: N_32  and  C_28 
ROOT
HETATM    1  C   UNK N   1      28.719  18.583   7.707  0.00  0.00     0.180 C 
ENDROOT
BRANCH   1   2
HETATM    2  C   UNK N   1      29.494  18.043   8.923  0.00  0.00     0.073 C 
BRANCH   2   3
HETATM    3  C   UNK N   1      30.849  17.511   8.580  0.00  0.00    -0.056 A 
HETATM    4  C   UNK N   1      31.896  18.386   8.283  0.00  0.00     0.010 A 
HETATM    5  C   UNK N   1      33.164  17.898   7.976  0.00  0.00     0.037 A 
HETATM    6  C   UNK N   1      33.395  16.521   7.953  0.00  0.00     0.068 A 
HETATM    7  C   UNK N   1      32.345  15.638   8.268  0.00  0.00     0.037 A 
HETATM    8  C   UNK N   1      31.080  16.134   8.589  0.00  0.00     0.010 A 
BRANCH   6   9
HETATM    9  O   UNK N   1      34.622  16.069   7.606  0.00  0.00    -0.349 OA
BRANCH   9  10
HETATM   10  C   UNK N   1      35.079  14.813   7.934  0.00  0.00     0.206 C 
BRANCH  10  11
HETATM   11  C   UNK N   1      35.979  14.909   9.157  0.00  0.00     0.299 C 
BRANCH  11  12
HETATM   12  N   UNK N   1      35.445  14.097  10.239  0.00  0.00     0.089 N 
BRANCH  12  13
HETATM   13  C   UNK N   1      34.654  14.988  11.073  0.00  0.00     0.268 C 
HETATM   14  C   UNK N   1      35.347  16.330  11.178  0.00  0.00     0.037 C 
ENDBRANCH  12  13
BRANCH  12  15
HETATM   15  C   UNK N   1      36.572  13.636  11.039  0.00  0.00     0.268 C 
HETATM   16  C   UNK N   1      37.836  13.601  10.197  0.00  0.00     0.037 C 
ENDBRANCH  12  15
ENDBRANCH  11  12
ENDBRANCH  10  11
ENDBRANCH   9  10
ENDBRANCH   6   9
ENDBRANCH   2   3
ENDBRANCH   1   2
BRANCH   1  17
HETATM   17  C   UNK N   1      28.244  17.354   6.904  0.00  0.00     0.242 C 
HETATM   18  N   UNK N   1      28.709  17.006   5.651  0.00  0.00    -0.350 N 
HETATM   19  O   UNK N   1      27.363  16.679   7.412  0.00  0.00    -0.271 OA
BRANCH  18  20
HETATM   20  C   UNK N   1      29.803  17.689   5.004  0.00  0.00     0.125 C 
BRANCH  20  21
HETATM   21  C   UNK N   1      31.025  16.791   4.920  0.00  0.00     0.015 C 
HETATM   22  C   UNK N   1      32.191  17.583   4.368  0.00  0.00     0.006 C 
ENDBRANCH  20  21
ENDBRANCH  18  20
BRANCH  18  23
HETATM   23  C   UNK N   1      28.040  15.960   4.889  0.00  0.00     0.125 C 
BRANCH  23  24
HETATM   24  C   UNK N   1      27.652  16.393   3.487  0.00  0.00     0.015 C 
HETATM   25  C   UNK N   1      26.319  15.750   3.149  0.00  0.00     0.006 C 
ENDBRANCH  23  24
ENDBRANCH  18  23
ENDBRANCH   1  17
BRANCH   1  26
HETATM   26  N   UNK N   1      27.640  19.409   8.212  0.00  0.00    -0.357 N 
HETATM   27  C   UNK N   1      26.784  20.089   7.511  0.00  0.00     0.146 C 
ATOM     28  HN  UNK N   1      27.544  19.463   9.227  1.00  0.00     0.162 HD
BRANCH  27  29
HETATM   29  C   UNK N   1      26.693  20.035   6.022  0.00  0.00     0.014 A 
HETATM   30  C   UNK N   1      27.677  20.591   5.191  0.00  0.00     0.016 A 
HETATM   31  C   UNK N   1      27.563  20.515   3.799  0.00  0.00     0.001 A 
HETATM   32  C   UNK N   1      26.460  19.887   3.222  0.00  0.00     0.000 A 
HETATM   33  C   UNK N   1      25.482  19.312   4.037  0.00  0.00     0.001 A 
HETATM   34  C   UNK N   1      25.606  19.374   5.429  0.00  0.00     0.016 A 
ENDBRANCH  27  29
BRANCH  27  35
HETATM   35  O   UNK N   1      25.954  20.924   8.164  0.00  0.00    -0.346 OA
HETATM   36  H   UNK N   1      26.176  21.306   8.991  0.00  0.00     0.219 HD
ENDBRANCH  27  35
ENDBRANCH   1  26
TORSDOF 16
ENDMDL
MODEL 3
REMARK VINA RESULT:      -5.3     27.761     30.297
REMARK  16 active torsions:
REMARK  status: ('A' for Active; 'I' for Inactive)
REMARK    1  A    between atoms: C_18  and  C_5 
REMARK    2  A    between atoms: C_19  and  C_6 
REMARK    3  A    between atoms: N_31  and  C_7 
REMARK    4  A    between atoms: N_31  and  C_8 
REMARK    5  A    between atoms: N_32  and  C_18 
REMARK    6  A    between atoms: N_32  and  C_19 
REMARK    7  A    between atoms: C_21  and  C_20 
REMARK    8  A    between atoms: N_31  and  C_20 
REMARK    9  A    between atoms: O_35  and  C_21 
REMARK   10  A    between atoms: C_23  and  C_22 
REMARK   11  A    between atoms: C_26  and  C_22 
REMARK   12  A    between atoms: C_27  and  C_24 
REMARK   13  A    between atoms: O_35  and  C_25 
REMARK   14  A    between atoms: C_28  and  C_26 
REMARK   15  A    between atoms: N_29  and  C_26 
REMARK   16  A    between atoms: O_33  and  C_27 
REMARK       I    between atoms: N_32  and  C_28 
ROOT
HETATM    1  C   UNK N   1      34.709  10.021  20.512  0.00  0.00     0.180 C 
ENDROOT
BRANCH   1   2
HETATM    2  C   UNK N   1      35.687  11.117  20.050  0.00  0.00     0.073 C 
BRANCH   2   3
HETATM    3  C   UNK N   1      35.390  11.648  18.684  0.00  0.00    -0.056 A 
HETATM    4  C   UNK N   1      35.251  10.776  17.603  0.00  0.00     0.010 A 
HETATM    5  C   UNK N   1      34.961  11.263  16.330  0.00  0.00     0.037 A 
HETATM    6  C   UNK N   1      34.817  12.636  16.125  0.00  0.00     0.068 A 
HETATM    7  C   UNK N   1      34.941  13.516  17.217  0.00  0.00     0.037 A 
HETATM    8  C   UNK N   1      35.218  13.021  18.493  0.00  0.00     0.010 A 
BRANCH   6   9
HETATM    9  O   UNK N   1      34.583  13.090  14.872  0.00  0.00    -0.349 OA
BRANCH   9  10
HETATM   10  C   UNK N   1      35.583  13.527  14.033  0.00  0.00     0.206 C 
BRANCH  10  11
HETATM   11  C   UNK N   1      35.517  12.752  12.726  0.00  0.00     0.299 C 
BRANCH  11  12
HETATM   12  N   UNK N   1      36.400  11.598  12.781  0.00  0.00     0.089 N 
BRANCH  12  13
HETATM   13  C   UNK N   1      37.507  11.964  13.650  0.00  0.00     0.268 C 
HETATM   14  C   UNK N   1      38.039  10.726  14.341  0.00  0.00     0.037 C 
ENDBRANCH  12  13
BRANCH  12  15
HETATM   15  C   UNK N   1      36.943  11.396  11.444  0.00  0.00     0.268 C 
HETATM   16  C   UNK N   1      37.736  12.617  11.009  0.00  0.00     0.037 C 
ENDBRANCH  12  15
ENDBRANCH  11  12
ENDBRANCH  10  11
ENDBRANCH   9  10
ENDBRANCH   6   9
ENDBRANCH   2   3
ENDBRANCH   1   2
BRANCH   1  17
HETATM   17  C   UNK N   1      35.552   8.756  20.769  0.00  0.00     0.242 C 
HETATM   18  N   UNK N   1      35.343   7.534  20.161  0.00  0.00    -0.350 N 
HETATM   19  O   UNK N   1      36.436   8.851  21.606  0.00  0.00    -0.271 OA
BRANCH  18  20
HETATM   20  C   UNK N   1      34.382   7.341  19.101  0.00  0.00     0.125 C 
BRANCH  20  21
HETATM   21  C   UNK N   1      34.926   6.396  18.045  0.00  0.00     0.015 C 
HETATM   22  C   UNK N   1      35.642   7.197  16.977  0.00  0.00     0.006 C 
ENDBRANCH  20  21
ENDBRANCH  18  20
BRANCH  18  23
HETATM   23  C   UNK N   1      36.049   6.351  20.635  0.00  0.00     0.125 C 
BRANCH  23  24
HETATM   24  C   UNK N   1      35.326   5.630  21.758  0.00  0.00     0.015 C 
HETATM   25  C   UNK N   1      34.746   4.346  21.195  0.00  0.00     0.006 C 
ENDBRANCH  23  24
ENDBRANCH  18  23
ENDBRANCH   1  17
BRANCH   1  26
HETATM   26  N   UNK N   1      34.021  10.520  21.686  0.00  0.00    -0.357 N 
HETATM   27  C   UNK N   1      32.897  10.090  22.173  0.00  0.00     0.146 C 
ATOM     28  HN  UNK N   1      34.468  11.292  22.183  1.00  0.00     0.162 HD
BRANCH  27  29
HETATM   29  C   UNK N   1      32.165   8.896  21.657  0.00  0.00     0.014 A 
HETATM   30  C   UNK N   1      31.381   8.943  20.495  0.00  0.00     0.016 A 
HETATM   31  C   UNK N   1      30.716   7.802  20.035  0.00  0.00     0.001 A 
HETATM   32  C   UNK N   1      30.821   6.602  20.737  0.00  0.00     0.000 A 
HETATM   33  C   UNK N   1      31.612   6.536  21.887  0.00  0.00     0.001 A 
HETATM   34  C   UNK N   1      32.291   7.673  22.335  0.00  0.00     0.016 A 
ENDBRANCH  27  29
BRANCH  27  35
HETATM   35  O   UNK N   1      32.337  10.787  23.180  0.00  0.00    -0.346 OA
HETATM   36  H   UNK N   1      32.121  11.696  23.100  0.00  0.00     0.219 HD
ENDBRANCH  27  35
ENDBRANCH   1  26
TORSDOF 16
ENDMDL
MODEL 4
REMARK VINA RESULT:      -5.3     14.405     17.181
REMARK  16 active torsions:
REMARK  status: ('A' for Active; 'I' for Inactive)
REMARK    1  A    between atoms: C_18  and  C_5 
REMARK    2  A    between atoms: C_19  and  C_6 
REMARK    3  A    between atoms: N_31  and  C_7 
REMARK    4  A    between atoms: N_31  and  C_8 
REMARK    5  A    between atoms: N_32  and  C_18 
REMARK    6  A    between atoms: N_32  and  C_19 
REMARK    7  A    between atoms: C_21  and  C_20 
REMARK    8  A    between atoms: N_31  and  C_20 
REMARK    9  A    between atoms: O_35  and  C_21 
REMARK   10  A    between atoms: C_23  and  C_22 
REMARK   11  A    between atoms: C_26  and  C_22 
REMARK   12  A    between atoms: C_27  and  C_24 
REMARK   13  A    between atoms: O_35  and  C_25 
REMARK   14  A    between atoms: C_28  and  C_26 
REMARK   15  A    between atoms: N_29  and  C_26 
REMARK   16  A    between atoms: O_33  and  C_27 
REMARK       I    between atoms: N_32  and  C_28 
ROOT
HETATM    1  C   UNK N   1      21.260  14.858   7.024  0.00  0.00     0.180 C 
ENDROOT
BRANCH   1   2
HETATM    2  C   UNK N   1      21.374  16.391   6.936  0.00  0.00     0.073 C 
BRANCH   2   3
HETATM    3  C   UNK N   1      22.465  16.858   6.026  0.00  0.00    -0.056 A 
HETATM    4  C   UNK N   1      22.359  18.088   5.372  0.00  0.00     0.010 A 
HETATM    5  C   UNK N   1      23.377  18.536   4.533  0.00  0.00     0.037 A 
HETATM    6  C   UNK N   1      24.512  17.749   4.332  0.00  0.00     0.068 A 
HETATM    7  C   UNK N   1      24.627  16.516   5.002  0.00  0.00     0.037 A 
HETATM    8  C   UNK N   1      23.610  16.079   5.852  0.00  0.00     0.010 A 
BRANCH   6   9
HETATM    9  O   UNK N   1      25.466  18.182   3.476  0.00  0.00    -0.349 OA
BRANCH   9  10
HETATM   10  C   UNK N   1      26.813  18.081   3.740  0.00  0.00     0.206 C 
BRANCH  10  11
HETATM   11  C   UNK N   1      27.360  19.455   4.098  0.00  0.00     0.299 C 
BRANCH  11  12
HETATM   12  N   UNK N   1      28.052  19.403   5.375  0.00  0.00     0.089 N 
BRANCH  12  13
HETATM   13  C   UNK N   1      28.192  17.996   5.714  0.00  0.00     0.268 C 
HETATM   14  C   UNK N   1      28.153  17.832   7.219  0.00  0.00     0.037 C 
ENDBRANCH  12  13
BRANCH  12  15
HETATM   15  C   UNK N   1      27.179  20.007   6.373  0.00  0.00     0.268 C 
HETATM   16  C   UNK N   1      27.042  21.499   6.120  0.00  0.00     0.037 C 
ENDBRANCH  12  15
ENDBRANCH  11  12
ENDBRANCH  10  11
ENDBRANCH   9  10
ENDBRANCH   6   9
ENDBRANCH   2   3
ENDBRANCH   1   2
BRANCH   1  17
HETATM   17  C   UNK N   1      21.409  14.488   8.514  0.00  0.00     0.242 C 
HETATM   18  N   UNK N   1      22.124  13.406   8.988  0.00  0.00    -0.350 N 
HETATM   19  O   UNK N   1      20.808  15.190   9.311  0.00  0.00    -0.271 OA
BRANCH  18  20
HETATM   20  C   UNK N   1      22.933  12.569   8.136  0.00  0.00     0.125 C 
BRANCH  20  21
HETATM   21  C   UNK N   1      24.325  13.153   7.971  0.00  0.00     0.015 C 
HETATM   22  C   UNK N   1      24.885  12.740   6.626  0.00  0.00     0.006 C 
ENDBRANCH  20  21
ENDBRANCH  18  20
BRANCH  18  23
HETATM   23  C   UNK N   1      22.019  13.019  10.388  0.00  0.00     0.125 C 
BRANCH  23  24
HETATM   24  C   UNK N   1      22.678  11.686  10.694  0.00  0.00     0.015 C 
HETATM   25  C   UNK N   1      23.746  11.921  11.747  0.00  0.00     0.006 C 
ENDBRANCH  23  24
ENDBRANCH  18  23
ENDBRANCH   1  17
BRANCH   1  26
HETATM   26  N   UNK N   1      19.983  14.484   6.448  0.00  0.00    -0.357 N 
HETATM   27  C   UNK N   1      19.701  14.365   5.186  0.00  0.00     0.146 C 
ATOM     28  HN  UNK N   1      19.224  14.295   7.105  1.00  0.00     0.162 HD
BRANCH  27  29
HETATM   29  C   UNK N   1      20.708  14.480   4.090  0.00  0.00     0.014 A 
HETATM   30  C   UNK N   1      21.717  13.525   3.896  0.00  0.00     0.016 A 
HETATM   31  C   UNK N   1      22.639  13.660   2.854  0.00  0.00     0.001 A 
HETATM   32  C   UNK N   1      22.566  14.758   1.996  0.00  0.00     0.000 A 
HETATM   33  C   UNK N   1      21.556  15.708   2.166  0.00  0.00     0.001 A 
HETATM   34  C   UNK N   1      20.625  15.561   3.199  0.00  0.00     0.016 A 
ENDBRANCH  27  29
BRANCH  27  35
HETATM   35  O   UNK N   1      18.415  14.164   4.842  0.00  0.00    -0.346 OA
HETATM   36  H   UNK N   1      17.922  13.429   5.152  0.00  0.00     0.219 HD
ENDBRANCH  27  35
ENDBRANCH   1  26
TORSDOF 16
ENDMDL
MODEL 5
REMARK VINA RESULT:      -5.3      2.727      6.414
REMARK  16 active torsions:
REMARK  status: ('A' for Active; 'I' for Inactive)
REMARK    1  A    between atoms: C_18  and  C_5 
REMARK    2  A    between atoms: C_19  and  C_6 
REMARK    3  A    between atoms: N_31  and  C_7 
REMARK    4  A    between atoms: N_31  and  C_8 
REMARK    5  A    between atoms: N_32  and  C_18 
REMARK    6  A    between atoms: N_32  and  C_19 
REMARK    7  A    between atoms: C_21  and  C_20 
REMARK    8  A    between atoms: N_31  and  C_20 
REMARK    9  A    between atoms: O_35  and  C_21 
REMARK   10  A    between atoms: C_23  and  C_22 
REMARK   11  A    between atoms: C_26  and  C_22 
REMARK   12  A    between atoms: C_27  and  C_24 
REMARK   13  A    between atoms: O_35  and  C_25 
REMARK   14  A    between atoms: C_28  and  C_26 
REMARK   15  A    between atoms: N_29  and  C_26 
REMARK   16  A    between atoms: O_33  and  C_27 
REMARK       I    between atoms: N_32  and  C_28 
ROOT
HETATM    1  C   UNK N   1      26.764  25.434  -4.437  0.00  0.00     0.180 C 
ENDROOT
BRANCH   1   2
HETATM    2  C   UNK N   1      27.008  24.480  -3.253  0.00  0.00     0.073 C 
BRANCH   2   3
HETATM    3  C   UNK N   1      28.413  23.977  -3.168  0.00  0.00    -0.056 A 
HETATM    4  C   UNK N   1      28.684  22.735  -2.589  0.00  0.00     0.010 A 
HETATM    5  C   UNK N   1      29.989  22.255  -2.519  0.00  0.00     0.037 A 
HETATM    6  C   UNK N   1      31.043  23.020  -3.021  0.00  0.00     0.068 A 
HETATM    7  C   UNK N   1      30.770  24.265  -3.619  0.00  0.00     0.037 A 
HETATM    8  C   UNK N   1      29.458  24.736  -3.700  0.00  0.00     0.010 A 
BRANCH   6   9
HETATM    9  O   UNK N   1      32.307  22.555  -2.899  0.00  0.00    -0.349 OA
BRANCH   9  10
HETATM   10  C   UNK N   1      32.701  21.320  -3.363  0.00  0.00     0.206 C 
BRANCH  10  11
HETATM   11  C   UNK N   1      32.891  21.388  -4.871  0.00  0.00     0.299 C 
BRANCH  11  12
HETATM   12  N   UNK N   1      32.423  20.160  -5.493  0.00  0.00     0.089 N 
BRANCH  12  13
HETATM   13  C   UNK N   1      32.857  20.207  -6.881  0.00  0.00     0.268 C 
HETATM   14  C   UNK N   1      33.929  19.162  -7.110  0.00  0.00     0.037 C 
ENDBRANCH  12  13
BRANCH  12  15
HETATM   15  C   UNK N   1      30.967  20.194  -5.491  0.00  0.00     0.268 C 
HETATM   16  C   UNK N   1      30.467  21.372  -6.312  0.00  0.00     0.037 C 
ENDBRANCH  12  15
ENDBRANCH  11  12
ENDBRANCH  10  11
ENDBRANCH   9  10
ENDBRANCH   6   9
ENDBRANCH   2   3
ENDBRANCH   1   2
BRANCH   1  17
HETATM   17  C   UNK N   1      26.069  24.605  -5.536  0.00  0.00     0.242 C 
HETATM   18  N   UNK N   1      26.699  24.101  -6.658  0.00  0.00    -0.350 N 
HETATM   19  O   UNK N   1      24.868  24.429  -5.409  0.00  0.00    -0.271 OA
BRANCH  18  20
HETATM   20  C   UNK N   1      28.126  24.183  -6.857  0.00  0.00     0.125 C 
BRANCH  20  21
HETATM   21  C   UNK N   1      28.494  25.456  -7.598  0.00  0.00     0.015 C 
HETATM   22  C   UNK N   1      29.882  25.896  -7.180  0.00  0.00     0.006 C 
ENDBRANCH  20  21
ENDBRANCH  18  20
BRANCH  18  23
HETATM   23  C   UNK N   1      25.913  23.524  -7.740  0.00  0.00     0.125 C 
BRANCH  23  24
HETATM   24  C   UNK N   1      26.031  22.014  -7.829  0.00  0.00     0.015 C 
HETATM   25  C   UNK N   1      24.737  21.410  -7.315  0.00  0.00     0.006 C 
ENDBRANCH  23  24
ENDBRANCH  18  23
ENDBRANCH   1  17
BRANCH   1  26
HETATM   26  N   UNK N   1      25.971  26.543  -3.945  0.00  0.00    -0.357 N 
HETATM   27  C   UNK N   1      26.276  27.804  -3.998  0.00  0.00     0.146 C 
ATOM     28  HN  UNK N   1      25.077  26.308  -3.511  1.00  0.00     0.162 HD
BRANCH  27  29
HETATM   29  C   UNK N   1      27.476  28.345  -4.702  0.00  0.00     0.014 A 
HETATM   30  C   UNK N   1      28.739  28.400  -4.094  0.00  0.00     0.016 A 
HETATM   31  C   UNK N   1      29.844  28.905  -4.786  0.00  0.00     0.001 A 
HETATM   32  C   UNK N   1      29.698  29.368  -6.093  0.00  0.00     0.000 A 
HETATM   33  C   UNK N   1      28.450  29.303  -6.718  0.00  0.00     0.001 A 
HETATM   34  C   UNK N   1      27.349  28.781  -6.030  0.00  0.00     0.016 A 
ENDBRANCH  27  29
BRANCH  27  35
HETATM   35  O   UNK N   1      25.483  28.674  -3.344  0.00  0.00    -0.346 OA
HETATM   36  H   UNK N   1      25.505  28.769  -2.412  0.00  0.00     0.219 HD
ENDBRANCH  27  35
ENDBRANCH   1  26
TORSDOF 16
ENDMDL
MODEL 6
REMARK VINA RESULT:      -5.3     12.762     14.884
REMARK  16 active torsions:
REMARK  status: ('A' for Active; 'I' for Inactive)
REMARK    1  A    between atoms: C_18  and  C_5 
REMARK    2  A    between atoms: C_19  and  C_6 
REMARK    3  A    between atoms: N_31  and  C_7 
REMARK    4  A    between atoms: N_31  and  C_8 
REMARK    5  A    between atoms: N_32  and  C_18 
REMARK    6  A    between atoms: N_32  and  C_19 
REMARK    7  A    between atoms: C_21  and  C_20 
REMARK    8  A    between atoms: N_31  and  C_20 
REMARK    9  A    between atoms: O_35  and  C_21 
REMARK   10  A    between atoms: C_23  and  C_22 
REMARK   11  A    between atoms: C_26  and  C_22 
REMARK   12  A    between atoms: C_27  and  C_24 
REMARK   13  A    between atoms: O_35  and  C_25 
REMARK   14  A    between atoms: C_28  and  C_26 
REMARK   15  A    between atoms: N_29  and  C_26 
REMARK   16  A    between atoms: O_33  and  C_27 
REMARK       I    between atoms: N_32  and  C_28 
ROOT
HETATM    1  C   UNK N   1      22.169  18.434   4.182  0.00  0.00     0.180 C 
ENDROOT
BRANCH   1   2
HETATM    2  C   UNK N   1      21.028  18.559   3.156  0.00  0.00     0.073 C 
BRANCH   2   3
HETATM    3  C   UNK N   1      20.730  17.285   2.433  0.00  0.00    -0.056 A 
HETATM    4  C   UNK N   1      21.103  16.057   2.985  0.00  0.00     0.010 A 
HETATM    5  C   UNK N   1      20.817  14.865   2.323  0.00  0.00     0.037 A 
HETATM    6  C   UNK N   1      20.161  14.891   1.092  0.00  0.00     0.068 A 
HETATM    7  C   UNK N   1      19.770  16.127   0.542  0.00  0.00     0.037 A 
HETATM    8  C   UNK N   1      20.047  17.317   1.216  0.00  0.00     0.010 A 
BRANCH   6   9
HETATM    9  O   UNK N   1      19.936  13.725   0.445  0.00  0.00    -0.349 OA
BRANCH   9  10
HETATM   10  C   UNK N   1      19.660  12.545   1.098  0.00  0.00     0.206 C 
BRANCH  10  11
HETATM   11  C   UNK N   1      20.702  11.504   0.719  0.00  0.00     0.299 C 
BRANCH  11  12
HETATM   12  N   UNK N   1      21.978  11.821   1.340  0.00  0.00     0.089 N 
BRANCH  12  13
HETATM   13  C   UNK N   1      22.978  11.759   0.286  0.00  0.00     0.268 C 
HETATM   14  C   UNK N   1      23.540  13.143   0.040  0.00  0.00     0.037 C 
ENDBRANCH  12  13
BRANCH  12  15
HETATM   15  C   UNK N   1      22.280  10.759   2.290  0.00  0.00     0.268 C 
HETATM   16  C   UNK N   1      22.387  11.325   3.697  0.00  0.00     0.037 C 
ENDBRANCH  12  15
ENDBRANCH  11  12
ENDBRANCH  10  11
ENDBRANCH   9  10
ENDBRANCH   6   9
ENDBRANCH   2   3
ENDBRANCH   1   2
BRANCH   1  17
HETATM   17  C   UNK N   1      23.330  19.307   3.662  0.00  0.00     0.242 C 
HETATM   18  N   UNK N   1      24.669  19.001   3.805  0.00  0.00    -0.350 N 
HETATM   19  O   UNK N   1      23.021  20.360   3.128  0.00  0.00    -0.271 OA
BRANCH  18  20
HETATM   20  C   UNK N   1      25.132  17.747   4.346  0.00  0.00     0.125 C 
BRANCH  20  21
HETATM   21  C   UNK N   1      25.641  16.838   3.242  0.00  0.00     0.015 C 
HETATM   22  C   UNK N   1      24.692  15.670   3.076  0.00  0.00     0.006 C 
ENDBRANCH  20  21
ENDBRANCH  18  20
BRANCH  18  23
HETATM   23  C   UNK N   1      25.683  19.994   3.478  0.00  0.00     0.125 C 
BRANCH  23  24
HETATM   24  C   UNK N   1      26.457  20.484   4.688  0.00  0.00     0.015 C 
HETATM   25  C   UNK N   1      27.897  20.027   4.542  0.00  0.00     0.006 C 
ENDBRANCH  23  24
ENDBRANCH  18  23
ENDBRANCH   1  17
BRANCH   1  26
HETATM   26  N   UNK N   1      21.646  18.854   5.467  0.00  0.00    -0.357 N 
HETATM   27  C   UNK N   1      21.277  18.086   6.448  0.00  0.00     0.146 C 
ATOM     28  HN  UNK N   1      21.557  19.859   5.617  1.00  0.00     0.162 HD
BRANCH  27  29
HETATM   29  C   UNK N   1      21.449  16.603   6.459  0.00  0.00     0.014 A 
HETATM   30  C   UNK N   1      22.713  15.995   6.485  0.00  0.00     0.016 A 
HETATM   31  C   UNK N   1      22.836  14.603   6.504  0.00  0.00     0.001 A 
HETATM   32  C   UNK N   1      21.696  13.801   6.488  0.00  0.00     0.000 A 
HETATM   33  C   UNK N   1      20.430  14.392   6.480  0.00  0.00     0.001 A 
HETATM   34  C   UNK N   1      20.308  15.785   6.480  0.00  0.00     0.016 A 
ENDBRANCH  27  29
BRANCH  27  35
HETATM   35  O   UNK N   1      20.667  18.658   7.503  0.00  0.00    -0.346 OA
HETATM   36  H   UNK N   1      20.651  19.587   7.629  0.00  0.00     0.219 HD
ENDBRANCH  27  35
ENDBRANCH   1  26
TORSDOF 16
ENDMDL
MODEL 7
REMARK VINA RESULT:      -5.2     15.502     18.541
REMARK  16 active torsions:
REMARK  status: ('A' for Active; 'I' for Inactive)
REMARK    1  A    between atoms: C_18  and  C_5 
REMARK    2  A    between atoms: C_19  and  C_6 
REMARK    3  A    between atoms: N_31  and  C_7 
REMARK    4  A    between atoms: N_31  and  C_8 
REMARK    5  A    between atoms: N_32  and  C_18 
REMARK    6  A    between atoms: N_32  and  C_19 
REMARK    7  A    between atoms: C_21  and  C_20 
REMARK    8  A    between atoms: N_31  and  C_20 
REMARK    9  A    between atoms: O_35  and  C_21 
REMARK   10  A    between atoms: C_23  and  C_22 
REMARK   11  A    between atoms: C_26  and  C_22 
REMARK   12  A    between atoms: C_27  and  C_24 
REMARK   13  A    between atoms: O_35  and  C_25 
REMARK   14  A    between atoms: C_28  and  C_26 
REMARK   15  A    between atoms: N_29  and  C_26 
REMARK   16  A    between atoms: O_33  and  C_27 
REMARK       I    between atoms: N_32  and  C_28 
ROOT
HETATM    1  C   UNK N   1      29.997  16.808   6.585  0.00  0.00     0.180 C 
ENDROOT
BRANCH   1   2
HETATM    2  C   UNK N   1      30.511  17.673   7.751  0.00  0.00     0.073 C 
BRANCH   2   3
HETATM    3  C   UNK N   1      31.880  17.295   8.220  0.00  0.00    -0.056 A 
HETATM    4  C   UNK N   1      32.123  16.015   8.724  0.00  0.00     0.010 A 
HETATM    5  C   UNK N   1      33.399  15.652   9.151  0.00  0.00     0.037 A 
HETATM    6  C   UNK N   1      34.445  16.573   9.087  0.00  0.00     0.068 A 
HETATM    7  C   UNK N   1      34.204  17.858   8.564  0.00  0.00     0.037 A 
HETATM    8  C   UNK N   1      32.928  18.213   8.125  0.00  0.00     0.010 A 
BRANCH   6   9
HETATM    9  O   UNK N   1      35.664  16.214   9.551  0.00  0.00    -0.349 OA
BRANCH   9  10
HETATM   10  C   UNK N   1      35.930  16.018  10.887  0.00  0.00     0.206 C 
BRANCH  10  11
HETATM   11  C   UNK N   1      36.447  14.602  11.094  0.00  0.00     0.299 C 
BRANCH  11  12
HETATM   12  N   UNK N   1      35.564  13.870  11.987  0.00  0.00     0.089 N 
BRANCH  12  13
HETATM   13  C   UNK N   1      36.413  13.252  12.994  0.00  0.00     0.268 C 
HETATM   14  C   UNK N   1      36.441  14.119  14.234  0.00  0.00     0.037 C 
ENDBRANCH  12  13
BRANCH  12  15
HETATM   15  C   UNK N   1      34.951  12.796  11.216  0.00  0.00     0.268 C 
HETATM   16  C   UNK N   1      35.744  12.542   9.945  0.00  0.00     0.037 C 
ENDBRANCH  12  15
ENDBRANCH  11  12
ENDBRANCH  10  11
ENDBRANCH   9  10
ENDBRANCH   6   9
ENDBRANCH   2   3
ENDBRANCH   1   2
BRANCH   1  17
HETATM   17  C   UNK N   1      28.466  16.713   6.747  0.00  0.00     0.242 C 
HETATM   18  N   UNK N   1      27.661  15.803   6.091  0.00  0.00    -0.350 N 
HETATM   19  O   UNK N   1      27.944  17.539   7.478  0.00  0.00    -0.271 OA
BRANCH  18  20
HETATM   20  C   UNK N   1      28.189  14.737   5.273  0.00  0.00     0.125 C 
BRANCH  20  21
HETATM   21  C   UNK N   1      27.648  14.825   3.858  0.00  0.00     0.015 C 
HETATM   22  C   UNK N   1      28.719  15.383   2.945  0.00  0.00     0.006 C 
ENDBRANCH  20  21
ENDBRANCH  18  20
BRANCH  18  23
HETATM   23  C   UNK N   1      26.212  15.940   6.141  0.00  0.00     0.125 C 
BRANCH  23  24
HETATM   24  C   UNK N   1      25.539  14.892   7.009  0.00  0.00     0.015 C 
HETATM   25  C   UNK N   1      24.058  14.889   6.679  0.00  0.00     0.006 C 
ENDBRANCH  23  24
ENDBRANCH  18  23
ENDBRANCH   1  17
BRANCH   1  26
HETATM   26  N   UNK N   1      30.422  17.442   5.354  0.00  0.00    -0.357 N 
HETATM   27  C   UNK N   1      31.499  17.185   4.675  0.00  0.00     0.146 C 
ATOM     28  HN  UNK N   1      29.810  18.169   4.980  1.00  0.00     0.162 HD
BRANCH  27  29
HETATM   29  C   UNK N   1      32.446  16.077   4.998  0.00  0.00     0.014 A 
HETATM   30  C   UNK N   1      32.033  14.739   5.082  0.00  0.00     0.016 A 
HETATM   31  C   UNK N   1      32.949  13.725   5.378  0.00  0.00     0.001 A 
HETATM   32  C   UNK N   1      34.290  14.039   5.601  0.00  0.00     0.000 A 
HETATM   33  C   UNK N   1      34.719  15.365   5.503  0.00  0.00     0.001 A 
HETATM   34  C   UNK N   1      33.804  16.375   5.189  0.00  0.00     0.016 A 
ENDBRANCH  27  29
BRANCH  27  35
HETATM   35  O   UNK N   1      31.802  17.992   3.640  0.00  0.00    -0.346 OA
HETATM   36  H   UNK N   1      31.784  18.926   3.712  0.00  0.00     0.219 HD
ENDBRANCH  27  35
ENDBRANCH   1  26
TORSDOF 16
ENDMDL
MODEL 8
REMARK VINA RESULT:      -5.2     13.388     16.228
REMARK  16 active torsions:
REMARK  status: ('A' for Active; 'I' for Inactive)
REMARK    1  A    between atoms: C_18  and  C_5 
REMARK    2  A    between atoms: C_19  and  C_6 
REMARK    3  A    between atoms: N_31  and  C_7 
REMARK    4  A    between atoms: N_31  and  C_8 
REMARK    5  A    between atoms: N_32  and  C_18 
REMARK    6  A    between atoms: N_32  and  C_19 
REMARK    7  A    between atoms: C_21  and  C_20 
REMARK    8  A    between atoms: N_31  and  C_20 
REMARK    9  A    between atoms: O_35  and  C_21 
REMARK   10  A    between atoms: C_23  and  C_22 
REMARK   11  A    between atoms: C_26  and  C_22 
REMARK   12  A    between atoms: C_27  and  C_24 
REMARK   13  A    between atoms: O_35  and  C_25 
REMARK   14  A    between atoms: C_28  and  C_26 
REMARK   15  A    between atoms: N_29  and  C_26 
REMARK   16  A    between atoms: O_33  and  C_27 
REMARK       I    between atoms: N_32  and  C_28 
ROOT
HETATM    1  C   UNK N   1      21.371  17.023   5.214  0.00  0.00     0.180 C 
ENDROOT
BRANCH   1   2
HETATM    2  C   UNK N   1      21.967  18.227   4.461  0.00  0.00     0.073 C 
BRANCH   2   3
HETATM    3  C   UNK N   1      23.453  18.164   4.310  0.00  0.00    -0.056 A 
HETATM    4  C   UNK N   1      24.170  19.294   3.909  0.00  0.00     0.010 A 
HETATM    5  C   UNK N   1      25.556  19.246   3.780  0.00  0.00     0.037 A 
HETATM    6  C   UNK N   1      26.240  18.058   4.041  0.00  0.00     0.068 A 
HETATM    7  C   UNK N   1      25.521  16.923   4.461  0.00  0.00     0.037 A 
HETATM    8  C   UNK N   1      24.134  16.981   4.603  0.00  0.00     0.010 A 
BRANCH   6   9
HETATM    9  O   UNK N   1      27.581  18.021   3.862  0.00  0.00    -0.349 OA
BRANCH   9  10
HETATM   10  C   UNK N   1      28.464  18.707   4.666  0.00  0.00     0.206 C 
BRANCH  10  11
HETATM   11  C   UNK N   1      28.504  18.054   6.040  0.00  0.00     0.299 C 
BRANCH  11  12
HETATM   12  N   UNK N   1      27.856  18.909   7.021  0.00  0.00     0.089 N 
BRANCH  12  13
HETATM   13  C   UNK N   1      27.896  20.260   6.484  0.00  0.00     0.268 C 
HETATM   14  C   UNK N   1      26.622  20.989   6.857  0.00  0.00     0.037 C 
ENDBRANCH  12  13
BRANCH  12  15
HETATM   15  C   UNK N   1      28.677  18.895   8.225  0.00  0.00     0.268 C 
HETATM   16  C   UNK N   1      28.152  17.861   9.208  0.00  0.00     0.037 C 
ENDBRANCH  12  15
ENDBRANCH  11  12
ENDBRANCH  10  11
ENDBRANCH   9  10
ENDBRANCH   6   9
ENDBRANCH   2   3
ENDBRANCH   1   2
BRANCH   1  17
HETATM   17  C   UNK N   1      20.926  17.542   6.596  0.00  0.00     0.242 C 
HETATM   18  N   UNK N   1      20.400  16.753   7.600  0.00  0.00    -0.350 N 
HETATM   19  O   UNK N   1      21.012  18.746   6.779  0.00  0.00    -0.271 OA
BRANCH  18  20
HETATM   20  C   UNK N   1      20.336  15.314   7.512  0.00  0.00     0.125 C 
BRANCH  20  21
HETATM   21  C   UNK N   1      21.575  14.680   8.118  0.00  0.00     0.015 C 
HETATM   22  C   UNK N   1      21.213  14.033   9.439  0.00  0.00     0.006 C 
ENDBRANCH  20  21
ENDBRANCH  18  20
BRANCH  18  23
HETATM   23  C   UNK N   1      19.808  17.370   8.779  0.00  0.00     0.125 C 
BRANCH  23  24
HETATM   24  C   UNK N   1      18.535  16.683   9.241  0.00  0.00     0.015 C 
HETATM   25  C   UNK N   1      17.581  17.751   9.745  0.00  0.00     0.006 C 
ENDBRANCH  23  24
ENDBRANCH  18  23
ENDBRANCH   1  17
BRANCH   1  26
HETATM   26  N   UNK N   1      20.290  16.497   4.404  0.00  0.00    -0.357 N 
HETATM   27  C   UNK N   1      20.381  15.604   3.466  0.00  0.00     0.146 C 
ATOM     28  HN  UNK N   1      19.357  16.868   4.592  1.00  0.00     0.162 HD
BRANCH  27  29
HETATM   29  C   UNK N   1      21.633  14.863   3.136  0.00  0.00     0.014 A 
HETATM   30  C   UNK N   1      22.370  15.119   1.969  0.00  0.00     0.016 A 
HETATM   31  C   UNK N   1      23.544  14.412   1.696  0.00  0.00     0.001 A 
HETATM   32  C   UNK N   1      23.993  13.434   2.583  0.00  0.00     0.000 A 
HETATM   33  C   UNK N   1      23.279  13.180   3.758  0.00  0.00     0.001 A 
HETATM   34  C   UNK N   1      22.115  13.902   4.038  0.00  0.00     0.016 A 
ENDBRANCH  27  29
BRANCH  27  35
HETATM   35  O   UNK N   1      19.288  15.361   2.717  0.00  0.00    -0.346 OA
HETATM   36  H   UNK N   1      18.421  15.554   3.019  0.00  0.00     0.219 HD
ENDBRANCH  27  35
ENDBRANCH   1  26
TORSDOF 16
ENDMDL
MODEL 9
REMARK VINA RESULT:      -5.2     19.953     22.553
REMARK  16 active torsions:
REMARK  status: ('A' for Active; 'I' for Inactive)
REMARK    1  A    between atoms: C_18  and  C_5 
REMARK    2  A    between atoms: C_19  and  C_6 
REMARK    3  A    between atoms: N_31  and  C_7 
REMARK    4  A    between atoms: N_31  and  C_8 
REMARK    5  A    between atoms: N_32  and  C_18 
REMARK    6  A    between atoms: N_32  and  C_19 
REMARK    7  A    between atoms: C_21  and  C_20 
REMARK    8  A    between atoms: N_31  and  C_20 
REMARK    9  A    between atoms: O_35  and  C_21 
REMARK   10  A    between atoms: C_23  and  C_22 
REMARK   11  A    between atoms: C_26  and  C_22 
REMARK   12  A    between atoms: C_27  and  C_24 
REMARK   13  A    between atoms: O_35  and  C_25 
REMARK   14  A    between atoms: C_28  and  C_26 
REMARK   15  A    between atoms: N_29  and  C_26 
REMARK   16  A    between atoms: O_33  and  C_27 
REMARK       I    between atoms: N_32  and  C_28 
ROOT
HETATM    1  C   UNK N   1      36.107  13.744  12.185  0.00  0.00     0.180 C 
ENDROOT
BRANCH   1   2
HETATM    2  C   UNK N   1      36.152  14.775  11.042  0.00  0.00     0.073 C 
BRANCH   2   3
HETATM    3  C   UNK N   1      35.056  14.605  10.039  0.00  0.00    -0.056 A 
HETATM    4  C   UNK N   1      33.741  14.942  10.368  0.00  0.00     0.010 A 
HETATM    5  C   UNK N   1      32.717  14.799   9.434  0.00  0.00     0.037 A 
HETATM    6  C   UNK N   1      32.998  14.304   8.160  0.00  0.00     0.068 A 
HETATM    7  C   UNK N   1      34.325  13.979   7.822  0.00  0.00     0.037 A 
HETATM    8  C   UNK N   1      35.350  14.138   8.756  0.00  0.00     0.010 A 
BRANCH   6   9
HETATM    9  O   UNK N   1      31.981  14.129   7.286  0.00  0.00    -0.349 OA
BRANCH   9  10
HETATM   10  C   UNK N   1      32.093  14.396   5.940  0.00  0.00     0.206 C 
BRANCH  10  11
HETATM   11  C   UNK N   1      31.614  15.814   5.667  0.00  0.00     0.299 C 
BRANCH  11  12
HETATM   12  N   UNK N   1      32.750  16.707   5.512  0.00  0.00     0.089 N 
BRANCH  12  13
HETATM   13  C   UNK N   1      32.769  17.561   6.689  0.00  0.00     0.268 C 
HETATM   14  C   UNK N   1      34.183  17.651   7.225  0.00  0.00     0.037 C 
ENDBRANCH  12  13
BRANCH  12  15
HETATM   15  C   UNK N   1      32.485  17.559   4.360  0.00  0.00     0.268 C 
HETATM   16  C   UNK N   1      32.690  16.779   3.071  0.00  0.00     0.037 C 
ENDBRANCH  12  15
ENDBRANCH  11  12
ENDBRANCH  10  11
ENDBRANCH   9  10
ENDBRANCH   6   9
ENDBRANCH   2   3
ENDBRANCH   1   2
BRANCH   1  17
HETATM   17  C   UNK N   1      36.744  12.450  11.638  0.00  0.00     0.242 C 
HETATM   18  N   UNK N   1      36.067  11.262  11.439  0.00  0.00    -0.350 N 
HETATM   19  O   UNK N   1      37.943  12.487  11.412  0.00  0.00    -0.271 OA
BRANCH  18  20
HETATM   20  C   UNK N   1      34.638  11.141  11.597  0.00  0.00     0.125 C 
BRANCH  20  21
HETATM   21  C   UNK N   1      33.964  10.913  10.256  0.00  0.00     0.015 C 
HETATM   22  C   UNK N   1      33.043   9.715  10.355  0.00  0.00     0.006 C 
ENDBRANCH  20  21
ENDBRANCH  18  20
BRANCH  18  23
HETATM   23  C   UNK N   1      36.804  10.044  11.131  0.00  0.00     0.125 C 
BRANCH  23  24
HETATM   24  C   UNK N   1      36.765   9.020  12.251  0.00  0.00     0.015 C 
HETATM   25  C   UNK N   1      38.195   8.659  12.607  0.00  0.00     0.006 C 
ENDBRANCH  23  24
ENDBRANCH  18  23
ENDBRANCH   1  17
BRANCH   1  26
HETATM   26  N   UNK N   1      36.812  14.317  13.314  0.00  0.00    -0.357 N 
HETATM   27  C   UNK N   1      36.811  13.881  14.537  0.00  0.00     0.146 C 
ATOM     28  HN  UNK N   1      37.370  15.151  13.128  1.00  0.00     0.162 HD
BRANCH  27  29
HETATM   29  C   UNK N   1      36.158  12.611  14.971  0.00  0.00     0.014 A 
HETATM   30  C   UNK N   1      34.765  12.488  15.093  0.00  0.00     0.016 A 
HETATM   31  C   UNK N   1      34.187  11.280  15.494  0.00  0.00     0.001 A 
HETATM   32  C   UNK N   1      34.995  10.181  15.785  0.00  0.00     0.000 A 
HETATM   33  C   UNK N   1      36.382  10.283  15.651  0.00  0.00     0.001 A 
HETATM   34  C   UNK N   1      36.957  11.487  15.233  0.00  0.00     0.016 A 
ENDBRANCH  27  29
BRANCH  27  35
HETATM   35  O   UNK N   1      37.400  14.641  15.480  0.00  0.00    -0.346 OA
HETATM   36  H   UNK N   1      38.300  14.899  15.424  0.00  0.00     0.219 HD
ENDBRANCH  27  35
ENDBRANCH   1  26
TORSDOF 16
ENDMDL
