MODEL 1
REMARK VINA RESULT:      -5.6      0.000      0.000
REMARK  15 active torsions:
REMARK  status: ('A' for Active; 'I' for Inactive)
REMARK    1  A    between atoms: C_1  and  C_2 
REMARK    2  A    between atoms: C_1  and  C_7 
REMARK    3  A    between atoms: C_2  and  S_3 
REMARK    4  A    between atoms: S_3  and  O_6 
REMARK    5  A    between atoms: C_7  and  C_8 
REMARK    6  A    between atoms: C_7  and  N_20 
REMARK    7  A    between atoms: C_8  and  S_9 
REMARK    8  A    between atoms: S_9  and  S_10 
REMARK    9  A    between atoms: S_10  and  C_11 
REMARK   10  A    between atoms: C_11  and  C_12 
REMARK   11  A    between atoms: C_12  and  C_13 
REMARK   12  A    between atoms: C_12  and  N_19 
REMARK   13  A    between atoms: C_13  and  C_14 
REMARK   14  A    between atoms: C_14  and  S_15 
REMARK   15  A    between atoms: S_15  and  O_18 
ROOT
HETATM    1  S   UNK N   1      36.863  12.851   8.559  0.00  0.00    -0.096 SA
ENDROOT
BRANCH   1   2
HETATM    2  C   UNK N   1      36.584  12.305  10.260  0.00  0.00     0.110 C 
BRANCH   2   3
HETATM    3  C   UNK N   1      37.393  13.081  11.296  0.00  0.00     0.085 C 
BRANCH   3   4
HETATM    4  C   UNK N   1      37.355  12.327  12.617  0.00  0.00     0.042 C 
BRANCH   4   5
HETATM    5  C   UNK N   1      36.577  13.092  13.684  0.00  0.00     0.157 C 
BRANCH   5   6
HETATM    6  S   UNK N   1      35.037  12.205  14.085  0.00  0.00     0.094 S 
HETATM    7  O   UNK N   1      34.203  12.787  15.234  0.00  0.00    -0.601 OA
HETATM    8  O   UNK N   1      34.691  13.555  13.441  0.00  0.00    -0.601 OA
BRANCH   6   9
HETATM    9  O   UNK N   1      36.206  12.514  15.304  0.00  0.00    -0.296 OA
HETATM   10  H   UNK N   1      37.147  12.288  15.223  0.00  0.00     0.232 HD
ENDBRANCH   6   9
ENDBRANCH   5   6
ENDBRANCH   4   5
ENDBRANCH   3   4
BRANCH   3  11
HETATM   11  N   UNK N   1      38.781  13.210  10.883  0.00  0.00    -0.425 N 
HETATM   12  H   UNK N   1      39.311  14.059  10.690  0.00  0.00     0.150 HD
HETATM   13  H   UNK N   1      39.292  12.334  10.772  0.00  0.00     0.150 HD
ENDBRANCH   3  11
ENDBRANCH   2   3
ENDBRANCH   1   2
BRANCH   1  14
HETATM   14  S   UNK N   1      34.782  12.619   8.176  0.00  0.00    -0.096 SA
BRANCH  14  15
HETATM   15  C   UNK N   1      34.419  13.992   9.297  0.00  0.00     0.110 C 
BRANCH  15  16
HETATM   16  C   UNK N   1      33.014  14.547   9.081  0.00  0.00     0.085 C 
BRANCH  16  17
HETATM   17  C   UNK N   1      33.063  15.597   7.988  0.00  0.00     0.042 C 
BRANCH  17  18
HETATM   18  C   UNK N   1      34.325  16.443   8.081  0.00  0.00     0.157 C 
BRANCH  18  19
HETATM   19  S   UNK N   1      33.869  18.197   8.164  0.00  0.00     0.094 S 
HETATM   20  O   UNK N   1      35.030  19.179   8.361  0.00  0.00    -0.601 OA
HETATM   21  O   UNK N   1      34.626  17.896   6.864  0.00  0.00    -0.601 OA
BRANCH  19  22
HETATM   22  O   UNK N   1      34.753  17.487   9.455  0.00  0.00    -0.296 OA
HETATM   23  H   UNK N   1      34.412  17.283  10.339  0.00  0.00     0.232 HD
ENDBRANCH  19  22
ENDBRANCH  18  19
ENDBRANCH  17  18
ENDBRANCH  16  17
BRANCH  16  24
HETATM   24  N   UNK N   1      32.517  15.177  10.293  0.00  0.00    -0.425 N 
HETATM   25  H   UNK N   1      31.739  14.924  10.902  0.00  0.00     0.150 HD
HETATM   26  H   UNK N   1      33.030  16.010  10.582  0.00  0.00     0.150 HD
ENDBRANCH  16  24
ENDBRANCH  15  16
ENDBRANCH  14  15
ENDBRANCH   1  14
TORSDOF 15
ENDMDL
MODEL 2
REMARK VINA RESULT:      -5.4      4.746      6.718
REMARK  15 active torsions:
REMARK  status: ('A' for Active; 'I' for Inactive)
REMARK    1  A    between atoms: C_1  and  C_2 
REMARK    2  A    between atoms: C_1  and  C_7 
REMARK    3  A    between atoms: C_2  and  S_3 
REMARK    4  A    between atoms: S_3  and  O_6 
REMARK    5  A    between atoms: C_7  and  C_8 
REMARK    6  A    between atoms: C_7  and  N_20 
REMARK    7  A    between atoms: C_8  and  S_9 
REMARK    8  A    between atoms: S_9  and  S_10 
REMARK    9  A    between atoms: S_10  and  C_11 
REMARK   10  A    between atoms: C_11  and  C_12 
REMARK   11  A    between atoms: C_12  and  C_13 
REMARK   12  A    between atoms: C_12  and  N_19 
REMARK   13  A    between atoms: C_13  and  C_14 
REMARK   14  A    between atoms: C_14  and  S_15 
REMARK   15  A    between atoms: S_15  and  O_18 
ROOT
HETATM    1  S   UNK N   1      32.118  13.898   5.602  0.00  0.00    -0.096 SA
ENDROOT
BRANCH   1   2
HETATM    2  C   UNK N   1      31.992  14.898   7.104  0.00  0.00     0.110 C 
BRANCH   2   3
HETATM    3  C   UNK N   1      32.951  14.467   8.211  0.00  0.00     0.085 C 
BRANCH   3   4
HETATM    4  C   UNK N   1      33.304  15.681   9.058  0.00  0.00     0.042 C 
BRANCH   4   5
HETATM    5  C   UNK N   1      34.508  16.432   8.498  0.00  0.00     0.157 C 
BRANCH   5   6
HETATM    6  S   UNK N   1      34.121  18.205   8.351  0.00  0.00     0.094 S 
HETATM    7  O   UNK N   1      35.323  19.151   8.225  0.00  0.00    -0.601 OA
HETATM    8  O   UNK N   1      34.662  17.692   7.009  0.00  0.00    -0.601 OA
BRANCH   6   9
HETATM    9  O   UNK N   1      35.191  17.647   9.571  0.00  0.00    -0.296 OA
HETATM   10  H   UNK N   1      35.608  16.770   9.567  0.00  0.00     0.232 HD
ENDBRANCH   6   9
ENDBRANCH   5   6
ENDBRANCH   4   5
ENDBRANCH   3   4
BRANCH   3  11
HETATM   11  N   UNK N   1      32.336  13.471   9.074  0.00  0.00    -0.425 N 
HETATM   12  H   UNK N   1      31.361  13.392   9.359  0.00  0.00     0.150 HD
HETATM   13  H   UNK N   1      32.964  12.758   9.443  0.00  0.00     0.150 HD
ENDBRANCH   3  11
ENDBRANCH   2   3
ENDBRANCH   1   2
BRANCH   1  14
HETATM   14  S   UNK N   1      32.055  15.685   4.445  0.00  0.00    -0.096 SA
BRANCH  14  15
HETATM   15  C   UNK N   1      30.814  16.372   5.567  0.00  0.00     0.110 C 
BRANCH  15  16
HETATM   16  C   UNK N   1      30.104  17.578   4.961  0.00  0.00     0.085 C 
BRANCH  16  17
HETATM   17  C   UNK N   1      28.886  17.905   5.802  0.00  0.00     0.042 C 
BRANCH  17  18
HETATM   18  C   UNK N   1      28.775  16.984   7.009  0.00  0.00     0.157 C 
BRANCH  18  19
HETATM   19  S   UNK N   1      28.279  17.952   8.461  0.00  0.00     0.094 S 
HETATM   20  O   UNK N   1      27.814  17.140   9.676  0.00  0.00    -0.601 OA
HETATM   21  O   UNK N   1      29.590  17.203   8.732  0.00  0.00    -0.601 OA
BRANCH  19  22
HETATM   22  O   UNK N   1      27.175  16.831   7.771  0.00  0.00    -0.296 OA
HETATM   23  H   UNK N   1      26.569  17.004   7.035  0.00  0.00     0.232 HD
ENDBRANCH  19  22
ENDBRANCH  18  19
ENDBRANCH  17  18
ENDBRANCH  16  17
BRANCH  16  24
HETATM   24  N   UNK N   1      29.655  17.286   3.609  0.00  0.00    -0.425 N 
HETATM   25  H   UNK N   1      29.166  17.869   2.931  0.00  0.00     0.150 HD
HETATM   26  H   UNK N   1      29.865  16.341   3.285  0.00  0.00     0.150 HD
ENDBRANCH  16  24
ENDBRANCH  15  16
ENDBRANCH  14  15
ENDBRANCH   1  14
TORSDOF 15
ENDMDL
MODEL 3
REMARK VINA RESULT:      -5.4      1.320      6.336
REMARK  15 active torsions:
REMARK  status: ('A' for Active; 'I' for Inactive)
REMARK    1  A    between atoms: C_1  and  C_2 
REMARK    2  A    between atoms: C_1  and  C_7 
REMARK    3  A    between atoms: C_2  and  S_3 
REMARK    4  A    between atoms: S_3  and  O_6 
REMARK    5  A    between atoms: C_7  and  C_8 
REMARK    6  A    between atoms: C_7  and  N_20 
REMARK    7  A    between atoms: C_8  and  S_9 
REMARK    8  A    between atoms: S_9  and  S_10 
REMARK    9  A    between atoms: S_10  and  C_11 
REMARK   10  A    between atoms: C_11  and  C_12 
REMARK   11  A    between atoms: C_12  and  C_13 
REMARK   12  A    between atoms: C_12  and  N_19 
REMARK   13  A    between atoms: C_13  and  C_14 
REMARK   14  A    between atoms: C_14  and  S_15 
REMARK   15  A    between atoms: S_15  and  O_18 
ROOT
HETATM    1  S   UNK N   1      35.564  12.363   7.455  0.00  0.00    -0.096 SA
ENDROOT
BRANCH   1   2
HETATM    2  C   UNK N   1      34.455  13.787   7.575  0.00  0.00     0.110 C 
BRANCH   2   3
HETATM    3  C   UNK N   1      33.806  13.947   8.947  0.00  0.00     0.085 C 
BRANCH   3   4
HETATM    4  C   UNK N   1      33.509  15.420   9.184  0.00  0.00     0.042 C 
BRANCH   4   5
HETATM    5  C   UNK N   1      34.684  16.307   8.782  0.00  0.00     0.157 C 
BRANCH   5   6
HETATM    6  S   UNK N   1      34.112  18.016   8.522  0.00  0.00     0.094 S 
HETATM    7  O   UNK N   1      35.208  19.071   8.320  0.00  0.00    -0.601 OA
HETATM    8  O   UNK N   1      34.698  17.473   7.211  0.00  0.00    -0.601 OA
BRANCH   6   9
HETATM    9  O   UNK N   1      35.241  17.656   9.765  0.00  0.00    -0.296 OA
HETATM   10  H   UNK N   1      36.139  17.325   9.602  0.00  0.00     0.232 HD
ENDBRANCH   6   9
ENDBRANCH   5   6
ENDBRANCH   4   5
ENDBRANCH   3   4
BRANCH   3  11
HETATM   11  N   UNK N   1      32.554  13.211   9.020  0.00  0.00    -0.425 N 
HETATM   12  H   UNK N   1      31.634  13.548   9.303  0.00  0.00     0.150 HD
HETATM   13  H   UNK N   1      32.602  12.228   8.752  0.00  0.00     0.150 HD
ENDBRANCH   3  11
ENDBRANCH   2   3
ENDBRANCH   1   2
BRANCH   1  14
HETATM   14  S   UNK N   1      37.170  13.598   8.111  0.00  0.00    -0.096 SA
BRANCH  14  15
HETATM   15  C   UNK N   1      37.430  12.512   9.533  0.00  0.00     0.110 C 
BRANCH  15  16
HETATM   16  C   UNK N   1      37.369  13.276  10.851  0.00  0.00     0.085 C 
BRANCH  16  17
HETATM   17  C   UNK N   1      36.121  12.859  11.604  0.00  0.00     0.042 C 
BRANCH  17  18
HETATM   18  C   UNK N   1      35.797  13.827  12.733  0.00  0.00     0.157 C 
BRANCH  18  19
HETATM   19  S   UNK N   1      36.272  13.083  14.318  0.00  0.00     0.094 S 
HETATM   20  O   UNK N   1      35.982  13.929  15.565  0.00  0.00    -0.601 OA
HETATM   21  O   UNK N   1      34.745  13.144  14.185  0.00  0.00    -0.601 OA
BRANCH  19  22
HETATM   22  O   UNK N   1      36.892  14.625  13.885  0.00  0.00    -0.296 OA
HETATM   23  H   UNK N   1      37.819  14.837  13.695  0.00  0.00     0.232 HD
ENDBRANCH  19  22
ENDBRANCH  18  19
ENDBRANCH  17  18
ENDBRANCH  16  17
BRANCH  16  24
HETATM   24  N   UNK N   1      37.297  14.709  10.613  0.00  0.00    -0.425 N 
HETATM   25  H   UNK N   1      37.781  15.295   9.934  0.00  0.00     0.150 HD
HETATM   26  H   UNK N   1      36.657  15.212  11.229  0.00  0.00     0.150 HD
ENDBRANCH  16  24
ENDBRANCH  15  16
ENDBRANCH  14  15
ENDBRANCH   1  14
TORSDOF 15
ENDMDL
MODEL 4
REMARK VINA RESULT:      -5.2     16.977     19.394
REMARK  15 active torsions:
REMARK  status: ('A' for Active; 'I' for Inactive)
REMARK    1  A    between atoms: C_1  and  C_2 
REMARK    2  A    between atoms: C_1  and  C_7 
REMARK    3  A    between atoms: C_2  and  S_3 
REMARK    4  A    between atoms: S_3  and  O_6 
REMARK    5  A    between atoms: C_7  and  C_8 
REMARK    6  A    between atoms: C_7  and  N_20 
REMARK    7  A    between atoms: C_8  and  S_9 
REMARK    8  A    between atoms: S_9  and  S_10 
REMARK    9  A    between atoms: S_10  and  C_11 
REMARK   10  A    between atoms: C_11  and  C_12 
REMARK   11  A    between atoms: C_12  and  C_13 
REMARK   12  A    between atoms: C_12  and  N_19 
REMARK   13  A    between atoms: C_13  and  C_14 
REMARK   14  A    between atoms: C_14  and  S_15 
REMARK   15  A    between atoms: S_15  and  O_18 
ROOT
HETATM    1  S   UNK N   1      27.814  22.276  -7.898  0.00  0.00    -0.096 SA
ENDROOT
BRANCH   1   2
HETATM    2  C   UNK N   1      28.732  22.302  -6.340  0.00  0.00     0.110 C 
BRANCH   2   3
HETATM    3  C   UNK N   1      30.157  21.766  -6.458  0.00  0.00     0.085 C 
BRANCH   3   4
HETATM    4  C   UNK N   1      30.999  22.353  -5.335  0.00  0.00     0.042 C 
BRANCH   4   5
HETATM    5  C   UNK N   1      30.483  21.935  -3.961  0.00  0.00     0.157 C 
BRANCH   5   6
HETATM    6  S   UNK N   1      30.821  23.248  -2.745  0.00  0.00     0.094 S 
HETATM    7  O   UNK N   1      30.307  22.998  -1.321  0.00  0.00    -0.601 OA
HETATM    8  O   UNK N   1      31.681  22.019  -2.416  0.00  0.00    -0.601 OA
BRANCH   6   9
HETATM    9  O   UNK N   1      29.218  22.688  -2.997  0.00  0.00    -0.296 OA
HETATM   10  H   UNK N   1      28.667  22.292  -2.303  0.00  0.00     0.232 HD
ENDBRANCH   6   9
ENDBRANCH   5   6
ENDBRANCH   4   5
ENDBRANCH   3   4
BRANCH   3  11
HETATM   11  N   UNK N   1      30.180  20.317  -6.335  0.00  0.00    -0.425 N 
HETATM   12  H   UNK N   1      30.514  19.626  -7.006  0.00  0.00     0.150 HD
HETATM   13  H   UNK N   1      29.812  19.942  -5.460  0.00  0.00     0.150 HD
ENDBRANCH   3  11
ENDBRANCH   2   3
ENDBRANCH   1   2
BRANCH   1  14
HETATM   14  S   UNK N   1      26.050  22.807  -6.830  0.00  0.00    -0.096 SA
BRANCH  14  15
HETATM   15  C   UNK N   1      27.023  23.885  -5.752  0.00  0.00     0.110 C 
BRANCH  15  16
HETATM   16  C   UNK N   1      26.198  24.416  -4.584  0.00  0.00     0.085 C 
BRANCH  16  17
HETATM   17  C   UNK N   1      25.944  25.896  -4.795  0.00  0.00     0.042 C 
BRANCH  17  18
HETATM   18  C   UNK N   1      26.330  26.711  -3.568  0.00  0.00     0.157 C 
BRANCH  18  19
HETATM   19  S   UNK N   1      26.518  28.453  -4.038  0.00  0.00     0.094 S 
HETATM   20  O   UNK N   1      26.744  29.434  -2.881  0.00  0.00    -0.601 OA
HETATM   21  O   UNK N   1      27.849  27.882  -3.531  0.00  0.00    -0.601 OA
BRANCH  19  22
HETATM   22  O   UNK N   1      25.300  28.004  -2.913  0.00  0.00    -0.296 OA
HETATM   23  H   UNK N   1      25.426  27.848  -1.965  0.00  0.00     0.232 HD
ENDBRANCH  19  22
ENDBRANCH  18  19
ENDBRANCH  17  18
ENDBRANCH  16  17
BRANCH  16  24
HETATM   24  N   UNK N   1      26.915  24.253  -3.330  0.00  0.00    -0.425 N 
HETATM   25  H   UNK N   1      27.356  23.431  -2.918  0.00  0.00     0.150 HD
HETATM   26  H   UNK N   1      26.990  25.102  -2.768  0.00  0.00     0.150 HD
ENDBRANCH  16  24
ENDBRANCH  15  16
ENDBRANCH  14  15
ENDBRANCH   1  14
TORSDOF 15
ENDMDL
MODEL 5
REMARK VINA RESULT:      -5.1      6.108      9.665
REMARK  15 active torsions:
REMARK  status: ('A' for Active; 'I' for Inactive)
REMARK    1  A    between atoms: C_1  and  C_2 
REMARK    2  A    between atoms: C_1  and  C_7 
REMARK    3  A    between atoms: C_2  and  S_3 
REMARK    4  A    between atoms: S_3  and  O_6 
REMARK    5  A    between atoms: C_7  and  C_8 
REMARK    6  A    between atoms: C_7  and  N_20 
REMARK    7  A    between atoms: C_8  and  S_9 
REMARK    8  A    between atoms: S_9  and  S_10 
REMARK    9  A    between atoms: S_10  and  C_11 
REMARK   10  A    between atoms: C_11  and  C_12 
REMARK   11  A    between atoms: C_12  and  C_13 
REMARK   12  A    between atoms: C_12  and  N_19 
REMARK   13  A    between atoms: C_13  and  C_14 
REMARK   14  A    between atoms: C_14  and  S_15 
REMARK   15  A    between atoms: S_15  and  O_18 
ROOT
HETATM    1  S   UNK N   1      32.336  17.455   4.384  0.00  0.00    -0.096 SA
ENDROOT
BRANCH   1   2
HETATM    2  C   UNK N   1      30.609  17.582   4.909  0.00  0.00     0.110 C 
BRANCH   2   3
HETATM    3  C   UNK N   1      29.644  16.774   4.045  0.00  0.00     0.085 C 
BRANCH   3   4
HETATM    4  C   UNK N   1      28.250  17.372   4.172  0.00  0.00     0.042 C 
BRANCH   4   5
HETATM    5  C   UNK N   1      28.300  18.838   4.595  0.00  0.00     0.157 C 
BRANCH   5   6
HETATM    6  S   UNK N   1      26.614  19.448   4.917  0.00  0.00     0.094 S 
HETATM    7  O   UNK N   1      26.501  20.908   5.378  0.00  0.00    -0.601 OA
HETATM    8  O   UNK N   1      27.162  20.119   3.650  0.00  0.00    -0.601 OA
BRANCH   6   9
HETATM    9  O   UNK N   1      27.831  19.577   6.121  0.00  0.00    -0.296 OA
HETATM   10  H   UNK N   1      28.279  18.815   6.523  0.00  0.00     0.232 HD
ENDBRANCH   6   9
ENDBRANCH   5   6
ENDBRANCH   4   5
ENDBRANCH   3   4
BRANCH   3  11
HETATM   11  N   UNK N   1      30.034  16.819   2.645  0.00  0.00    -0.425 N 
HETATM   12  H   UNK N   1      30.958  16.986   2.247  0.00  0.00     0.150 HD
HETATM   13  H   UNK N   1      29.284  16.664   1.972  0.00  0.00     0.150 HD
ENDBRANCH   3  11
ENDBRANCH   2   3
ENDBRANCH   1   2
BRANCH   1  14
HETATM   14  S   UNK N   1      32.628  15.917   5.826  0.00  0.00    -0.096 SA
BRANCH  14  15
HETATM   15  C   UNK N   1      33.349  17.120   6.968  0.00  0.00     0.110 C 
BRANCH  15  16
HETATM   16  C   UNK N   1      32.782  16.977   8.377  0.00  0.00     0.085 C 
BRANCH  16  17
HETATM   17  C   UNK N   1      31.572  17.879   8.514  0.00  0.00     0.042 C 
BRANCH  17  18
HETATM   18  C   UNK N   1      30.286  17.076   8.642  0.00  0.00     0.157 C 
BRANCH  18  19
HETATM   19  S   UNK N   1      28.997  18.116   9.384  0.00  0.00     0.094 S 
HETATM   20  O   UNK N   1      27.614  17.467   9.520  0.00  0.00    -0.601 OA
HETATM   21  O   UNK N   1      29.388  16.977  10.335  0.00  0.00    -0.601 OA
BRANCH  19  22
HETATM   22  O   UNK N   1      28.743  17.429   7.829  0.00  0.00    -0.296 OA
HETATM   23  H   UNK N   1      29.169  17.707   7.004  0.00  0.00     0.232 HD
ENDBRANCH  19  22
ENDBRANCH  18  19
ENDBRANCH  17  18
ENDBRANCH  16  17
BRANCH  16  24
HETATM   24  N   UNK N   1      33.764  17.380   9.371  0.00  0.00    -0.425 N 
HETATM   25  H   UNK N   1      34.641  17.890   9.270  0.00  0.00     0.150 HD
HETATM   26  H   UNK N   1      33.539  17.108  10.328  0.00  0.00     0.150 HD
ENDBRANCH  16  24
ENDBRANCH  15  16
ENDBRANCH  14  15
ENDBRANCH   1  14
TORSDOF 15
ENDMDL
MODEL 6
REMARK VINA RESULT:      -5.1     13.045     14.474
REMARK  15 active torsions:
REMARK  status: ('A' for Active; 'I' for Inactive)
REMARK    1  A    between atoms: C_1  and  C_2 
REMARK    2  A    between atoms: C_1  and  C_7 
REMARK    3  A    between atoms: C_2  and  S_3 
REMARK    4  A    between atoms: S_3  and  O_6 
REMARK    5  A    between atoms: C_7  and  C_8 
REMARK    6  A    between atoms: C_7  and  N_20 
REMARK    7  A    between atoms: C_8  and  S_9 
REMARK    8  A    between atoms: S_9  and  S_10 
REMARK    9  A    between atoms: S_10  and  C_11 
REMARK   10  A    between atoms: C_11  and  C_12 
REMARK   11  A    between atoms: C_12  and  C_13 
REMARK   12  A    between atoms: C_12  and  N_19 
REMARK   13  A    between atoms: C_13  and  C_14 
REMARK   14  A    between atoms: C_14  and  S_15 
REMARK   15  A    between atoms: S_15  and  O_18 
ROOT
HETATM    1  S   UNK N   1      20.041  14.244   5.526  0.00  0.00    -0.096 SA
ENDROOT
BRANCH   1   2
HETATM    2  C   UNK N   1      21.621  13.556   6.077  0.00  0.00     0.110 C 
BRANCH   2   3
HETATM    3  C   UNK N   1      22.020  13.985   7.486  0.00  0.00     0.085 C 
BRANCH   3   4
HETATM    4  C   UNK N   1      21.616  12.894   8.467  0.00  0.00     0.042 C 
BRANCH   4   5
HETATM    5  C   UNK N   1      22.049  13.226   9.893  0.00  0.00     0.157 C 
BRANCH   5   6
HETATM    6  S   UNK N   1      22.767  11.750  10.683  0.00  0.00     0.094 S 
HETATM    7  O   UNK N   1      23.354  11.955  12.086  0.00  0.00    -0.601 OA
HETATM    8  O   UNK N   1      21.469  12.133  11.408  0.00  0.00    -0.601 OA
BRANCH   6   9
HETATM    9  O   UNK N   1      23.693  13.186  10.518  0.00  0.00    -0.296 OA
HETATM   10  H   UNK N   1      24.581  13.304  10.892  0.00  0.00     0.232 HD
ENDBRANCH   6   9
ENDBRANCH   5   6
ENDBRANCH   4   5
ENDBRANCH   3   4
BRANCH   3  11
HETATM   11  N   UNK N   1      23.458  14.178   7.585  0.00  0.00    -0.425 N 
HETATM   12  H   UNK N   1      24.028  14.297   8.422  0.00  0.00     0.150 HD
HETATM   13  H   UNK N   1      23.963  14.197   6.699  0.00  0.00     0.150 HD
ENDBRANCH   3  11
ENDBRANCH   2   3
ENDBRANCH   1   2
BRANCH   1  14
HETATM   14  S   UNK N   1      21.105  15.668   4.355  0.00  0.00    -0.096 SA
BRANCH  14  15
HETATM   15  C   UNK N   1      20.775  16.941   5.596  0.00  0.00     0.110 C 
BRANCH  15  16
HETATM   16  C   UNK N   1      21.549  18.225   5.314  0.00  0.00     0.085 C 
BRANCH  16  17
HETATM   17  C   UNK N   1      21.594  18.452   3.815  0.00  0.00     0.042 C 
BRANCH  17  18
HETATM   18  C   UNK N   1      20.871  19.732   3.421  0.00  0.00     0.157 C 
BRANCH  18  19
HETATM   19  S   UNK N   1      21.380  20.220   1.749  0.00  0.00     0.094 S 
HETATM   20  O   UNK N   1      20.659  21.440   1.163  0.00  0.00    -0.601 OA
HETATM   21  O   UNK N   1      21.844  21.257   2.780  0.00  0.00    -0.601 OA
BRANCH  19  22
HETATM   22  O   UNK N   1      19.727  19.876   2.066  0.00  0.00    -0.296 OA
HETATM   23  H   UNK N   1      19.007  19.878   1.418  0.00  0.00     0.232 HD
ENDBRANCH  19  22
ENDBRANCH  18  19
ENDBRANCH  17  18
ENDBRANCH  16  17
BRANCH  16  24
HETATM   24  N   UNK N   1      22.916  18.120   5.798  0.00  0.00    -0.425 N 
HETATM   25  H   UNK N   1      23.785  18.497   5.421  0.00  0.00     0.150 HD
HETATM   26  H   UNK N   1      23.023  17.580   6.657  0.00  0.00     0.150 HD
ENDBRANCH  16  24
ENDBRANCH  15  16
ENDBRANCH  14  15
ENDBRANCH   1  14
TORSDOF 15
ENDMDL
MODEL 7
REMARK VINA RESULT:      -5.1      3.269      7.408
REMARK  15 active torsions:
REMARK  status: ('A' for Active; 'I' for Inactive)
REMARK    1  A    between atoms: C_1  and  C_2 
REMARK    2  A    between atoms: C_1  and  C_7 
REMARK    3  A    between atoms: C_2  and  S_3 
REMARK    4  A    between atoms: S_3  and  O_6 
REMARK    5  A    between atoms: C_7  and  C_8 
REMARK    6  A    between atoms: C_7  and  N_20 
REMARK    7  A    between atoms: C_8  and  S_9 
REMARK    8  A    between atoms: S_9  and  S_10 
REMARK    9  A    between atoms: S_10  and  C_11 
REMARK   10  A    between atoms: C_11  and  C_12 
REMARK   11  A    between atoms: C_12  and  C_13 
REMARK   12  A    between atoms: C_12  and  N_19 
REMARK   13  A    between atoms: C_13  and  C_14 
REMARK   14  A    between atoms: C_14  and  S_15 
REMARK   15  A    between atoms: S_15  and  O_18 
ROOT
HETATM    1  S   UNK N   1      34.579  17.599   8.665  0.00  0.00    -0.096 SA
ENDROOT
BRANCH   1   2
HETATM    2  C   UNK N   1      33.189  17.841   7.533  0.00  0.00     0.110 C 
BRANCH   2   3
HETATM    3  C   UNK N   1      32.266  16.630   7.427  0.00  0.00     0.085 C 
BRANCH   3   4
HETATM    4  C   UNK N   1      31.357  16.593   8.647  0.00  0.00     0.042 C 
BRANCH   4   5
HETATM    5  C   UNK N   1      30.608  17.909   8.835  0.00  0.00     0.157 C 
BRANCH   5   6
HETATM    6  S   UNK N   1      28.829  17.586   9.054  0.00  0.00     0.094 S 
HETATM    7  O   UNK N   1      27.922  18.821   9.123  0.00  0.00    -0.601 OA
HETATM    8  O   UNK N   1      29.077  18.116   7.635  0.00  0.00    -0.601 OA
BRANCH   6   9
HETATM    9  O   UNK N   1      29.663  18.628  10.134  0.00  0.00    -0.296 OA
HETATM   10  H   UNK N   1      29.360  19.519  10.369  0.00  0.00     0.232 HD
ENDBRANCH   6   9
ENDBRANCH   5   6
ENDBRANCH   4   5
ENDBRANCH   3   4
BRANCH   3  11
HETATM   11  N   UNK N   1      31.432  16.713   6.239  0.00  0.00    -0.425 N 
HETATM   12  H   UNK N   1      31.677  17.060   5.312  0.00  0.00     0.150 HD
HETATM   13  H   UNK N   1      30.474  16.381   6.348  0.00  0.00     0.150 HD
ENDBRANCH   3  11
ENDBRANCH   2   3
ENDBRANCH   1   2
BRANCH   1  14
HETATM   14  S   UNK N   1      34.725  15.581   8.005  0.00  0.00    -0.096 SA
BRANCH  14  15
HETATM   15  C   UNK N   1      35.632  15.150   9.509  0.00  0.00     0.110 C 
BRANCH  15  16
HETATM   16  C   UNK N   1      34.896  15.604  10.766  0.00  0.00     0.085 C 
BRANCH  16  17
HETATM   17  C   UNK N   1      35.738  15.260  11.979  0.00  0.00     0.042 C 
BRANCH  17  18
HETATM   18  C   UNK N   1      35.725  13.765  12.264  0.00  0.00     0.157 C 
BRANCH  18  19
HETATM   19  S   UNK N   1      35.671  13.495  14.058  0.00  0.00     0.094 S 
HETATM   20  O   UNK N   1      35.517  12.036  14.507  0.00  0.00    -0.601 OA
HETATM   21  O   UNK N   1      36.978  12.950  13.467  0.00  0.00    -0.601 OA
BRANCH  19  22
HETATM   22  O   UNK N   1      34.382  12.927  13.074  0.00  0.00    -0.296 OA
HETATM   23  H   UNK N   1      33.438  13.102  13.210  0.00  0.00     0.232 HD
ENDBRANCH  19  22
ENDBRANCH  18  19
ENDBRANCH  17  18
ENDBRANCH  16  17
BRANCH  16  24
HETATM   24  N   UNK N   1      33.619  14.921  10.891  0.00  0.00    -0.425 N 
HETATM   25  H   UNK N   1      33.386  13.931  10.820  0.00  0.00     0.150 HD
HETATM   26  H   UNK N   1      32.825  15.532  11.081  0.00  0.00     0.150 HD
ENDBRANCH  16  24
ENDBRANCH  15  16
ENDBRANCH  14  15
ENDBRANCH   1  14
TORSDOF 15
ENDMDL
MODEL 8
REMARK VINA RESULT:      -5.0      3.428      7.259
REMARK  15 active torsions:
REMARK  status: ('A' for Active; 'I' for Inactive)
REMARK    1  A    between atoms: C_1  and  C_2 
REMARK    2  A    between atoms: C_1  and  C_7 
REMARK    3  A    between atoms: C_2  and  S_3 
REMARK    4  A    between atoms: S_3  and  O_6 
REMARK    5  A    between atoms: C_7  and  C_8 
REMARK    6  A    between atoms: C_7  and  N_20 
REMARK    7  A    between atoms: C_8  and  S_9 
REMARK    8  A    between atoms: S_9  and  S_10 
REMARK    9  A    between atoms: S_10  and  C_11 
REMARK   10  A    between atoms: C_11  and  C_12 
REMARK   11  A    between atoms: C_12  and  C_13 
REMARK   12  A    between atoms: C_12  and  N_19 
REMARK   13  A    between atoms: C_13  and  C_14 
REMARK   14  A    between atoms: C_14  and  S_15 
REMARK   15  A    between atoms: S_15  and  O_18 
ROOT
HETATM    1  S   UNK N   1      33.513  16.727   5.424  0.00  0.00    -0.096 SA
ENDROOT
BRANCH   1   2
HETATM    2  C   UNK N   1      31.763  17.156   5.583  0.00  0.00     0.110 C 
BRANCH   2   3
HETATM    3  C   UNK N   1      30.888  16.000   6.059  0.00  0.00     0.085 C 
BRANCH   3   4
HETATM    4  C   UNK N   1      29.718  16.562   6.855  0.00  0.00     0.042 C 
BRANCH   4   5
HETATM    5  C   UNK N   1      30.137  17.752   7.713  0.00  0.00     0.157 C 
BRANCH   5   6
HETATM    6  S   UNK N   1      29.318  17.665   9.337  0.00  0.00     0.094 S 
HETATM    7  O   UNK N   1      29.608  18.822  10.302  0.00  0.00    -0.601 OA
HETATM    8  O   UNK N   1      28.690  18.798   8.513  0.00  0.00    -0.601 OA
BRANCH   6   9
HETATM    9  O   UNK N   1      31.021  17.850   9.231  0.00  0.00    -0.296 OA
HETATM   10  H   UNK N   1      31.607  17.222   8.779  0.00  0.00     0.232 HD
ENDBRANCH   6   9
ENDBRANCH   5   6
ENDBRANCH   4   5
ENDBRANCH   3   4
BRANCH   3  11
HETATM   11  N   UNK N   1      30.355  15.251   4.933  0.00  0.00    -0.425 N 
HETATM   12  H   UNK N   1      30.863  14.781   4.184  0.00  0.00     0.150 HD
HETATM   13  H   UNK N   1      29.339  15.187   4.885  0.00  0.00     0.150 HD
ENDBRANCH   3  11
ENDBRANCH   2   3
ENDBRANCH   1   2
BRANCH   1  14
HETATM   14  S   UNK N   1      33.332  15.484   7.143  0.00  0.00    -0.096 SA
BRANCH  14  15
HETATM   15  C   UNK N   1      34.600  16.459   7.986  0.00  0.00     0.110 C 
BRANCH  15  16
HETATM   16  C   UNK N   1      34.301  16.616   9.473  0.00  0.00     0.085 C 
BRANCH  16  17
HETATM   17  C   UNK N   1      35.501  16.140  10.269  0.00  0.00     0.042 C 
BRANCH  17  18
HETATM   18  C   UNK N   1      35.330  14.701  10.732  0.00  0.00     0.157 C 
BRANCH  18  19
HETATM   19  S   UNK N   1      35.860  14.558  12.462  0.00  0.00     0.094 S 
HETATM   20  O   UNK N   1      35.733  13.162  13.085  0.00  0.00    -0.601 OA
HETATM   21  O   UNK N   1      36.835  13.821  11.535  0.00  0.00    -0.601 OA
BRANCH  19  22
HETATM   22  O   UNK N   1      34.268  14.087  12.020  0.00  0.00    -0.296 OA
HETATM   23  H   UNK N   1      33.868  13.215  12.164  0.00  0.00     0.232 HD
ENDBRANCH  19  22
ENDBRANCH  18  19
ENDBRANCH  17  18
ENDBRANCH  16  17
BRANCH  16  24
HETATM   24  N   UNK N   1      33.154  15.809   9.857  0.00  0.00    -0.425 N 
HETATM   25  H   UNK N   1      32.159  15.940   9.675  0.00  0.00     0.150 HD
HETATM   26  H   UNK N   1      33.381  14.975  10.398  0.00  0.00     0.150 HD
ENDBRANCH  16  24
ENDBRANCH  15  16
ENDBRANCH  14  15
ENDBRANCH   1  14
TORSDOF 15
ENDMDL
MODEL 9
REMARK VINA RESULT:      -5.0     16.616     19.799
REMARK  15 active torsions:
REMARK  status: ('A' for Active; 'I' for Inactive)
REMARK    1  A    between atoms: C_1  and  C_2 
REMARK    2  A    between atoms: C_1  and  C_7 
REMARK    3  A    between atoms: C_2  and  S_3 
REMARK    4  A    between atoms: S_3  and  O_6 
REMARK    5  A    between atoms: C_7  and  C_8 
REMARK    6  A    between atoms: C_7  and  N_20 
REMARK    7  A    between atoms: C_8  and  S_9 
REMARK    8  A    between atoms: S_9  and  S_10 
REMARK    9  A    between atoms: S_10  and  C_11 
REMARK   10  A    between atoms: C_11  and  C_12 
REMARK   11  A    between atoms: C_12  and  C_13 
REMARK   12  A    between atoms: C_12  and  N_19 
REMARK   13  A    between atoms: C_13  and  C_14 
REMARK   14  A    between atoms: C_14  and  S_15 
REMARK   15  A    between atoms: S_15  and  O_18 
ROOT
HETATM    1  S   UNK N   1      29.418  24.296  -6.463  0.00  0.00    -0.096 SA
ENDROOT
BRANCH   1   2
HETATM    2  C   UNK N   1      28.650  23.343  -5.132  0.00  0.00     0.110 C 
BRANCH   2   3
HETATM    3  C   UNK N   1      28.873  23.937  -3.743  0.00  0.00     0.085 C 
BRANCH   3   4
HETATM    4  C   UNK N   1      29.537  22.891  -2.860  0.00  0.00     0.042 C 
BRANCH   4   5
HETATM    5  C   UNK N   1      31.058  23.023  -2.870  0.00  0.00     0.157 C 
BRANCH   5   6
HETATM    6  S   UNK N   1      31.807  21.520  -3.574  0.00  0.00     0.094 S 
HETATM    7  O   UNK N   1      33.333  21.538  -3.734  0.00  0.00    -0.601 OA
HETATM    8  O   UNK N   1      32.180  21.624  -2.089  0.00  0.00    -0.601 OA
BRANCH   6   9
HETATM    9  O   UNK N   1      32.112  23.055  -4.279  0.00  0.00    -0.296 OA
HETATM   10  H   UNK N   1      31.812  23.896  -3.897  0.00  0.00     0.232 HD
ENDBRANCH   6   9
ENDBRANCH   5   6
ENDBRANCH   4   5
ENDBRANCH   3   4
BRANCH   3  11
HETATM   11  N   UNK N   1      29.745  25.099  -3.808  0.00  0.00    -0.425 N 
HETATM   12  H   UNK N   1      30.149  25.635  -3.040  0.00  0.00     0.150 HD
HETATM   13  H   UNK N   1      29.984  25.421  -4.745  0.00  0.00     0.150 HD
ENDBRANCH   3  11
ENDBRANCH   2   3
ENDBRANCH   1   2
BRANCH   1  14
HETATM   14  S   UNK N   1      27.617  24.121  -7.585  0.00  0.00    -0.096 SA
BRANCH  14  15
HETATM   15  C   UNK N   1      27.065  25.723  -6.954  0.00  0.00     0.110 C 
BRANCH  15  16
HETATM   16  C   UNK N   1      25.586  25.708  -6.581  0.00  0.00     0.085 C 
BRANCH  16  17
HETATM   17  C   UNK N   1      25.223  27.041  -5.955  0.00  0.00     0.042 C 
BRANCH  17  18
HETATM   18  C   UNK N   1      26.381  27.614  -5.149  0.00  0.00     0.157 C 
BRANCH  18  19
HETATM   19  S   UNK N   1      25.856  27.854  -3.429  0.00  0.00     0.094 S 
HETATM   20  O   UNK N   1      26.889  28.510  -2.503  0.00  0.00    -0.601 OA
HETATM   21  O   UNK N   1      25.968  29.202  -4.154  0.00  0.00    -0.601 OA
BRANCH  19  22
HETATM   22  O   UNK N   1      27.288  26.966  -3.764  0.00  0.00    -0.296 OA
HETATM   23  H   UNK N   1      27.359  26.002  -3.840  0.00  0.00     0.232 HD
ENDBRANCH  19  22
ENDBRANCH  18  19
ENDBRANCH  17  18
ENDBRANCH  16  17
BRANCH  16  24
HETATM   24  N   UNK N   1      25.309  24.661  -5.610  0.00  0.00    -0.425 N 
HETATM   25  H   UNK N   1      25.306  23.647  -5.711  0.00  0.00     0.150 HD
HETATM   26  H   UNK N   1      25.080  24.997  -4.675  0.00  0.00     0.150 HD
ENDBRANCH  16  24
ENDBRANCH  15  16
ENDBRANCH  14  15
ENDBRANCH   1  14
TORSDOF 15
ENDMDL
