REMARK  4 active torsions:
REMARK  status: ('A' for Active; 'I' for Inactive)
REMARK    1  A    between atoms: C_4  and  C_8 
REMARK    2  A    between atoms: C_11  and  C_9 
REMARK    3  A    between atoms: C_19  and  O_33 
REMARK    4  A    between atoms: C_24  and  O_29 
ROOT
HETATM    1  C   UNK N   1       5.936  -6.431   0.135  0.00  0.00     0.164 C 
HETATM    2  C   UNK N   1       6.557  -6.015   1.474  0.00  0.00     0.064 C 
HETATM    3  C   UNK N   1       6.999  -4.572   1.456  0.00  0.00    -0.021 C 
HETATM    4  C   UNK N   1       7.938  -4.087   0.633  0.00  0.00    -0.084 C 
HETATM    5  C   UNK N   1       8.673  -4.968  -0.335  0.00  0.00     0.060 C 
HETATM    6  C   UNK N   1      10.142  -4.856  -0.096  0.00  0.00    -0.026 C 
HETATM    7  C   UNK N   1      10.997  -5.868   0.118  0.00  0.00    -0.024 C 
HETATM    8  C   UNK N   1      10.775  -7.364   0.145  0.00  0.00     0.033 C 
HETATM    9  C   UNK N   1       9.339  -7.910   0.009  0.00  0.00     0.136 C 
HETATM   10  C   UNK N   1       9.210  -9.398   0.412  0.00  0.00     0.081 C 
HETATM   11  C   UNK N   1       7.749  -9.773   0.575  0.00  0.00     0.143 C 
HETATM   12  O   UNK N   1       7.124  -9.203   1.455  0.00  0.00    -0.297 OA
HETATM   13  C   UNK N   1       7.047 -10.842  -0.275  0.00  0.00     0.040 C 
HETATM   14  C   UNK N   1       5.514 -10.913  -0.038  0.00  0.00     0.142 C 
HETATM   15  C   UNK N   1       4.606  -9.861  -0.712  0.00  0.00     0.144 C 
HETATM   16  C   UNK N   1       5.164  -8.475  -0.867  0.00  0.00     0.262 C 
HETATM   17  O   UNK N   1       5.371  -8.044  -1.992  0.00  0.00    -0.265 OA
HETATM   18  O   UNK N   1       5.420  -7.709   0.222  0.00  0.00    -0.311 OA
HETATM   19  C   UNK N   1       7.286 -10.608  -1.762  0.00  0.00     0.026 C 
HETATM   20  C   UNK N   1       7.632 -12.201   0.074  0.00  0.00     0.026 C 
HETATM   21  C   UNK N   1       9.986 -10.326  -0.519  0.00  0.00     0.020 C 
HETATM   22  C   UNK N   1      11.730  -7.982  -0.862  0.00  0.00     0.017 C 
HETATM   23  C   UNK N   1       8.220  -2.620   0.654  0.00  0.00     0.043 C 
ENDROOT
BRANCH   1  24
HETATM   24  C   UNK N   1       4.892  -5.448  -0.318  0.00  0.00    -0.052 C 
HETATM   25  C   UNK N   1       3.752  -5.316   0.383  0.00  0.00     0.036 C 
HETATM   26  C   UNK N   1       5.196  -4.606  -1.517  0.00  0.00     0.046 C 
BRANCH  25  27
HETATM   27  C   UNK N   1       2.738  -4.274   0.151  0.00  0.00     0.057 A 
HETATM   28  C   UNK N   1       2.951  -3.022  -0.395  0.00  0.00     0.066 A 
HETATM   29  C   UNK N   1       1.719  -2.418  -0.286  0.00  0.00     0.074 A 
HETATM   30  C   UNK N   1       1.392  -1.027  -0.692  0.00  0.00     0.079 C 
HETATM   31  O   UNK N   1       0.877  -3.252   0.277  0.00  0.00    -0.242 OA
HETATM   32  N   UNK N   1       1.460  -4.375   0.562  0.00  0.00    -0.261 N 
ATOM     33  HN  UNK N   1       1.031  -5.184   1.012  1.00  0.00     0.195 HD
ENDBRANCH  25  27
ENDBRANCH   1  24
BRANCH  14  34
HETATM   34  O   UNK N   1       5.182 -11.085   1.309  0.00  0.00    -0.394 OA
HETATM   35  H   UNK N   1       4.964 -10.945   2.244  0.00  0.00     0.210 HD
ENDBRANCH  14  34
BRANCH   9  36
HETATM   36  O   UNK N   1       8.835  -7.701  -1.280  0.00  0.00    -0.394 OA
HETATM   37  H   UNK N   1       8.785  -7.326  -2.173  0.00  0.00     0.210 HD
ENDBRANCH   9  36
TORSDOF 4
