MODEL 1
REMARK VINA RESULT:      -5.6      0.000      0.000
REMARK  28 active torsions:
REMARK  status: ('A' for Active; 'I' for Inactive)
REMARK    1  A    between atoms: C_2  and  C_4 
REMARK    2  A    between atoms: C_4  and  C_5 
REMARK    3  A    between atoms: C_5  and  C_6 
REMARK    4  A    between atoms: C_5  and  N_9 
REMARK    5  A    between atoms: C_6  and  O_8 
REMARK       I    between atoms: N_9  and  C_10 
REMARK    6  A    between atoms: C_10  and  C_12 
REMARK    7  A    between atoms: C_12  and  C_13 
REMARK    8  A    between atoms: C_12  and  N_18 
REMARK    9  A    between atoms: C_13  and  C_14 
REMARK   10  A    between atoms: C_14  and  C_15 
REMARK   11  A    between atoms: C_15  and  O_17 
REMARK       I    between atoms: N_18  and  C_19 
REMARK   12  A    between atoms: C_19  and  C_21 
REMARK   13  A    between atoms: C_21  and  C_22 
REMARK   14  A    between atoms: C_21  and  N_24 
REMARK   15  A    between atoms: C_22  and  S_23 
REMARK       I    between atoms: N_24  and  C_25 
REMARK   16  A    between atoms: C_25  and  C_27 
REMARK   17  A    between atoms: C_27  and  N_28 
REMARK       I    between atoms: N_28  and  C_29 
REMARK   18  A    between atoms: C_29  and  C_31 
REMARK   19  A    between atoms: C_31  and  C_32 
REMARK   20  A    between atoms: C_31  and  N_36 
REMARK   21  A    between atoms: C_32  and  C_33 
REMARK   22  A    between atoms: C_33  and  O_35 
REMARK       I    between atoms: N_36  and  C_37 
REMARK   23  A    between atoms: C_37  and  C_39 
REMARK   24  A    between atoms: C_39  and  C_40 
REMARK   25  A    between atoms: C_39  and  N_44 
REMARK   26  A    between atoms: C_40  and  C_41 
REMARK   27  A    between atoms: C_41  and  S_42 
REMARK   28  A    between atoms: N_44  and  C_45 
ROOT
HETATM    1  C   UNK N   1      20.722  15.405   2.101  0.00  0.00     0.185 C 
ENDROOT
BRANCH   1   2
HETATM    2  C   UNK N   1      19.896  15.750   3.330  0.00  0.00     0.241 C 
HETATM    3  N   UNK N   1      19.936  16.987   3.890  0.00  0.00    -0.346 N 
HETATM    4  H   UNK N   1      19.326  17.170   4.640  0.00  0.00     0.163 HD
HETATM    5  O   UNK N   1      19.157  14.907   3.815  0.00  0.00    -0.271 OA
BRANCH   3   6
HETATM    6  C   UNK N   1      20.816  18.055   3.458  0.00  0.00     0.177 C 
BRANCH   6   7
HETATM    7  C   UNK N   1      21.488  18.743   4.623  0.00  0.00     0.241 C 
HETATM    8  N   UNK N   1      22.766  18.441   4.954  0.00  0.00    -0.345 N 
HETATM    9  H   UNK N   1      23.184  18.893   5.722  0.00  0.00     0.163 HD
HETATM   10  O   UNK N   1      20.899  19.614   5.243  0.00  0.00    -0.271 OA
BRANCH   8  11
HETATM   11  C   UNK N   1      23.529  17.472   4.207  0.00  0.00     0.182 C 
BRANCH  11  12
HETATM   12  C   UNK N   1      24.875  18.079   3.838  0.00  0.00     0.040 C 
BRANCH  12  13
HETATM   13  C   UNK N   1      24.893  19.578   4.077  0.00  0.00    -0.020 C 
HETATM   14  C   UNK N   1      26.096  19.931   4.925  0.00  0.00     0.009 C 
HETATM   15  C   UNK N   1      24.983  20.316   2.756  0.00  0.00     0.009 C 
ENDBRANCH  12  13
ENDBRANCH  11  12
BRANCH  11  16
HETATM   16  C   UNK N   1      23.669  16.203   4.990  0.00  0.00     0.163 C 
HETATM   17  O   UNK N   1      23.050  15.209   4.649  0.00  0.00    -0.648 OA
BRANCH  16  18
HETATM   18  O   UNK N   1      24.477  16.154   6.068  0.00  0.00    -0.775 OA
HETATM   19  H   UNK N   1      25.162  16.730   6.343  0.00  0.00     0.167 HD
ENDBRANCH  16  18
ENDBRANCH  11  16
ENDBRANCH   8  11
ENDBRANCH   6   7
BRANCH   6  20
HETATM   20  C   UNK N   1      20.131  18.988   2.465  0.00  0.00     0.045 C 
BRANCH  20  21
HETATM   21  C   UNK N   1      20.955  20.260   2.330  0.00  0.00     0.112 C 
BRANCH  21  22
HETATM   22  C   UNK N   1      20.760  20.881   0.990  0.00  0.00     0.139 C 
HETATM   23  O   UNK N   1      20.833  20.192  -0.014  0.00  0.00    -0.650 OA
BRANCH  22  24
HETATM   24  O   UNK N   1      20.482  22.194   0.886  0.00  0.00    -0.776 OA
HETATM   25  H   UNK N   1      21.107  22.814   0.567  0.00  0.00     0.167 HD
ENDBRANCH  22  24
ENDBRANCH  21  22
ENDBRANCH  20  21
ENDBRANCH   6  20
ENDBRANCH   3   6
ENDBRANCH   1   2
BRANCH   1  26
HETATM   26  C   UNK N   1      19.901  15.406   0.809  0.00  0.00     0.105 C 
BRANCH  26  27
HETATM   27  S   UNK N   1      18.961  13.863   0.602  0.00  0.00    -0.180 SA
HETATM   28  H   UNK N   1      17.660  13.799   0.995  0.00  0.00     0.101 HD
ENDBRANCH  26  27
ENDBRANCH   1  26
BRANCH   1  29
HETATM   29  N   UNK N   1      21.466  14.164   2.238  0.00  0.00    -0.346 N 
HETATM   30  C   UNK N   1      22.565  13.864   1.504  0.00  0.00     0.236 C 
HETATM   31  O   UNK N   1      22.956  14.628   0.632  0.00  0.00    -0.272 OA
HETATM   32  H   UNK N   1      21.156  13.505   2.901  0.00  0.00     0.163 HD
BRANCH  30  33
HETATM   33  C   UNK N   1      23.374  12.634   1.805  0.00  0.00     0.225 C 
BRANCH  33  34
HETATM   34  N   UNK N   1      23.978  12.853   3.097  0.00  0.00    -0.351 N 
HETATM   35  C   UNK N   1      25.309  13.044   3.230  0.00  0.00     0.241 C 
HETATM   36  O   UNK N   1      25.998  13.304   2.250  0.00  0.00    -0.271 OA
HETATM   37  H   UNK N   1      23.407  12.863   3.899  0.00  0.00     0.163 HD
BRANCH  35  38
HETATM   38  C   UNK N   1      25.950  12.749   4.561  0.00  0.00     0.186 C 
BRANCH  38  39
HETATM   39  C   UNK N   1      27.403  13.205   4.670  0.00  0.00     0.144 C 
BRANCH  39  40
HETATM   40  C   UNK N   1      27.438  14.697   4.872  0.00  0.00     0.141 C 
HETATM   41  O   UNK N   1      27.310  15.170   5.991  0.00  0.00    -0.650 OA
BRANCH  40  42
HETATM   42  O   UNK N   1      27.670  15.510   3.825  0.00  0.00    -0.776 OA
HETATM   43  H   UNK N   1      28.222  15.808   3.130  0.00  0.00     0.167 HD
ENDBRANCH  40  42
ENDBRANCH  39  40
ENDBRANCH  38  39
BRANCH  38  44
HETATM   44  N   UNK N   1      25.105  13.164   5.659  0.00  0.00    -0.346 N 
HETATM   45  C   UNK N   1      24.225  12.344   6.277  0.00  0.00     0.241 C 
HETATM   46  O   UNK N   1      24.012  11.217   5.852  0.00  0.00    -0.271 OA
HETATM   47  H   UNK N   1      25.173  14.095   5.972  0.00  0.00     0.163 HD
BRANCH  45  48
HETATM   48  C   UNK N   1      23.687  12.758   7.616  0.00  0.00     0.176 C 
BRANCH  48  49
HETATM   49  C   UNK N   1      24.783  13.240   8.547  0.00  0.00     0.045 C 
BRANCH  49  50
HETATM   50  C   UNK N   1      24.413  12.994   9.995  0.00  0.00     0.076 C 
BRANCH  50  51
HETATM   51  S   UNK N   1      23.302  11.559  10.086  0.00  0.00    -0.173 SA
HETATM   52  C   UNK N   1      22.720  11.997  11.750  0.00  0.00     0.089 C 
ENDBRANCH  50  51
ENDBRANCH  49  50
ENDBRANCH  48  49
BRANCH  48  53
HETATM   53  N   UNK N   1      22.717  13.807   7.425  0.00  0.00    -0.355 N 
HETATM   54  H   UNK N   1      23.010  14.745   7.384  0.00  0.00     0.162 HD
BRANCH  53  55
HETATM   55  C   UNK N   1      21.405  13.505   7.300  0.00  0.00     0.349 C 
HETATM   56  O   UNK N   1      20.700  13.408   8.290  0.00  0.00    -0.284 OA
ENDBRANCH  53  55
ENDBRANCH  48  53
ENDBRANCH  45  48
ENDBRANCH  38  44
ENDBRANCH  35  38
ENDBRANCH  33  34
ENDBRANCH  30  33
ENDBRANCH   1  29
TORSDOF 28
ENDMDL
MODEL 2
REMARK VINA RESULT:      -5.6      8.762     11.365
REMARK  28 active torsions:
REMARK  status: ('A' for Active; 'I' for Inactive)
REMARK    1  A    between atoms: C_2  and  C_4 
REMARK    2  A    between atoms: C_4  and  C_5 
REMARK    3  A    between atoms: C_5  and  C_6 
REMARK    4  A    between atoms: C_5  and  N_9 
REMARK    5  A    between atoms: C_6  and  O_8 
REMARK       I    between atoms: N_9  and  C_10 
REMARK    6  A    between atoms: C_10  and  C_12 
REMARK    7  A    between atoms: C_12  and  C_13 
REMARK    8  A    between atoms: C_12  and  N_18 
REMARK    9  A    between atoms: C_13  and  C_14 
REMARK   10  A    between atoms: C_14  and  C_15 
REMARK   11  A    between atoms: C_15  and  O_17 
REMARK       I    between atoms: N_18  and  C_19 
REMARK   12  A    between atoms: C_19  and  C_21 
REMARK   13  A    between atoms: C_21  and  C_22 
REMARK   14  A    between atoms: C_21  and  N_24 
REMARK   15  A    between atoms: C_22  and  S_23 
REMARK       I    between atoms: N_24  and  C_25 
REMARK   16  A    between atoms: C_25  and  C_27 
REMARK   17  A    between atoms: C_27  and  N_28 
REMARK       I    between atoms: N_28  and  C_29 
REMARK   18  A    between atoms: C_29  and  C_31 
REMARK   19  A    between atoms: C_31  and  C_32 
REMARK   20  A    between atoms: C_31  and  N_36 
REMARK   21  A    between atoms: C_32  and  C_33 
REMARK   22  A    between atoms: C_33  and  O_35 
REMARK       I    between atoms: N_36  and  C_37 
REMARK   23  A    between atoms: C_37  and  C_39 
REMARK   24  A    between atoms: C_39  and  C_40 
REMARK   25  A    between atoms: C_39  and  N_44 
REMARK   26  A    between atoms: C_40  and  C_41 
REMARK   27  A    between atoms: C_41  and  S_42 
REMARK   28  A    between atoms: N_44  and  C_45 
ROOT
HETATM    1  C   UNK N   1      31.504  16.443   5.690  0.00  0.00     0.185 C 
ENDROOT
BRANCH   1   2
HETATM    2  C   UNK N   1      30.613  15.215   5.787  0.00  0.00     0.241 C 
HETATM    3  N   UNK N   1      29.309  15.250   5.406  0.00  0.00    -0.346 N 
HETATM    4  H   UNK N   1      28.803  14.406   5.426  0.00  0.00     0.163 HD
HETATM    5  O   UNK N   1      31.080  14.162   6.193  0.00  0.00    -0.271 OA
BRANCH   3   6
HETATM    6  C   UNK N   1      28.613  16.445   4.972  0.00  0.00     0.177 C 
BRANCH   6   7
HETATM    7  C   UNK N   1      27.259  16.584   5.628  0.00  0.00     0.241 C 
HETATM    8  N   UNK N   1      27.089  17.420   6.681  0.00  0.00    -0.345 N 
HETATM    9  H   UNK N   1      26.202  17.490   7.101  0.00  0.00     0.163 HD
HETATM   10  O   UNK N   1      26.297  15.980   5.183  0.00  0.00    -0.271 OA
BRANCH   8  11
HETATM   11  C   UNK N   1      28.178  18.210   7.199  0.00  0.00     0.182 C 
BRANCH  11  12
HETATM   12  C   UNK N   1      27.799  19.683   7.130  0.00  0.00     0.040 C 
BRANCH  12  13
HETATM   13  C   UNK N   1      27.082  20.012   5.833  0.00  0.00    -0.020 C 
HETATM   14  C   UNK N   1      26.367  21.337   5.983  0.00  0.00     0.009 C 
HETATM   15  C   UNK N   1      28.081  20.112   4.697  0.00  0.00     0.009 C 
ENDBRANCH  12  13
ENDBRANCH  11  12
BRANCH  11  16
HETATM   16  C   UNK N   1      28.525  17.773   8.588  0.00  0.00     0.163 C 
HETATM   17  O   UNK N   1      29.568  17.176   8.793  0.00  0.00    -0.648 OA
BRANCH  16  18
HETATM   18  O   UNK N   1      27.690  18.037   9.614  0.00  0.00    -0.775 OA
HETATM   19  H   UNK N   1      27.358  17.479  10.288  0.00  0.00     0.167 HD
ENDBRANCH  16  18
ENDBRANCH  11  16
ENDBRANCH   8  11
ENDBRANCH   6   7
BRANCH   6  20
HETATM   20  C   UNK N   1      28.611  16.581   3.453  0.00  0.00     0.045 C 
BRANCH  20  21
HETATM   21  C   UNK N   1      28.666  15.193   2.831  0.00  0.00     0.112 C 
BRANCH  21  22
HETATM   22  C   UNK N   1      27.306  14.733   2.433  0.00  0.00     0.139 C 
HETATM   23  O   UNK N   1      26.725  15.284   1.512  0.00  0.00    -0.650 OA
BRANCH  22  24
HETATM   24  O   UNK N   1      26.728  13.698   3.069  0.00  0.00    -0.776 OA
HETATM   25  H   UNK N   1      26.524  12.894   2.634  0.00  0.00     0.167 HD
ENDBRANCH  22  24
ENDBRANCH  21  22
ENDBRANCH  20  21
ENDBRANCH   6  20
ENDBRANCH   3   6
ENDBRANCH   1   2
BRANCH   1  26
HETATM   26  C   UNK N   1      32.704  16.238   4.762  0.00  0.00     0.105 C 
BRANCH  26  27
HETATM   27  S   UNK N   1      32.354  16.801   3.068  0.00  0.00    -0.180 SA
HETATM   28  H   UNK N   1      32.810  16.086   2.004  0.00  0.00     0.101 HD
ENDBRANCH  26  27
ENDBRANCH   1  26
BRANCH   1  29
HETATM   29  N   UNK N   1      31.932  16.947   6.984  0.00  0.00    -0.346 N 
HETATM   30  C   UNK N   1      33.053  16.524   7.620  0.00  0.00     0.236 C 
HETATM   31  O   UNK N   1      33.741  15.635   7.137  0.00  0.00    -0.272 OA
HETATM   32  H   UNK N   1      31.379  17.632   7.424  0.00  0.00     0.163 HD
BRANCH  30  33
HETATM   33  C   UNK N   1      33.516  17.197   8.880  0.00  0.00     0.225 C 
BRANCH  33  34
HETATM   34  N   UNK N   1      33.732  16.145   9.844  0.00  0.00    -0.351 N 
HETATM   35  C   UNK N   1      34.924  15.989  10.462  0.00  0.00     0.241 C 
HETATM   36  O   UNK N   1      35.761  16.883  10.427  0.00  0.00    -0.271 OA
HETATM   37  H   UNK N   1      32.995  15.529  10.057  0.00  0.00     0.163 HD
BRANCH  35  38
HETATM   38  C   UNK N   1      35.270  14.635  11.028  0.00  0.00     0.186 C 
BRANCH  38  39
HETATM   39  C   UNK N   1      36.106  13.763  10.094  0.00  0.00     0.144 C 
BRANCH  39  40
HETATM   40  C   UNK N   1      37.556  13.865  10.490  0.00  0.00     0.141 C 
HETATM   41  O   UNK N   1      38.104  12.935  11.063  0.00  0.00    -0.650 OA
BRANCH  40  42
HETATM   42  O   UNK N   1      38.266  14.959  10.160  0.00  0.00    -0.776 OA
HETATM   43  H   UNK N   1      38.435  15.681   9.588  0.00  0.00     0.167 HD
ENDBRANCH  40  42
ENDBRANCH  39  40
ENDBRANCH  38  39
BRANCH  38  44
HETATM   44  N   UNK N   1      35.785  14.741  12.375  0.00  0.00    -0.346 N 
HETATM   45  C   UNK N   1      35.449  13.894  13.374  0.00  0.00     0.241 C 
HETATM   46  O   UNK N   1      34.582  13.047  13.212  0.00  0.00    -0.271 OA
HETATM   47  H   UNK N   1      36.415  15.472  12.576  0.00  0.00     0.163 HD
BRANCH  45  48
HETATM   48  C   UNK N   1      36.311  13.864  14.602  0.00  0.00     0.176 C 
BRANCH  48  49
HETATM   49  C   UNK N   1      37.085  12.565  14.725  0.00  0.00     0.045 C 
BRANCH  49  50
HETATM   50  C   UNK N   1      36.485  11.674  15.792  0.00  0.00     0.076 C 
BRANCH  50  51
HETATM   51  S   UNK N   1      36.949   9.950  15.453  0.00  0.00    -0.173 SA
HETATM   52  C   UNK N   1      37.876  10.397  13.956  0.00  0.00     0.089 C 
ENDBRANCH  50  51
ENDBRANCH  49  50
ENDBRANCH  48  49
BRANCH  48  53
HETATM   53  N   UNK N   1      37.230  14.974  14.554  0.00  0.00    -0.355 N 
HETATM   54  H   UNK N   1      37.764  15.134  13.743  0.00  0.00     0.162 HD
BRANCH  53  55
HETATM   55  C   UNK N   1      37.358  15.796  15.619  0.00  0.00     0.349 C 
HETATM   56  O   UNK N   1      37.517  15.335  16.735  0.00  0.00    -0.284 OA
ENDBRANCH  53  55
ENDBRANCH  48  53
ENDBRANCH  45  48
ENDBRANCH  38  44
ENDBRANCH  35  38
ENDBRANCH  33  34
ENDBRANCH  30  33
ENDBRANCH   1  29
TORSDOF 28
ENDMDL
MODEL 3
REMARK VINA RESULT:      -5.5      2.802      7.159
REMARK  28 active torsions:
REMARK  status: ('A' for Active; 'I' for Inactive)
REMARK    1  A    between atoms: C_2  and  C_4 
REMARK    2  A    between atoms: C_4  and  C_5 
REMARK    3  A    between atoms: C_5  and  C_6 
REMARK    4  A    between atoms: C_5  and  N_9 
REMARK    5  A    between atoms: C_6  and  O_8 
REMARK       I    between atoms: N_9  and  C_10 
REMARK    6  A    between atoms: C_10  and  C_12 
REMARK    7  A    between atoms: C_12  and  C_13 
REMARK    8  A    between atoms: C_12  and  N_18 
REMARK    9  A    between atoms: C_13  and  C_14 
REMARK   10  A    between atoms: C_14  and  C_15 
REMARK   11  A    between atoms: C_15  and  O_17 
REMARK       I    between atoms: N_18  and  C_19 
REMARK   12  A    between atoms: C_19  and  C_21 
REMARK   13  A    between atoms: C_21  and  C_22 
REMARK   14  A    between atoms: C_21  and  N_24 
REMARK   15  A    between atoms: C_22  and  S_23 
REMARK       I    between atoms: N_24  and  C_25 
REMARK   16  A    between atoms: C_25  and  C_27 
REMARK   17  A    between atoms: C_27  and  N_28 
REMARK       I    between atoms: N_28  and  C_29 
REMARK   18  A    between atoms: C_29  and  C_31 
REMARK   19  A    between atoms: C_31  and  C_32 
REMARK   20  A    between atoms: C_31  and  N_36 
REMARK   21  A    between atoms: C_32  and  C_33 
REMARK   22  A    between atoms: C_33  and  O_35 
REMARK       I    between atoms: N_36  and  C_37 
REMARK   23  A    between atoms: C_37  and  C_39 
REMARK   24  A    between atoms: C_39  and  C_40 
REMARK   25  A    between atoms: C_39  and  N_44 
REMARK   26  A    between atoms: C_40  and  C_41 
REMARK   27  A    between atoms: C_41  and  S_42 
REMARK   28  A    between atoms: N_44  and  C_45 
ROOT
HETATM    1  C   UNK N   1      25.623  15.320   5.337  0.00  0.00     0.185 C 
ENDROOT
BRANCH   1   2
HETATM    2  C   UNK N   1      27.085  14.928   5.474  0.00  0.00     0.241 C 
HETATM    3  N   UNK N   1      28.049  15.851   5.728  0.00  0.00    -0.346 N 
HETATM    4  H   UNK N   1      28.966  15.527   5.877  0.00  0.00     0.163 HD
HETATM    5  O   UNK N   1      27.405  13.753   5.381  0.00  0.00    -0.271 OA
BRANCH   3   6
HETATM    6  C   UNK N   1      27.818  17.281   5.794  0.00  0.00     0.177 C 
BRANCH   6   7
HETATM    7  C   UNK N   1      27.706  17.903   4.422  0.00  0.00     0.241 C 
HETATM    8  N   UNK N   1      26.703  18.768   4.140  0.00  0.00    -0.345 N 
HETATM    9  H   UNK N   1      26.640  19.155   3.238  0.00  0.00     0.163 HD
HETATM   10  O   UNK N   1      28.548  17.666   3.571  0.00  0.00    -0.271 OA
BRANCH   8  11
HETATM   11  C   UNK N   1      25.723  19.135   5.133  0.00  0.00     0.182 C 
BRANCH  11  12
HETATM   12  C   UNK N   1      25.825  20.631   5.400  0.00  0.00     0.040 C 
BRANCH  12  13
HETATM   13  C   UNK N   1      26.644  20.918   6.646  0.00  0.00    -0.020 C 
HETATM   14  C   UNK N   1      27.860  21.734   6.263  0.00  0.00     0.009 C 
HETATM   15  C   UNK N   1      25.815  21.701   7.645  0.00  0.00     0.009 C 
ENDBRANCH  12  13
ENDBRANCH  11  12
BRANCH  11  16
HETATM   16  C   UNK N   1      24.353  18.725   4.692  0.00  0.00     0.163 C 
HETATM   17  O   UNK N   1      24.049  18.800   3.513  0.00  0.00    -0.648 OA
BRANCH  16  18
HETATM   18  O   UNK N   1      23.455  18.273   5.589  0.00  0.00    -0.775 OA
HETATM   19  H   UNK N   1      23.468  17.511   6.134  0.00  0.00     0.167 HD
ENDBRANCH  16  18
ENDBRANCH  11  16
ENDBRANCH   8  11
ENDBRANCH   6   7
BRANCH   6  20
HETATM   20  C   UNK N   1      28.798  17.971   6.738  0.00  0.00     0.045 C 
BRANCH  20  21
HETATM   21  C   UNK N   1      28.998  17.100   7.969  0.00  0.00     0.112 C 
BRANCH  21  22
HETATM   22  C   UNK N   1      28.090  17.520   9.072  0.00  0.00     0.139 C 
HETATM   23  O   UNK N   1      27.853  16.751   9.988  0.00  0.00    -0.650 OA
BRANCH  22  24
HETATM   24  O   UNK N   1      27.549  18.753   9.072  0.00  0.00    -0.776 OA
HETATM   25  H   UNK N   1      27.861  19.436   9.633  0.00  0.00     0.167 HD
ENDBRANCH  22  24
ENDBRANCH  21  22
ENDBRANCH  20  21
ENDBRANCH   6  20
ENDBRANCH   3   6
ENDBRANCH   1   2
BRANCH   1  26
HETATM   26  C   UNK N   1      24.831  15.140   6.633  0.00  0.00     0.105 C 
BRANCH  26  27
HETATM   27  S   UNK N   1      24.437  13.392   6.949  0.00  0.00    -0.180 SA
HETATM   28  H   UNK N   1      23.373  13.063   7.731  0.00  0.00     0.101 HD
ENDBRANCH  26  27
ENDBRANCH   1  26
BRANCH   1  29
HETATM   29  N   UNK N   1      24.953  14.661   4.227  0.00  0.00    -0.346 N 
HETATM   30  C   UNK N   1      25.005  15.109   2.948  0.00  0.00     0.236 C 
HETATM   31  O   UNK N   1      25.592  16.148   2.678  0.00  0.00    -0.272 OA
HETATM   32  H   UNK N   1      24.435  13.846   4.413  0.00  0.00     0.163 HD
BRANCH  30  33
HETATM   33  C   UNK N   1      24.419  14.296   1.829  0.00  0.00     0.225 C 
BRANCH  33  34
HETATM   34  N   UNK N   1      22.988  14.330   2.010  0.00  0.00    -0.351 N 
HETATM   35  C   UNK N   1      22.141  14.082   0.987  0.00  0.00     0.241 C 
HETATM   36  O   UNK N   1      22.553  13.565  -0.045  0.00  0.00    -0.271 OA
HETATM   37  H   UNK N   1      22.621  14.537   2.900  0.00  0.00     0.163 HD
BRANCH  35  38
HETATM   38  C   UNK N   1      20.737  14.622   1.067  0.00  0.00     0.186 C 
BRANCH  38  39
HETATM   39  C   UNK N   1      19.650  13.555   0.958  0.00  0.00     0.144 C 
BRANCH  39  40
HETATM   40  C   UNK N   1      18.405  14.176   0.380  0.00  0.00     0.141 C 
HETATM   41  O   UNK N   1      17.338  13.586   0.441  0.00  0.00    -0.650 OA
BRANCH  40  42
HETATM   42  O   UNK N   1      18.457  15.411  -0.153  0.00  0.00    -0.776 OA
HETATM   43  H   UNK N   1      18.834  16.028  -0.748  0.00  0.00     0.167 HD
ENDBRANCH  40  42
ENDBRANCH  39  40
ENDBRANCH  38  39
BRANCH  38  44
HETATM   44  N   UNK N   1      20.581  15.528   2.183  0.00  0.00    -0.346 N 
HETATM   45  C   UNK N   1      20.322  16.848   2.046  0.00  0.00     0.241 C 
HETATM   46  O   UNK N   1      20.323  17.376   0.942  0.00  0.00    -0.271 OA
HETATM   47  H   UNK N   1      20.670  15.163   3.094  0.00  0.00     0.163 HD
BRANCH  45  48
HETATM   48  C   UNK N   1      19.816  17.602   3.240  0.00  0.00     0.176 C 
BRANCH  48  49
HETATM   49  C   UNK N   1      19.469  16.678   4.393  0.00  0.00     0.045 C 
BRANCH  49  50
HETATM   50  C   UNK N   1      20.459  16.833   5.529  0.00  0.00     0.076 C 
BRANCH  50  51
HETATM   51  S   UNK N   1      21.167  15.206   5.921  0.00  0.00    -0.173 SA
HETATM   52  C   UNK N   1      21.224  15.557   7.703  0.00  0.00     0.089 C 
ENDBRANCH  50  51
ENDBRANCH  49  50
ENDBRANCH  48  49
BRANCH  48  53
HETATM   53  N   UNK N   1      20.824  18.544   3.660  0.00  0.00    -0.355 N 
HETATM   54  H   UNK N   1      21.675  18.218   4.032  0.00  0.00     0.162 HD
BRANCH  53  55
HETATM   55  C   UNK N   1      20.604  19.872   3.542  0.00  0.00     0.349 C 
HETATM   56  O   UNK N   1      21.522  20.624   3.263  0.00  0.00    -0.284 OA
ENDBRANCH  53  55
ENDBRANCH  48  53
ENDBRANCH  45  48
ENDBRANCH  38  44
ENDBRANCH  35  38
ENDBRANCH  33  34
ENDBRANCH  30  33
ENDBRANCH   1  29
TORSDOF 28
ENDMDL
MODEL 4
REMARK VINA RESULT:      -5.4      2.763      5.795
REMARK  28 active torsions:
REMARK  status: ('A' for Active; 'I' for Inactive)
REMARK    1  A    between atoms: C_2  and  C_4 
REMARK    2  A    between atoms: C_4  and  C_5 
REMARK    3  A    between atoms: C_5  and  C_6 
REMARK    4  A    between atoms: C_5  and  N_9 
REMARK    5  A    between atoms: C_6  and  O_8 
REMARK       I    between atoms: N_9  and  C_10 
REMARK    6  A    between atoms: C_10  and  C_12 
REMARK    7  A    between atoms: C_12  and  C_13 
REMARK    8  A    between atoms: C_12  and  N_18 
REMARK    9  A    between atoms: C_13  and  C_14 
REMARK   10  A    between atoms: C_14  and  C_15 
REMARK   11  A    between atoms: C_15  and  O_17 
REMARK       I    between atoms: N_18  and  C_19 
REMARK   12  A    between atoms: C_19  and  C_21 
REMARK   13  A    between atoms: C_21  and  C_22 
REMARK   14  A    between atoms: C_21  and  N_24 
REMARK   15  A    between atoms: C_22  and  S_23 
REMARK       I    between atoms: N_24  and  C_25 
REMARK   16  A    between atoms: C_25  and  C_27 
REMARK   17  A    between atoms: C_27  and  N_28 
REMARK       I    between atoms: N_28  and  C_29 
REMARK   18  A    between atoms: C_29  and  C_31 
REMARK   19  A    between atoms: C_31  and  C_32 
REMARK   20  A    between atoms: C_31  and  N_36 
REMARK   21  A    between atoms: C_32  and  C_33 
REMARK   22  A    between atoms: C_33  and  O_35 
REMARK       I    between atoms: N_36  and  C_37 
REMARK   23  A    between atoms: C_37  and  C_39 
REMARK   24  A    between atoms: C_39  and  C_40 
REMARK   25  A    between atoms: C_39  and  N_44 
REMARK   26  A    between atoms: C_40  and  C_41 
REMARK   27  A    between atoms: C_41  and  S_42 
REMARK   28  A    between atoms: N_44  and  C_45 
ROOT
HETATM    1  C   UNK N   1      20.674  16.535   6.700  0.00  0.00     0.185 C 
ENDROOT
BRANCH   1   2
HETATM    2  C   UNK N   1      21.140  17.855   6.107  0.00  0.00     0.241 C 
HETATM    3  N   UNK N   1      21.052  18.107   4.775  0.00  0.00    -0.346 N 
HETATM    4  H   UNK N   1      21.304  19.006   4.461  0.00  0.00     0.163 HD
HETATM    5  O   UNK N   1      21.581  18.724   6.843  0.00  0.00    -0.271 OA
BRANCH   3   6
HETATM    6  C   UNK N   1      20.613  17.144   3.785  0.00  0.00     0.177 C 
BRANCH   6   7
HETATM    7  C   UNK N   1      21.703  16.160   3.426  0.00  0.00     0.241 C 
HETATM    8  N   UNK N   1      21.396  14.982   2.834  0.00  0.00    -0.345 N 
HETATM    9  H   UNK N   1      22.119  14.350   2.616  0.00  0.00     0.163 HD
HETATM   10  O   UNK N   1      22.873  16.444   3.624  0.00  0.00    -0.271 OA
BRANCH   8  11
HETATM   11  C   UNK N   1      20.034  14.631   2.514  0.00  0.00     0.182 C 
BRANCH  11  12
HETATM   12  C   UNK N   1      19.997  14.006   1.126  0.00  0.00     0.040 C 
BRANCH  12  13
HETATM   13  C   UNK N   1      18.610  13.491   0.786  0.00  0.00    -0.020 C 
HETATM   14  C   UNK N   1      17.940  14.458  -0.166  0.00  0.00     0.009 C 
HETATM   15  C   UNK N   1      18.707  12.130   0.125  0.00  0.00     0.009 C 
ENDBRANCH  12  13
ENDBRANCH  11  12
BRANCH  11  16
HETATM   16  C   UNK N   1      19.467  13.728   3.564  0.00  0.00     0.163 C 
HETATM   17  O   UNK N   1      18.464  14.061   4.172  0.00  0.00    -0.648 OA
BRANCH  16  18
HETATM   18  O   UNK N   1      20.059  12.549   3.840  0.00  0.00    -0.775 OA
HETATM   19  H   UNK N   1      19.740  11.672   3.757  0.00  0.00     0.167 HD
ENDBRANCH  16  18
ENDBRANCH  11  16
ENDBRANCH   8  11
ENDBRANCH   6   7
BRANCH   6  20
HETATM   20  C   UNK N   1      19.936  17.819   2.597  0.00  0.00     0.045 C 
BRANCH  20  21
HETATM   21  C   UNK N   1      20.101  19.326   2.723  0.00  0.00     0.112 C 
BRANCH  21  22
HETATM   22  C   UNK N   1      20.860  19.878   1.565  0.00  0.00     0.139 C 
HETATM   23  O   UNK N   1      21.811  20.615   1.760  0.00  0.00    -0.650 OA
BRANCH  22  24
HETATM   24  O   UNK N   1      20.513  19.546   0.308  0.00  0.00    -0.776 OA
HETATM   25  H   UNK N   1      20.064  18.748   0.107  0.00  0.00     0.167 HD
ENDBRANCH  22  24
ENDBRANCH  21  22
ENDBRANCH  20  21
ENDBRANCH   6  20
ENDBRANCH   3   6
ENDBRANCH   1   2
BRANCH   1  26
HETATM   26  C   UNK N   1      20.218  16.661   8.155  0.00  0.00     0.105 C 
BRANCH  26  27
HETATM   27  S   UNK N   1      18.420  16.905   8.284  0.00  0.00    -0.180 SA
HETATM   28  H   UNK N   1      17.833  17.019   9.506  0.00  0.00     0.101 HD
ENDBRANCH  26  27
ENDBRANCH   1  26
BRANCH   1  29
HETATM   29  N   UNK N   1      21.646  15.464   6.554  0.00  0.00    -0.346 N 
HETATM   30  C   UNK N   1      21.331  14.149   6.645  0.00  0.00     0.236 C 
HETATM   31  O   UNK N   1      20.190  13.801   6.914  0.00  0.00    -0.272 OA
HETATM   32  H   UNK N   1      22.584  15.707   6.380  0.00  0.00     0.163 HD
BRANCH  30  33
HETATM   33  C   UNK N   1      22.355  13.094   6.332  0.00  0.00     0.225 C 
BRANCH  33  34
HETATM   34  N   UNK N   1      23.432  13.767   5.648  0.00  0.00    -0.351 N 
HETATM   35  C   UNK N   1      23.842  13.376   4.421  0.00  0.00     0.241 C 
HETATM   36  O   UNK N   1      23.147  12.625   3.747  0.00  0.00    -0.271 OA
HETATM   37  H   UNK N   1      23.879  14.528   6.085  0.00  0.00     0.163 HD
BRANCH  35  38
HETATM   38  C   UNK N   1      25.241  13.726   3.982  0.00  0.00     0.186 C 
BRANCH  38  39
HETATM   39  C   UNK N   1      25.533  13.416   2.516  0.00  0.00     0.144 C 
BRANCH  39  40
HETATM   40  C   UNK N   1      25.071  14.570   1.666  0.00  0.00     0.141 C 
HETATM   41  O   UNK N   1      25.842  15.475   1.385  0.00  0.00    -0.650 OA
BRANCH  40  42
HETATM   42  O   UNK N   1      23.822  14.576   1.164  0.00  0.00    -0.776 OA
HETATM   43  H   UNK N   1      23.236  14.547   0.435  0.00  0.00     0.167 HD
ENDBRANCH  40  42
ENDBRANCH  39  40
ENDBRANCH  38  39
BRANCH  38  44
HETATM   44  N   UNK N   1      25.607  15.062   4.400  0.00  0.00    -0.346 N 
HETATM   45  C   UNK N   1      26.738  15.349   5.083  0.00  0.00     0.241 C 
HETATM   46  O   UNK N   1      27.467  14.456   5.493  0.00  0.00    -0.271 OA
HETATM   47  H   UNK N   1      24.998  15.803   4.175  0.00  0.00     0.163 HD
BRANCH  45  48
HETATM   48  C   UNK N   1      27.196  16.777   5.132  0.00  0.00     0.176 C 
BRANCH  48  49
HETATM   49  C   UNK N   1      26.419  17.659   4.173  0.00  0.00     0.045 C 
BRANCH  49  50
HETATM   50  C   UNK N   1      27.086  19.010   4.016  0.00  0.00     0.076 C 
BRANCH  50  51
HETATM   51  S   UNK N   1      25.972  20.297   4.651  0.00  0.00    -0.173 SA
HETATM   52  C   UNK N   1      24.506  19.530   3.902  0.00  0.00     0.089 C 
ENDBRANCH  50  51
ENDBRANCH  49  50
ENDBRANCH  48  49
BRANCH  48  53
HETATM   53  N   UNK N   1      27.042  17.270   6.478  0.00  0.00    -0.355 N 
HETATM   54  H   UNK N   1      26.144  17.464   6.830  0.00  0.00     0.162 HD
BRANCH  53  55
HETATM   55  C   UNK N   1      28.129  17.466   7.258  0.00  0.00     0.349 C 
HETATM   56  O   UNK N   1      27.996  17.771   8.431  0.00  0.00    -0.284 OA
ENDBRANCH  53  55
ENDBRANCH  48  53
ENDBRANCH  45  48
ENDBRANCH  38  44
ENDBRANCH  35  38
ENDBRANCH  33  34
ENDBRANCH  30  33
ENDBRANCH   1  29
TORSDOF 28
ENDMDL
MODEL 5
REMARK VINA RESULT:      -5.3      4.488      7.692
REMARK  28 active torsions:
REMARK  status: ('A' for Active; 'I' for Inactive)
REMARK    1  A    between atoms: C_2  and  C_4 
REMARK    2  A    between atoms: C_4  and  C_5 
REMARK    3  A    between atoms: C_5  and  C_6 
REMARK    4  A    between atoms: C_5  and  N_9 
REMARK    5  A    between atoms: C_6  and  O_8 
REMARK       I    between atoms: N_9  and  C_10 
REMARK    6  A    between atoms: C_10  and  C_12 
REMARK    7  A    between atoms: C_12  and  C_13 
REMARK    8  A    between atoms: C_12  and  N_18 
REMARK    9  A    between atoms: C_13  and  C_14 
REMARK   10  A    between atoms: C_14  and  C_15 
REMARK   11  A    between atoms: C_15  and  O_17 
REMARK       I    between atoms: N_18  and  C_19 
REMARK   12  A    between atoms: C_19  and  C_21 
REMARK   13  A    between atoms: C_21  and  C_22 
REMARK   14  A    between atoms: C_21  and  N_24 
REMARK   15  A    between atoms: C_22  and  S_23 
REMARK       I    between atoms: N_24  and  C_25 
REMARK   16  A    between atoms: C_25  and  C_27 
REMARK   17  A    between atoms: C_27  and  N_28 
REMARK       I    between atoms: N_28  and  C_29 
REMARK   18  A    between atoms: C_29  and  C_31 
REMARK   19  A    between atoms: C_31  and  C_32 
REMARK   20  A    between atoms: C_31  and  N_36 
REMARK   21  A    between atoms: C_32  and  C_33 
REMARK   22  A    between atoms: C_33  and  O_35 
REMARK       I    between atoms: N_36  and  C_37 
REMARK   23  A    between atoms: C_37  and  C_39 
REMARK   24  A    between atoms: C_39  and  C_40 
REMARK   25  A    between atoms: C_39  and  N_44 
REMARK   26  A    between atoms: C_40  and  C_41 
REMARK   27  A    between atoms: C_41  and  S_42 
REMARK   28  A    between atoms: N_44  and  C_45 
ROOT
HETATM    1  C   UNK N   1      22.397  18.240   5.180  0.00  0.00     0.185 C 
ENDROOT
BRANCH   1   2
HETATM    2  C   UNK N   1      21.285  17.942   6.173  0.00  0.00     0.241 C 
HETATM    3  N   UNK N   1      20.541  16.808   6.089  0.00  0.00    -0.346 N 
HETATM    4  H   UNK N   1      19.884  16.637   6.802  0.00  0.00     0.163 HD
HETATM    5  O   UNK N   1      21.067  18.723   7.086  0.00  0.00    -0.271 OA
BRANCH   3   6
HETATM    6  C   UNK N   1      20.649  15.834   5.022  0.00  0.00     0.177 C 
BRANCH   6   7
HETATM    7  C   UNK N   1      19.300  15.472   4.443  0.00  0.00     0.241 C 
HETATM    8  N   UNK N   1      19.139  15.343   3.105  0.00  0.00    -0.345 N 
HETATM    9  H   UNK N   1      18.251  15.117   2.747  0.00  0.00     0.163 HD
HETATM   10  O   UNK N   1      18.356  15.246   5.184  0.00  0.00    -0.271 OA
BRANCH   8  11
HETATM   11  C   UNK N   1      20.241  15.530   2.192  0.00  0.00     0.182 C 
BRANCH  11  12
HETATM   12  C   UNK N   1      20.542  14.206   1.503  0.00  0.00     0.040 C 
BRANCH  12  13
HETATM   13  C   UNK N   1      21.965  13.752   1.770  0.00  0.00    -0.020 C 
HETATM   14  C   UNK N   1      22.528  13.119   0.515  0.00  0.00     0.009 C 
HETATM   15  C   UNK N   1      22.826  14.937   2.159  0.00  0.00     0.009 C 
ENDBRANCH  12  13
ENDBRANCH  11  12
BRANCH  11  16
HETATM   16  C   UNK N   1      19.932  16.625   1.219  0.00  0.00     0.163 C 
HETATM   17  O   UNK N   1      20.521  16.671   0.153  0.00  0.00    -0.648 OA
BRANCH  16  18
HETATM   18  O   UNK N   1      19.006  17.559   1.516  0.00  0.00    -0.775 OA
HETATM   19  H   UNK N   1      18.760  17.933   2.338  0.00  0.00     0.167 HD
ENDBRANCH  16  18
ENDBRANCH  11  16
ENDBRANCH   8  11
ENDBRANCH   6   7
BRANCH   6  20
HETATM   20  C   UNK N   1      21.518  14.646   5.422  0.00  0.00     0.045 C 
BRANCH  20  21
HETATM   21  C   UNK N   1      20.707  13.716   6.312  0.00  0.00     0.112 C 
BRANCH  21  22
HETATM   22  C   UNK N   1      20.947  14.013   7.752  0.00  0.00     0.139 C 
HETATM   23  O   UNK N   1      20.231  13.511   8.602  0.00  0.00    -0.650 OA
BRANCH  22  24
HETATM   24  O   UNK N   1      21.965  14.814   8.118  0.00  0.00    -0.776 OA
HETATM   25  H   UNK N   1      22.278  15.506   7.570  0.00  0.00     0.167 HD
ENDBRANCH  22  24
ENDBRANCH  21  22
ENDBRANCH  20  21
ENDBRANCH   6  20
ENDBRANCH   3   6
ENDBRANCH   1   2
BRANCH   1  26
HETATM   26  C   UNK N   1      21.902  18.319   3.734  0.00  0.00     0.105 C 
BRANCH  26  27
HETATM   27  S   UNK N   1      20.948  19.836   3.426  0.00  0.00    -0.180 SA
HETATM   28  H   UNK N   1      19.950  20.199   4.277  0.00  0.00     0.101 HD
ENDBRANCH  26  27
ENDBRANCH   1  26
BRANCH   1  29
HETATM   29  N   UNK N   1      23.525  17.330   5.291  0.00  0.00    -0.346 N 
HETATM   30  C   UNK N   1      24.801  17.680   4.993  0.00  0.00     0.236 C 
HETATM   31  O   UNK N   1      25.053  18.794   4.556  0.00  0.00    -0.272 OA
HETATM   32  H   UNK N   1      23.355  16.411   5.598  0.00  0.00     0.163 HD
BRANCH  30  33
HETATM   33  C   UNK N   1      25.937  16.739   5.277  0.00  0.00     0.225 C 
BRANCH  33  34
HETATM   34  N   UNK N   1      27.064  17.562   5.640  0.00  0.00    -0.351 N 
HETATM   35  C   UNK N   1      28.168  17.035   6.214  0.00  0.00     0.241 C 
HETATM   36  O   UNK N   1      28.355  15.823   6.198  0.00  0.00    -0.271 OA
HETATM   37  H   UNK N   1      27.029  18.530   5.465  0.00  0.00     0.163 HD
BRANCH  35  38
HETATM   38  C   UNK N   1      29.058  17.937   7.030  0.00  0.00     0.186 C 
BRANCH  38  39
HETATM   39  C   UNK N   1      28.323  18.733   8.105  0.00  0.00     0.144 C 
BRANCH  39  40
HETATM   40  C   UNK N   1      28.616  18.128   9.453  0.00  0.00     0.141 C 
HETATM   41  O   UNK N   1      27.984  17.157   9.842  0.00  0.00    -0.650 OA
BRANCH  40  42
HETATM   42  O   UNK N   1      29.615  18.620  10.207  0.00  0.00    -0.776 OA
HETATM   43  H   UNK N   1      29.918  19.043  10.986  0.00  0.00     0.167 HD
ENDBRANCH  40  42
ENDBRANCH  39  40
ENDBRANCH  38  39
BRANCH  38  44
HETATM   44  N   UNK N   1      30.235  17.238   7.496  0.00  0.00    -0.346 N 
HETATM   45  C   UNK N   1      31.392  17.173   6.799  0.00  0.00     0.241 C 
HETATM   46  O   UNK N   1      31.464  17.614   5.660  0.00  0.00    -0.271 OA
HETATM   47  H   UNK N   1      30.191  16.783   8.369  0.00  0.00     0.163 HD
BRANCH  45  48
HETATM   48  C   UNK N   1      32.638  16.757   7.526  0.00  0.00     0.176 C 
BRANCH  48  49
HETATM   49  C   UNK N   1      33.675  16.167   6.589  0.00  0.00     0.045 C 
BRANCH  49  50
HETATM   50  C   UNK N   1      33.293  14.761   6.172  0.00  0.00     0.076 C 
BRANCH  50  51
HETATM   51  S   UNK N   1      33.541  13.639   7.579  0.00  0.00    -0.173 SA
HETATM   52  C   UNK N   1      35.175  14.332   7.964  0.00  0.00     0.089 C 
ENDBRANCH  50  51
ENDBRANCH  49  50
ENDBRANCH  48  49
BRANCH  48  53
HETATM   53  N   UNK N   1      33.190  17.905   8.200  0.00  0.00    -0.355 N 
HETATM   54  H   UNK N   1      32.590  18.580   8.591  0.00  0.00     0.162 HD
BRANCH  53  55
HETATM   55  C   UNK N   1      34.530  18.057   8.296  0.00  0.00     0.349 C 
HETATM   56  O   UNK N   1      35.019  19.171   8.360  0.00  0.00    -0.284 OA
ENDBRANCH  53  55
ENDBRANCH  48  53
ENDBRANCH  45  48
ENDBRANCH  38  44
ENDBRANCH  35  38
ENDBRANCH  33  34
ENDBRANCH  30  33
ENDBRANCH   1  29
TORSDOF 28
ENDMDL
MODEL 6
REMARK VINA RESULT:      -5.3      3.423      5.824
REMARK  28 active torsions:
REMARK  status: ('A' for Active; 'I' for Inactive)
REMARK    1  A    between atoms: C_2  and  C_4 
REMARK    2  A    between atoms: C_4  and  C_5 
REMARK    3  A    between atoms: C_5  and  C_6 
REMARK    4  A    between atoms: C_5  and  N_9 
REMARK    5  A    between atoms: C_6  and  O_8 
REMARK       I    between atoms: N_9  and  C_10 
REMARK    6  A    between atoms: C_10  and  C_12 
REMARK    7  A    between atoms: C_12  and  C_13 
REMARK    8  A    between atoms: C_12  and  N_18 
REMARK    9  A    between atoms: C_13  and  C_14 
REMARK   10  A    between atoms: C_14  and  C_15 
REMARK   11  A    between atoms: C_15  and  O_17 
REMARK       I    between atoms: N_18  and  C_19 
REMARK   12  A    between atoms: C_19  and  C_21 
REMARK   13  A    between atoms: C_21  and  C_22 
REMARK   14  A    between atoms: C_21  and  N_24 
REMARK   15  A    between atoms: C_22  and  S_23 
REMARK       I    between atoms: N_24  and  C_25 
REMARK   16  A    between atoms: C_25  and  C_27 
REMARK   17  A    between atoms: C_27  and  N_28 
REMARK       I    between atoms: N_28  and  C_29 
REMARK   18  A    between atoms: C_29  and  C_31 
REMARK   19  A    between atoms: C_31  and  C_32 
REMARK   20  A    between atoms: C_31  and  N_36 
REMARK   21  A    between atoms: C_32  and  C_33 
REMARK   22  A    between atoms: C_33  and  O_35 
REMARK       I    between atoms: N_36  and  C_37 
REMARK   23  A    between atoms: C_37  and  C_39 
REMARK   24  A    between atoms: C_39  and  C_40 
REMARK   25  A    between atoms: C_39  and  N_44 
REMARK   26  A    between atoms: C_40  and  C_41 
REMARK   27  A    between atoms: C_41  and  S_42 
REMARK   28  A    between atoms: N_44  and  C_45 
ROOT
HETATM    1  C   UNK N   1      22.617  14.398   5.343  0.00  0.00     0.185 C 
ENDROOT
BRANCH   1   2
HETATM    2  C   UNK N   1      22.810  14.930   6.754  0.00  0.00     0.241 C 
HETATM    3  N   UNK N   1      22.025  15.918   7.256  0.00  0.00    -0.346 N 
HETATM    4  H   UNK N   1      22.152  16.171   8.199  0.00  0.00     0.163 HD
HETATM    5  O   UNK N   1      23.673  14.443   7.469  0.00  0.00    -0.271 OA
BRANCH   3   6
HETATM    6  C   UNK N   1      21.014  16.627   6.498  0.00  0.00     0.177 C 
BRANCH   6   7
HETATM    7  C   UNK N   1      21.241  18.121   6.504  0.00  0.00     0.241 C 
HETATM    8  N   UNK N   1      21.976  18.708   5.529  0.00  0.00    -0.345 N 
HETATM    9  H   UNK N   1      22.121  19.681   5.556  0.00  0.00     0.163 HD
HETATM   10  O   UNK N   1      20.721  18.817   7.362  0.00  0.00    -0.271 OA
BRANCH   8  11
HETATM   11  C   UNK N   1      22.551  17.939   4.454  0.00  0.00     0.182 C 
BRANCH  11  12
HETATM   12  C   UNK N   1      21.918  18.375   3.140  0.00  0.00     0.040 C 
BRANCH  12  13
HETATM   13  C   UNK N   1      20.982  19.553   3.338  0.00  0.00    -0.020 C 
HETATM   14  C   UNK N   1      21.504  20.740   2.558  0.00  0.00     0.009 C 
HETATM   15  C   UNK N   1      19.593  19.204   2.841  0.00  0.00     0.009 C 
ENDBRANCH  12  13
ENDBRANCH  11  12
BRANCH  11  16
HETATM   16  C   UNK N   1      24.041  18.084   4.447  0.00  0.00     0.163 C 
HETATM   17  O   UNK N   1      24.574  18.824   3.638  0.00  0.00    -0.648 OA
BRANCH  16  18
HETATM   18  O   UNK N   1      24.796  17.403   5.332  0.00  0.00    -0.775 OA
HETATM   19  H   UNK N   1      25.721  17.255   5.358  0.00  0.00     0.167 HD
ENDBRANCH  16  18
ENDBRANCH  11  16
ENDBRANCH   8  11
ENDBRANCH   6   7
BRANCH   6  20
HETATM   20  C   UNK N   1      19.604  16.187   6.881  0.00  0.00     0.045 C 
BRANCH  20  21
HETATM   21  C   UNK N   1      19.494  16.145   8.398  0.00  0.00     0.112 C 
BRANCH  21  22
HETATM   22  C   UNK N   1      18.349  16.971   8.872  0.00  0.00     0.139 C 
HETATM   23  O   UNK N   1      17.211  16.542   8.780  0.00  0.00    -0.650 OA
BRANCH  22  24
HETATM   24  O   UNK N   1      18.569  18.180   9.423  0.00  0.00    -0.776 OA
HETATM   25  H   UNK N   1      19.160  18.801   9.047  0.00  0.00     0.167 HD
ENDBRANCH  22  24
ENDBRANCH  21  22
ENDBRANCH  20  21
ENDBRANCH   6  20
ENDBRANCH   3   6
ENDBRANCH   1   2
BRANCH   1  26
HETATM   26  C   UNK N   1      22.031  12.985   5.312  0.00  0.00     0.105 C 
BRANCH  26  27
HETATM   27  S   UNK N   1      20.939  12.672   6.733  0.00  0.00    -0.180 SA
HETATM   28  H   UNK N   1      21.429  12.752   8.000  0.00  0.00     0.101 HD
ENDBRANCH  26  27
ENDBRANCH   1  26
BRANCH   1  29
HETATM   29  N   UNK N   1      23.819  14.477   4.530  0.00  0.00    -0.346 N 
HETATM   30  C   UNK N   1      23.809  14.758   3.203  0.00  0.00     0.236 C 
HETATM   31  O   UNK N   1      22.751  14.908   2.610  0.00  0.00    -0.272 OA
HETATM   32  H   UNK N   1      24.688  14.319   4.965  0.00  0.00     0.163 HD
BRANCH  30  33
HETATM   33  C   UNK N   1      25.096  14.976   2.458  0.00  0.00     0.225 C 
BRANCH  33  34
HETATM   34  N   UNK N   1      26.095  15.274   3.455  0.00  0.00    -0.351 N 
HETATM   35  C   UNK N   1      27.311  14.685   3.433  0.00  0.00     0.241 C 
HETATM   36  O   UNK N   1      27.694  14.094   2.430  0.00  0.00    -0.271 OA
HETATM   37  H   UNK N   1      25.886  15.922   4.166  0.00  0.00     0.163 HD
BRANCH  35  38
HETATM   38  C   UNK N   1      28.098  14.609   4.716  0.00  0.00     0.186 C 
BRANCH  38  39
HETATM   39  C   UNK N   1      29.150  13.502   4.740  0.00  0.00     0.144 C 
BRANCH  39  40
HETATM   40  C   UNK N   1      30.511  14.119   4.926  0.00  0.00     0.141 C 
HETATM   41  O   UNK N   1      31.111  14.587   3.970  0.00  0.00    -0.650 OA
BRANCH  40  42
HETATM   42  O   UNK N   1      31.044  14.209   6.158  0.00  0.00    -0.776 OA
HETATM   43  H   UNK N   1      31.582  14.651   6.784  0.00  0.00     0.167 HD
ENDBRANCH  40  42
ENDBRANCH  39  40
ENDBRANCH  38  39
BRANCH  38  44
HETATM   44  N   UNK N   1      28.585  15.911   5.116  0.00  0.00    -0.346 N 
HETATM   45  C   UNK N   1      28.107  16.595   6.180  0.00  0.00     0.241 C 
HETATM   46  O   UNK N   1      27.136  16.187   6.802  0.00  0.00    -0.271 OA
HETATM   47  H   UNK N   1      29.304  16.323   4.582  0.00  0.00     0.163 HD
BRANCH  45  48
HETATM   48  C   UNK N   1      28.922  17.734   6.718  0.00  0.00     0.176 C 
BRANCH  48  49
HETATM   49  C   UNK N   1      28.056  18.911   7.128  0.00  0.00     0.045 C 
BRANCH  49  50
HETATM   50  C   UNK N   1      27.426  19.570   5.917  0.00  0.00     0.076 C 
BRANCH  50  51
HETATM   51  S   UNK N   1      27.502  21.374   6.119  0.00  0.00    -0.173 SA
HETATM   52  C   UNK N   1      26.161  21.388   7.343  0.00  0.00     0.089 C 
ENDBRANCH  50  51
ENDBRANCH  49  50
ENDBRANCH  48  49
BRANCH  48  53
HETATM   53  N   UNK N   1      29.680  17.272   7.853  0.00  0.00    -0.355 N 
HETATM   54  H   UNK N   1      29.212  16.966   8.664  0.00  0.00     0.162 HD
BRANCH  53  55
HETATM   55  C   UNK N   1      31.031  17.255   7.807  0.00  0.00     0.349 C 
HETATM   56  O   UNK N   1      31.650  16.324   8.291  0.00  0.00    -0.284 OA
ENDBRANCH  53  55
ENDBRANCH  48  53
ENDBRANCH  45  48
ENDBRANCH  38  44
ENDBRANCH  35  38
ENDBRANCH  33  34
ENDBRANCH  30  33
ENDBRANCH   1  29
TORSDOF 28
ENDMDL
MODEL 7
REMARK VINA RESULT:      -5.3      3.490      8.574
REMARK  28 active torsions:
REMARK  status: ('A' for Active; 'I' for Inactive)
REMARK    1  A    between atoms: C_2  and  C_4 
REMARK    2  A    between atoms: C_4  and  C_5 
REMARK    3  A    between atoms: C_5  and  C_6 
REMARK    4  A    between atoms: C_5  and  N_9 
REMARK    5  A    between atoms: C_6  and  O_8 
REMARK       I    between atoms: N_9  and  C_10 
REMARK    6  A    between atoms: C_10  and  C_12 
REMARK    7  A    between atoms: C_12  and  C_13 
REMARK    8  A    between atoms: C_12  and  N_18 
REMARK    9  A    between atoms: C_13  and  C_14 
REMARK   10  A    between atoms: C_14  and  C_15 
REMARK   11  A    between atoms: C_15  and  O_17 
REMARK       I    between atoms: N_18  and  C_19 
REMARK   12  A    between atoms: C_19  and  C_21 
REMARK   13  A    between atoms: C_21  and  C_22 
REMARK   14  A    between atoms: C_21  and  N_24 
REMARK   15  A    between atoms: C_22  and  S_23 
REMARK       I    between atoms: N_24  and  C_25 
REMARK   16  A    between atoms: C_25  and  C_27 
REMARK   17  A    between atoms: C_27  and  N_28 
REMARK       I    between atoms: N_28  and  C_29 
REMARK   18  A    between atoms: C_29  and  C_31 
REMARK   19  A    between atoms: C_31  and  C_32 
REMARK   20  A    between atoms: C_31  and  N_36 
REMARK   21  A    between atoms: C_32  and  C_33 
REMARK   22  A    between atoms: C_33  and  O_35 
REMARK       I    between atoms: N_36  and  C_37 
REMARK   23  A    between atoms: C_37  and  C_39 
REMARK   24  A    between atoms: C_39  and  C_40 
REMARK   25  A    between atoms: C_39  and  N_44 
REMARK   26  A    between atoms: C_40  and  C_41 
REMARK   27  A    between atoms: C_41  and  S_42 
REMARK   28  A    between atoms: N_44  and  C_45 
ROOT
HETATM    1  C   UNK N   1      26.185  16.385   4.914  0.00  0.00     0.185 C 
ENDROOT
BRANCH   1   2
HETATM    2  C   UNK N   1      27.168  15.863   3.879  0.00  0.00     0.241 C 
HETATM    3  N   UNK N   1      28.475  15.649   4.182  0.00  0.00    -0.346 N 
HETATM    4  H   UNK N   1      29.046  15.243   3.490  0.00  0.00     0.163 HD
HETATM    5  O   UNK N   1      26.775  15.604   2.752  0.00  0.00    -0.271 OA
BRANCH   3   6
HETATM    6  C   UNK N   1      29.085  15.977   5.456  0.00  0.00     0.177 C 
BRANCH   6   7
HETATM    7  C   UNK N   1      29.413  17.447   5.567  0.00  0.00     0.241 C 
HETATM    8  N   UNK N   1      29.516  18.038   6.782  0.00  0.00    -0.345 N 
HETATM    9  H   UNK N   1      29.721  18.999   6.834  0.00  0.00     0.163 HD
HETATM   10  O   UNK N   1      29.635  18.104   4.562  0.00  0.00    -0.271 OA
BRANCH   8  11
HETATM   11  C   UNK N   1      29.334  17.289   8.001  0.00  0.00     0.182 C 
BRANCH  11  12
HETATM   12  C   UNK N   1      30.570  17.455   8.874  0.00  0.00     0.040 C 
BRANCH  12  13
HETATM   13  C   UNK N   1      31.815  16.933   8.179  0.00  0.00    -0.020 C 
HETATM   14  C   UNK N   1      32.888  17.999   8.214  0.00  0.00     0.009 C 
HETATM   15  C   UNK N   1      32.324  15.692   8.885  0.00  0.00     0.009 C 
ENDBRANCH  12  13
ENDBRANCH  11  12
BRANCH  11  16
HETATM   16  C   UNK N   1      28.081  17.722   8.696  0.00  0.00     0.163 C 
HETATM   17  O   UNK N   1      27.550  16.981   9.506  0.00  0.00    -0.648 OA
BRANCH  16  18
HETATM   18  O   UNK N   1      27.537  18.927   8.432  0.00  0.00    -0.775 OA
HETATM   19  H   UNK N   1      27.940  19.737   8.188  0.00  0.00     0.167 HD
ENDBRANCH  16  18
ENDBRANCH  11  16
ENDBRANCH   8  11
ENDBRANCH   6   7
BRANCH   6  20
HETATM   20  C   UNK N   1      30.235  15.032   5.794  0.00  0.00     0.045 C 
BRANCH  20  21
HETATM   21  C   UNK N   1      31.148  14.908   4.583  0.00  0.00     0.112 C 
BRANCH  21  22
HETATM   22  C   UNK N   1      32.397  15.697   4.776  0.00  0.00     0.139 C 
HETATM   23  O   UNK N   1      33.322  15.222   5.413  0.00  0.00    -0.650 OA
BRANCH  22  24
HETATM   24  O   UNK N   1      32.516  16.921   4.229  0.00  0.00    -0.776 OA
HETATM   25  H   UNK N   1      31.818  17.546   4.244  0.00  0.00     0.167 HD
ENDBRANCH  22  24
ENDBRANCH  21  22
ENDBRANCH  20  21
ENDBRANCH   6  20
ENDBRANCH   3   6
ENDBRANCH   1   2
BRANCH   1  26
HETATM   26  C   UNK N   1      25.252  15.299   5.454  0.00  0.00     0.105 C 
BRANCH  26  27
HETATM   27  S   UNK N   1      25.671  14.833   7.162  0.00  0.00    -0.180 SA
HETATM   28  H   UNK N   1      25.547  13.539   7.566  0.00  0.00     0.101 HD
ENDBRANCH  26  27
ENDBRANCH   1  26
BRANCH   1  29
HETATM   29  N   UNK N   1      25.426  17.537   4.457  0.00  0.00    -0.346 N 
HETATM   30  C   UNK N   1      25.744  18.817   4.771  0.00  0.00     0.236 C 
HETATM   31  O   UNK N   1      26.682  19.057   5.518  0.00  0.00    -0.272 OA
HETATM   32  H   UNK N   1      24.638  17.380   3.888  0.00  0.00     0.163 HD
BRANCH  30  33
HETATM   33  C   UNK N   1      25.009  19.965   4.139  0.00  0.00     0.225 C 
BRANCH  33  34
HETATM   34  N   UNK N   1      23.795  19.413   3.588  0.00  0.00    -0.351 N 
HETATM   35  C   UNK N   1      22.805  20.208   3.125  0.00  0.00     0.241 C 
HETATM   36  O   UNK N   1      23.015  21.397   2.914  0.00  0.00    -0.271 OA
HETATM   37  H   UNK N   1      23.686  18.436   3.547  0.00  0.00     0.163 HD
BRANCH  35  38
HETATM   38  C   UNK N   1      21.406  19.652   3.057  0.00  0.00     0.186 C 
BRANCH  38  39
HETATM   39  C   UNK N   1      20.464  20.440   2.149  0.00  0.00     0.144 C 
BRANCH  39  40
HETATM   40  C   UNK N   1      20.768  20.105   0.713  0.00  0.00     0.141 C 
HETATM   41  O   UNK N   1      21.361  20.905   0.006  0.00  0.00    -0.650 OA
BRANCH  40  42
HETATM   42  O   UNK N   1      20.437  18.897   0.221  0.00  0.00    -0.776 OA
HETATM   43  H   UNK N   1      20.635  17.993   0.075  0.00  0.00     0.167 HD
ENDBRANCH  40  42
ENDBRANCH  39  40
ENDBRANCH  38  39
BRANCH  38  44
HETATM   44  N   UNK N   1      21.415  18.225   2.822  0.00  0.00    -0.346 N 
HETATM   45  C   UNK N   1      20.987  17.315   3.726  0.00  0.00     0.241 C 
HETATM   46  O   UNK N   1      20.672  17.655   4.858  0.00  0.00    -0.271 OA
HETATM   47  H   UNK N   1      21.754  17.898   1.956  0.00  0.00     0.163 HD
BRANCH  45  48
HETATM   48  C   UNK N   1      20.692  15.923   3.248  0.00  0.00     0.176 C 
BRANCH  48  49
HETATM   49  C   UNK N   1      21.791  15.382   2.352  0.00  0.00     0.045 C 
BRANCH  49  50
HETATM   50  C   UNK N   1      21.226  14.900   1.032  0.00  0.00     0.076 C 
BRANCH  50  51
HETATM   51  S   UNK N   1      19.451  14.569   1.233  0.00  0.00    -0.173 SA
HETATM   52  C   UNK N   1      18.986  15.777  -0.042  0.00  0.00     0.089 C 
ENDBRANCH  50  51
ENDBRANCH  49  50
ENDBRANCH  48  49
BRANCH  48  53
HETATM   53  N   UNK N   1      20.532  15.061   4.393  0.00  0.00    -0.355 N 
HETATM   54  H   UNK N   1      19.697  15.086   4.913  0.00  0.00     0.162 HD
BRANCH  53  55
HETATM   55  C   UNK N   1      21.525  14.219   4.753  0.00  0.00     0.349 C 
HETATM   56  O   UNK N   1      21.287  13.042   4.960  0.00  0.00    -0.284 OA
ENDBRANCH  53  55
ENDBRANCH  48  53
ENDBRANCH  45  48
ENDBRANCH  38  44
ENDBRANCH  35  38
ENDBRANCH  33  34
ENDBRANCH  30  33
ENDBRANCH   1  29
TORSDOF 28
ENDMDL
MODEL 8
REMARK VINA RESULT:      -5.3      2.847      6.037
REMARK  28 active torsions:
REMARK  status: ('A' for Active; 'I' for Inactive)
REMARK    1  A    between atoms: C_2  and  C_4 
REMARK    2  A    between atoms: C_4  and  C_5 
REMARK    3  A    between atoms: C_5  and  C_6 
REMARK    4  A    between atoms: C_5  and  N_9 
REMARK    5  A    between atoms: C_6  and  O_8 
REMARK       I    between atoms: N_9  and  C_10 
REMARK    6  A    between atoms: C_10  and  C_12 
REMARK    7  A    between atoms: C_12  and  C_13 
REMARK    8  A    between atoms: C_12  and  N_18 
REMARK    9  A    between atoms: C_13  and  C_14 
REMARK   10  A    between atoms: C_14  and  C_15 
REMARK   11  A    between atoms: C_15  and  O_17 
REMARK       I    between atoms: N_18  and  C_19 
REMARK   12  A    between atoms: C_19  and  C_21 
REMARK   13  A    between atoms: C_21  and  C_22 
REMARK   14  A    between atoms: C_21  and  N_24 
REMARK   15  A    between atoms: C_22  and  S_23 
REMARK       I    between atoms: N_24  and  C_25 
REMARK   16  A    between atoms: C_25  and  C_27 
REMARK   17  A    between atoms: C_27  and  N_28 
REMARK       I    between atoms: N_28  and  C_29 
REMARK   18  A    between atoms: C_29  and  C_31 
REMARK   19  A    between atoms: C_31  and  C_32 
REMARK   20  A    between atoms: C_31  and  N_36 
REMARK   21  A    between atoms: C_32  and  C_33 
REMARK   22  A    between atoms: C_33  and  O_35 
REMARK       I    between atoms: N_36  and  C_37 
REMARK   23  A    between atoms: C_37  and  C_39 
REMARK   24  A    between atoms: C_39  and  C_40 
REMARK   25  A    between atoms: C_39  and  N_44 
REMARK   26  A    between atoms: C_40  and  C_41 
REMARK   27  A    between atoms: C_41  and  S_42 
REMARK   28  A    between atoms: N_44  and  C_45 
ROOT
HETATM    1  C   UNK N   1      19.699  16.832   8.228  0.00  0.00     0.185 C 
ENDROOT
BRANCH   1   2
HETATM    2  C   UNK N   1      20.337  17.870   7.319  0.00  0.00     0.241 C 
HETATM    3  N   UNK N   1      20.483  17.656   5.986  0.00  0.00    -0.346 N 
HETATM    4  H   UNK N   1      20.838  18.393   5.439  0.00  0.00     0.163 HD
HETATM    5  O   UNK N   1      20.707  18.936   7.788  0.00  0.00    -0.271 OA
BRANCH   3   6
HETATM    6  C   UNK N   1      20.151  16.415   5.314  0.00  0.00     0.177 C 
BRANCH   6   7
HETATM    7  C   UNK N   1      21.230  15.371   5.481  0.00  0.00     0.241 C 
HETATM    8  N   UNK N   1      21.162  14.198   4.807  0.00  0.00    -0.345 N 
HETATM    9  H   UNK N   1      21.869  13.526   4.938  0.00  0.00     0.163 HD
HETATM   10  O   UNK N   1      22.198  15.598   6.189  0.00  0.00    -0.271 OA
BRANCH   8  11
HETATM   11  C   UNK N   1      20.075  13.911   3.904  0.00  0.00     0.182 C 
BRANCH  11  12
HETATM   12  C   UNK N   1      20.624  13.182   2.685  0.00  0.00     0.040 C 
BRANCH  12  13
HETATM   13  C   UNK N   1      20.773  14.117   1.498  0.00  0.00    -0.020 C 
HETATM   14  C   UNK N   1      22.026  13.753   0.733  0.00  0.00     0.009 C 
HETATM   15  C   UNK N   1      19.574  13.988   0.580  0.00  0.00     0.009 C 
ENDBRANCH  12  13
ENDBRANCH  11  12
BRANCH  11  16
HETATM   16  C   UNK N   1      19.007  13.130   4.604  0.00  0.00     0.163 C 
HETATM   17  O   UNK N   1      17.908  13.629   4.778  0.00  0.00    -0.648 OA
BRANCH  16  18
HETATM   18  O   UNK N   1      19.253  11.879   5.042  0.00  0.00    -0.775 OA
HETATM   19  H   UNK N   1      19.652  11.579   5.834  0.00  0.00     0.167 HD
ENDBRANCH  16  18
ENDBRANCH  11  16
ENDBRANCH   8  11
ENDBRANCH   6   7
BRANCH   6  20
HETATM   20  C   UNK N   1      19.700  16.651   3.876  0.00  0.00     0.045 C 
BRANCH  20  21
HETATM   21  C   UNK N   1      20.721  17.533   3.174  0.00  0.00     0.112 C 
BRANCH  21  22
HETATM   22  C   UNK N   1      20.146  18.135   1.939  0.00  0.00     0.139 C 
HETATM   23  O   UNK N   1      20.607  19.175   1.500  0.00  0.00    -0.650 OA
BRANCH  22  24
HETATM   24  O   UNK N   1      19.136  17.522   1.293  0.00  0.00    -0.776 OA
HETATM   25  H   UNK N   1      19.281  16.827   0.682  0.00  0.00     0.167 HD
ENDBRANCH  22  24
ENDBRANCH  21  22
ENDBRANCH  20  21
ENDBRANCH   6  20
ENDBRANCH   3   6
ENDBRANCH   1   2
BRANCH   1  26
HETATM   26  C   UNK N   1      18.650  17.426   9.170  0.00  0.00     0.105 C 
BRANCH  26  27
HETATM   27  S   UNK N   1      16.957  17.041   8.627  0.00  0.00    -0.180 SA
HETATM   28  H   UNK N   1      16.737  16.543   7.380  0.00  0.00     0.101 HD
ENDBRANCH  26  27
ENDBRANCH   1  26
BRANCH   1  29
HETATM   29  N   UNK N   1      20.670  16.042   8.968  0.00  0.00    -0.346 N 
HETATM   30  C   UNK N   1      20.719  14.688   8.931  0.00  0.00     0.236 C 
HETATM   31  O   UNK N   1      19.888  14.055   8.294  0.00  0.00    -0.272 OA
HETATM   32  H   UNK N   1      21.328  16.516   9.527  0.00  0.00     0.163 HD
BRANCH  30  33
HETATM   33  C   UNK N   1      21.842  13.945   9.597  0.00  0.00     0.225 C 
BRANCH  33  34
HETATM   34  N   UNK N   1      22.528  13.226   8.551  0.00  0.00    -0.351 N 
HETATM   35  C   UNK N   1      23.872  13.087   8.555  0.00  0.00     0.241 C 
HETATM   36  O   UNK N   1      24.516  13.330   9.570  0.00  0.00    -0.271 OA
HETATM   37  H   UNK N   1      22.005  12.827   7.819  0.00  0.00     0.163 HD
BRANCH  35  38
HETATM   38  C   UNK N   1      24.573  12.814   7.249  0.00  0.00     0.186 C 
BRANCH  38  39
HETATM   39  C   UNK N   1      24.235  11.460   6.630  0.00  0.00     0.144 C 
BRANCH  39  40
HETATM   40  C   UNK N   1      23.128  11.639   5.625  0.00  0.00     0.141 C 
HETATM   41  O   UNK N   1      21.964  11.676   5.992  0.00  0.00    -0.650 OA
BRANCH  40  42
HETATM   42  O   UNK N   1      23.425  11.818   4.325  0.00  0.00    -0.776 OA
HETATM   43  H   UNK N   1      24.044  11.820   3.622  0.00  0.00     0.167 HD
ENDBRANCH  40  42
ENDBRANCH  39  40
ENDBRANCH  38  39
BRANCH  38  44
HETATM   44  N   UNK N   1      24.458  13.936   6.343  0.00  0.00    -0.346 N 
HETATM   45  C   UNK N   1      25.467  14.801   6.092  0.00  0.00     0.241 C 
HETATM   46  O   UNK N   1      26.513  14.745   6.724  0.00  0.00    -0.271 OA
HETATM   47  H   UNK N   1      23.598  14.077   5.885  0.00  0.00     0.163 HD
BRANCH  45  48
HETATM   48  C   UNK N   1      25.364  15.680   4.881  0.00  0.00     0.176 C 
BRANCH  48  49
HETATM   49  C   UNK N   1      24.552  15.034   3.774  0.00  0.00     0.045 C 
BRANCH  49  50
HETATM   50  C   UNK N   1      25.451  14.308   2.794  0.00  0.00     0.076 C 
BRANCH  50  51
HETATM   51  S   UNK N   1      26.784  15.427   2.273  0.00  0.00    -0.173 SA
HETATM   52  C   UNK N   1      27.984  14.072   2.108  0.00  0.00     0.089 C 
ENDBRANCH  50  51
ENDBRANCH  49  50
ENDBRANCH  48  49
BRANCH  48  53
HETATM   53  N   UNK N   1      24.756  16.931   5.261  0.00  0.00    -0.355 N 
HETATM   54  H   UNK N   1      24.695  17.177   6.212  0.00  0.00     0.162 HD
BRANCH  53  55
HETATM   55  C   UNK N   1      24.271  17.766   4.316  0.00  0.00     0.349 C 
HETATM   56  O   UNK N   1      23.961  18.908   4.606  0.00  0.00    -0.284 OA
ENDBRANCH  53  55
ENDBRANCH  48  53
ENDBRANCH  45  48
ENDBRANCH  38  44
ENDBRANCH  35  38
ENDBRANCH  33  34
ENDBRANCH  30  33
ENDBRANCH   1  29
TORSDOF 28
ENDMDL
MODEL 9
REMARK VINA RESULT:      -5.2      3.680      6.526
REMARK  28 active torsions:
REMARK  status: ('A' for Active; 'I' for Inactive)
REMARK    1  A    between atoms: C_2  and  C_4 
REMARK    2  A    between atoms: C_4  and  C_5 
REMARK    3  A    between atoms: C_5  and  C_6 
REMARK    4  A    between atoms: C_5  and  N_9 
REMARK    5  A    between atoms: C_6  and  O_8 
REMARK       I    between atoms: N_9  and  C_10 
REMARK    6  A    between atoms: C_10  and  C_12 
REMARK    7  A    between atoms: C_12  and  C_13 
REMARK    8  A    between atoms: C_12  and  N_18 
REMARK    9  A    between atoms: C_13  and  C_14 
REMARK   10  A    between atoms: C_14  and  C_15 
REMARK   11  A    between atoms: C_15  and  O_17 
REMARK       I    between atoms: N_18  and  C_19 
REMARK   12  A    between atoms: C_19  and  C_21 
REMARK   13  A    between atoms: C_21  and  C_22 
REMARK   14  A    between atoms: C_21  and  N_24 
REMARK   15  A    between atoms: C_22  and  S_23 
REMARK       I    between atoms: N_24  and  C_25 
REMARK   16  A    between atoms: C_25  and  C_27 
REMARK   17  A    between atoms: C_27  and  N_28 
REMARK       I    between atoms: N_28  and  C_29 
REMARK   18  A    between atoms: C_29  and  C_31 
REMARK   19  A    between atoms: C_31  and  C_32 
REMARK   20  A    between atoms: C_31  and  N_36 
REMARK   21  A    between atoms: C_32  and  C_33 
REMARK   22  A    between atoms: C_33  and  O_35 
REMARK       I    between atoms: N_36  and  C_37 
REMARK   23  A    between atoms: C_37  and  C_39 
REMARK   24  A    between atoms: C_39  and  C_40 
REMARK   25  A    between atoms: C_39  and  N_44 
REMARK   26  A    between atoms: C_40  and  C_41 
REMARK   27  A    between atoms: C_41  and  S_42 
REMARK   28  A    between atoms: N_44  and  C_45 
ROOT
HETATM    1  C   UNK N   1      23.032  15.856   5.522  0.00  0.00     0.185 C 
ENDROOT
BRANCH   1   2
HETATM    2  C   UNK N   1      22.221  17.120   5.756  0.00  0.00     0.241 C 
HETATM    3  N   UNK N   1      20.913  17.069   6.120  0.00  0.00    -0.346 N 
HETATM    4  H   UNK N   1      20.461  17.919   6.326  0.00  0.00     0.163 HD
HETATM    5  O   UNK N   1      22.758  18.211   5.643  0.00  0.00    -0.271 OA
BRANCH   3   6
HETATM    6  C   UNK N   1      20.138  15.848   6.224  0.00  0.00     0.177 C 
BRANCH   6   7
HETATM    7  C   UNK N   1      18.854  15.921   5.430  0.00  0.00     0.241 C 
HETATM    8  N   UNK N   1      18.880  15.875   4.076  0.00  0.00    -0.345 N 
HETATM    9  H   UNK N   1      18.034  15.933   3.577  0.00  0.00     0.163 HD
HETATM   10  O   UNK N   1      17.779  15.972   6.006  0.00  0.00    -0.271 OA
BRANCH   8  11
HETATM   11  C   UNK N   1      20.119  15.742   3.351  0.00  0.00     0.182 C 
BRANCH  11  12
HETATM   12  C   UNK N   1      20.138  14.393   2.645  0.00  0.00     0.040 C 
BRANCH  12  13
HETATM   13  C   UNK N   1      20.328  14.552   1.148  0.00  0.00    -0.020 C 
HETATM   14  C   UNK N   1      21.601  13.847   0.731  0.00  0.00     0.009 C 
HETATM   15  C   UNK N   1      19.156  13.941   0.406  0.00  0.00     0.009 C 
ENDBRANCH  12  13
ENDBRANCH  11  12
BRANCH  11  16
HETATM   16  C   UNK N   1      20.294  16.886   2.402  0.00  0.00     0.163 C 
HETATM   17  O   UNK N   1      21.382  17.427   2.298  0.00  0.00    -0.648 OA
BRANCH  16  18
HETATM   18  O   UNK N   1      19.255  17.321   1.661  0.00  0.00    -0.775 OA
HETATM   19  H   UNK N   1      19.133  17.337   0.733  0.00  0.00     0.167 HD
ENDBRANCH  16  18
ENDBRANCH  11  16
ENDBRANCH   8  11
ENDBRANCH   6   7
BRANCH   6  20
HETATM   20  C   UNK N   1      19.976  15.400   7.673  0.00  0.00     0.045 C 
BRANCH  20  21
HETATM   21  C   UNK N   1      20.106  16.612   8.584  0.00  0.00     0.112 C 
BRANCH  21  22
HETATM   22  C   UNK N   1      18.779  17.016   9.126  0.00  0.00     0.139 C 
HETATM   23  O   UNK N   1      17.906  16.179   9.281  0.00  0.00    -0.650 OA
BRANCH  22  24
HETATM   24  O   UNK N   1      18.549  18.298   9.468  0.00  0.00    -0.776 OA
HETATM   25  H   UNK N   1      17.774  18.563   9.923  0.00  0.00     0.167 HD
ENDBRANCH  22  24
ENDBRANCH  21  22
ENDBRANCH  20  21
ENDBRANCH   6  20
ENDBRANCH   3   6
ENDBRANCH   1   2
BRANCH   1  26
HETATM   26  C   UNK N   1      23.645  15.292   6.806  0.00  0.00     0.105 C 
BRANCH  26  27
HETATM   27  S   UNK N   1      23.194  13.549   7.063  0.00  0.00    -0.180 SA
HETATM   28  H   UNK N   1      22.281  12.953   6.249  0.00  0.00     0.101 HD
ENDBRANCH  26  27
ENDBRANCH   1  26
BRANCH   1  29
HETATM   29  N   UNK N   1      24.044  16.006   4.489  0.00  0.00    -0.346 N 
HETATM   30  C   UNK N   1      24.306  15.060   3.554  0.00  0.00     0.236 C 
HETATM   31  O   UNK N   1      23.720  13.987   3.576  0.00  0.00    -0.272 OA
HETATM   32  H   UNK N   1      24.567  16.840   4.467  0.00  0.00     0.163 HD
BRANCH  30  33
HETATM   33  C   UNK N   1      25.256  15.344   2.425  0.00  0.00     0.225 C 
BRANCH  33  34
HETATM   34  N   UNK N   1      26.014  16.507   2.816  0.00  0.00    -0.351 N 
HETATM   35  C   UNK N   1      27.359  16.465   2.936  0.00  0.00     0.241 C 
HETATM   36  O   UNK N   1      27.994  15.529   2.462  0.00  0.00    -0.271 OA
HETATM   37  H   UNK N   1      25.540  17.350   2.999  0.00  0.00     0.163 HD
BRANCH  35  38
HETATM   38  C   UNK N   1      28.037  17.483   3.816  0.00  0.00     0.186 C 
BRANCH  38  39
HETATM   39  C   UNK N   1      27.284  18.806   3.936  0.00  0.00     0.144 C 
BRANCH  39  40
HETATM   40  C   UNK N   1      26.708  18.922   5.323  0.00  0.00     0.141 C 
HETATM   41  O   UNK N   1      27.238  19.647   6.151  0.00  0.00    -0.650 OA
BRANCH  40  42
HETATM   42  O   UNK N   1      25.572  18.272   5.635  0.00  0.00    -0.776 OA
HETATM   43  H   UNK N   1      24.929  18.006   6.262  0.00  0.00     0.167 HD
ENDBRANCH  40  42
ENDBRANCH  39  40
ENDBRANCH  38  39
BRANCH  38  44
HETATM   44  N   UNK N   1      28.442  16.905   5.078  0.00  0.00    -0.346 N 
HETATM   45  C   UNK N   1      29.699  16.991   5.572  0.00  0.00     0.241 C 
HETATM   46  O   UNK N   1      30.603  17.473   4.904  0.00  0.00    -0.271 OA
HETATM   47  H   UNK N   1      27.767  16.420   5.606  0.00  0.00     0.163 HD
BRANCH  45  48
HETATM   48  C   UNK N   1      29.913  16.692   7.027  0.00  0.00     0.176 C 
BRANCH  48  49
HETATM   49  C   UNK N   1      31.381  16.736   7.408  0.00  0.00     0.045 C 
BRANCH  49  50
HETATM   50  C   UNK N   1      31.967  15.341   7.473  0.00  0.00     0.076 C 
BRANCH  50  51
HETATM   51  S   UNK N   1      32.569  15.030   9.159  0.00  0.00    -0.173 SA
HETATM   52  C   UNK N   1      34.288  15.418   8.717  0.00  0.00     0.089 C 
ENDBRANCH  50  51
ENDBRANCH  49  50
ENDBRANCH  48  49
BRANCH  48  53
HETATM   53  N   UNK N   1      29.179  17.653   7.813  0.00  0.00    -0.355 N 
HETATM   54  H   UNK N   1      29.376  18.613   7.724  0.00  0.00     0.162 HD
BRANCH  53  55
HETATM   55  C   UNK N   1      28.220  17.237   8.671  0.00  0.00     0.349 C 
HETATM   56  O   UNK N   1      27.758  18.008   9.494  0.00  0.00    -0.284 OA
ENDBRANCH  53  55
ENDBRANCH  48  53
ENDBRANCH  45  48
ENDBRANCH  38  44
ENDBRANCH  35  38
ENDBRANCH  33  34
ENDBRANCH  30  33
ENDBRANCH   1  29
TORSDOF 28
ENDMDL
