REMARK  1 active torsions:
REMARK  status: ('A' for Active; 'I' for Inactive)
REMARK    1  A    between atoms: C_13  and  C_9 
ROOT
HETATM    1  C   UNK N   1       5.440   0.650  -0.205  0.00  0.00     0.001 A 
HETATM    2  C   UNK N   1       5.503   2.058  -0.212  0.00  0.00     0.001 A 
HETATM    3  C   UNK N   1       4.199  -0.006  -0.146  0.00  0.00     0.016 A 
HETATM    4  C   UNK N   1       4.325   2.825  -0.159  0.00  0.00     0.016 A 
HETATM    5  C   UNK N   1       3.047   0.776  -0.090  0.00  0.00     0.025 A 
HETATM    6  C   UNK N   1       3.106   2.150  -0.097  0.00  0.00     0.025 A 
HETATM    7  C   UNK N   1       0.773   1.559   0.041  0.00  0.00     0.168 A 
HETATM    8  C   UNK N   1       1.654   0.345  -0.022  0.00  0.00     0.176 A 
HETATM    9  C   UNK N   1       1.750   2.698  -0.034  0.00  0.00     0.176 A 
HETATM   10  O   UNK N   1       1.274  -0.810  -0.038  0.00  0.00    -0.291 OA
HETATM   11  O   UNK N   1       1.466   3.882  -0.052  0.00  0.00    -0.291 OA
ENDROOT
BRANCH   7  12
HETATM   12  C   UNK N   1      -0.724   1.589   0.077  0.00  0.00    -0.039 A 
HETATM   13  C   UNK N   1      -1.414   2.806   0.022  0.00  0.00     0.011 A 
HETATM   14  C   UNK N   1      -2.812   2.818   0.004  0.00  0.00     0.043 A 
HETATM   15  C   UNK N   1      -3.523   1.614   0.044  0.00  0.00     0.116 A 
HETATM   16  C   UNK N   1      -2.837   0.399   0.118  0.00  0.00     0.043 A 
HETATM   17  F   UNK N   1      -4.876   1.622  -0.002  0.00  0.00    -0.206 F 
HETATM   18  C   UNK N   1      -1.442   0.388   0.133  0.00  0.00     0.011 A 
ENDBRANCH   7  12
TORSDOF 1
