MODEL 1
REMARK VINA RESULT:      -8.6      0.000      0.000
REMARK  11 active torsions:
REMARK  status: ('A' for Active; 'I' for Inactive)
REMARK    1  A    between atoms: C_15  and  C_12 
REMARK    2  A    between atoms: N_38  and  C_12 
REMARK    3  A    between atoms: C_23  and  C_16 
REMARK    4  A    between atoms: C_27  and  C_17 
REMARK    5  A    between atoms: S_51  and  C_18 
REMARK    6  A    between atoms: C_20  and  C_25 
REMARK    7  A    between atoms: O_49  and  C_21 
REMARK    8  A    between atoms: O_46  and  C_25 
REMARK    9  A    between atoms: N_44  and  C_26 
REMARK   10  A    between atoms: O_49  and  C_28 
REMARK   11  A    between atoms: S_51  and  N_45 
ROOT
HETATM    1  C   UNK N   1      34.320  14.605   7.234  0.00  0.00     0.140 C 
HETATM    2  C   UNK N   1      33.264  13.562   6.963  0.00  0.00     0.128 C 
HETATM    3  C   UNK N   1      32.717  15.532   8.904  0.00  0.00     0.154 C 
HETATM    4  C   UNK N   1      31.701  15.376   7.736  0.00  0.00     0.166 C 
HETATM    5  N   UNK N   1      34.062  15.094   8.557  0.00  0.00    -0.358 N 
HETATM    6  N   UNK N   1      31.931  14.174   6.878  0.00  0.00    -0.191 NA
ENDROOT
BRANCH   4   7
HETATM    7  C   UNK N   1      31.633  16.684   6.964  0.00  0.00     0.132 C 
HETATM    8  N   UNK N   1      30.506  17.247   6.660  0.00  0.00    -0.369 N 
ATOM      9  HN  UNK N   1      30.532  18.141   6.169  1.00  0.00     0.161 HD
BRANCH   8  10
HETATM   10  C   UNK N   1      29.211  16.677   6.975  0.00  0.00     0.160 C 
BRANCH  10  11
HETATM   11  C   UNK N   1      28.181  17.378   6.191  0.00  0.00    -0.037 A 
HETATM   12  C   UNK N   1      26.895  16.853   6.113  0.00  0.00     0.012 A 
HETATM   13  C   UNK N   1      25.993  17.381   5.195  0.00  0.00     0.041 A 
HETATM   14  C   UNK N   1      26.384  18.408   4.329  0.00  0.00     0.116 A 
HETATM   15  C   UNK N   1      27.672  18.978   4.464  0.00  0.00     0.150 A 
HETATM   16  C   UNK N   1      28.558  18.454   5.394  0.00  0.00     0.054 A 
HETATM   17  F   UNK N   1      28.095  19.997   3.681  0.00  0.00    -0.203 F 
BRANCH  14  18
HETATM   18  O   UNK N   1      25.523  18.757   3.345  0.00  0.00    -0.252 OA
BRANCH  18  19
HETATM   19  C   UNK N   1      24.918  19.998   3.263  0.00  0.00     0.530 C 
HETATM   20  F   UNK N   1      23.564  19.887   3.017  0.00  0.00    -0.144 F 
HETATM   21  F   UNK N   1      25.494  20.701   2.227  0.00  0.00    -0.144 F 
HETATM   22  F   UNK N   1      25.130  20.703   4.439  0.00  0.00    -0.144 F 
ENDBRANCH  18  19
ENDBRANCH  14  18
ENDBRANCH  10  11
ENDBRANCH   8  10
BRANCH   7  23
HETATM   23  O   UNK N   1      32.781  17.282   6.590  0.00  0.00    -0.348 OA
HETATM   24  H   UNK N   1      33.422  17.595   5.982  0.00  0.00     0.219 HD
ENDBRANCH   7  23
ENDBRANCH   4   7
BRANCH   6  25
HETATM   25  S   UNK N   1      31.495  14.280   5.140  0.00  0.00     0.244 S 
HETATM   26  O   UNK N   1      32.296  13.162   4.456  0.00  0.00    -0.206 OA
HETATM   27  O   UNK N   1      32.362  15.470   4.697  0.00  0.00    -0.206 OA
BRANCH  25  28
HETATM   28  C   UNK N   1      29.933  14.561   4.278  0.00  0.00     0.074 A 
HETATM   29  C   UNK N   1      29.742  15.568   3.321  0.00  0.00     0.025 A 
HETATM   30  C   UNK N   1      28.492  15.697   2.682  0.00  0.00     0.018 A 
HETATM   31  C   UNK N   1      27.427  14.844   3.031  0.00  0.00     0.048 A 
HETATM   32  C   UNK N   1      27.621  13.883   4.024  0.00  0.00     0.018 A 
HETATM   33  C   UNK N   1      28.859  13.744   4.635  0.00  0.00     0.025 A 
BRANCH  31  34
HETATM   34  C   UNK N   1      26.098  14.924   2.332  0.00  0.00     0.417 C 
HETATM   35  F   UNK N   1      25.061  14.998   3.251  0.00  0.00    -0.166 F 
HETATM   36  F   UNK N   1      26.049  16.041   1.521  0.00  0.00    -0.166 F 
HETATM   37  F   UNK N   1      25.916  13.791   1.560  0.00  0.00    -0.166 F 
ENDBRANCH  31  34
ENDBRANCH  25  28
ENDBRANCH   6  25
BRANCH   5  38
HETATM   38  C   UNK N   1      34.948  14.732   9.601  0.00  0.00     0.149 A 
HETATM   39  N   UNK N   1      34.697  14.966  10.916  0.00  0.00    -0.322 N 
HETATM   40  C   UNK N   1      35.599  14.304  11.716  0.00  0.00     0.127 A 
ATOM     41  HN  UNK N   1      33.940  15.553  11.264  1.00  0.00     0.169 HD
HETATM   42  C   UNK N   1      36.544  13.534  11.054  0.00  0.00     0.068 A 
HETATM   43  N   UNK N   1      35.560  14.331  13.063  0.00  0.00    -0.331 N 
HETATM   44  C   UNK N   1      37.442  12.759  11.765  0.00  0.00     0.112 A 
HETATM   45  S   UNK N   1      36.270  13.720   9.443  0.00  0.00    -0.049 SA
HETATM   46  N   UNK N   1      37.368  12.788  13.127  0.00  0.00    -0.354 N 
HETATM   47  C   UNK N   1      36.446  13.570  13.780  0.00  0.00     0.086 A 
ATOM     48  HN  UNK N   1      38.012  12.217  13.674  1.00  0.00     0.166 HD
ATOM     49  HN  UNK N   1      34.875  14.914  13.545  1.00  0.00     0.168 HD
BRANCH  47  50
HETATM   50  C   UNK N   1      36.413  13.573  15.278  0.00  0.00     0.053 A 
HETATM   51  C   UNK N   1      35.111  13.018  15.836  0.00  0.00     0.013 A 
HETATM   52  C   UNK N   1      36.340  12.139  15.778  0.00  0.00     0.013 A 
ENDBRANCH  47  50
ENDBRANCH   5  38
TORSDOF 11
ENDMDL
MODEL 2
REMARK VINA RESULT:      -8.3      7.050     12.116
REMARK  11 active torsions:
REMARK  status: ('A' for Active; 'I' for Inactive)
REMARK    1  A    between atoms: C_15  and  C_12 
REMARK    2  A    between atoms: N_38  and  C_12 
REMARK    3  A    between atoms: C_23  and  C_16 
REMARK    4  A    between atoms: C_27  and  C_17 
REMARK    5  A    between atoms: S_51  and  C_18 
REMARK    6  A    between atoms: C_20  and  C_25 
REMARK    7  A    between atoms: O_49  and  C_21 
REMARK    8  A    between atoms: O_46  and  C_25 
REMARK    9  A    between atoms: N_44  and  C_26 
REMARK   10  A    between atoms: O_49  and  C_28 
REMARK   11  A    between atoms: S_51  and  N_45 
ROOT
HETATM    1  C   UNK N   1      31.949  15.684   6.479  0.00  0.00     0.140 C 
HETATM    2  C   UNK N   1      33.361  16.208   6.385  0.00  0.00     0.128 C 
HETATM    3  C   UNK N   1      31.950  16.619   8.790  0.00  0.00     0.154 C 
HETATM    4  C   UNK N   1      33.324  15.896   8.882  0.00  0.00     0.166 C 
HETATM    5  N   UNK N   1      31.304  16.465   7.494  0.00  0.00    -0.358 N 
HETATM    6  N   UNK N   1      34.113  15.914   7.612  0.00  0.00    -0.191 NA
ENDROOT
BRANCH   4   7
HETATM    7  C   UNK N   1      33.112  14.505   9.458  0.00  0.00     0.132 C 
HETATM    8  N   UNK N   1      33.704  14.110  10.541  0.00  0.00    -0.369 N 
ATOM      9  HN  UNK N   1      33.492  13.176  10.892  1.00  0.00     0.161 HD
BRANCH   8  10
HETATM   10  C   UNK N   1      34.654  14.919  11.279  0.00  0.00     0.160 C 
BRANCH  10  11
HETATM   11  C   UNK N   1      35.284  14.085  12.314  0.00  0.00    -0.037 A 
HETATM   12  C   UNK N   1      34.944  12.739  12.420  0.00  0.00     0.012 A 
HETATM   13  C   UNK N   1      35.358  12.012  13.531  0.00  0.00     0.041 A 
HETATM   14  C   UNK N   1      36.080  12.634  14.555  0.00  0.00     0.116 A 
HETATM   15  C   UNK N   1      36.478  13.984  14.405  0.00  0.00     0.150 A 
HETATM   16  C   UNK N   1      36.072  14.696  13.285  0.00  0.00     0.054 A 
HETATM   17  F   UNK N   1      37.207  14.629  15.343  0.00  0.00    -0.203 F 
BRANCH  14  18
HETATM   18  O   UNK N   1      36.300  11.922  15.685  0.00  0.00    -0.252 OA
BRANCH  18  19
HETATM   19  C   UNK N   1      35.359  11.773  16.689  0.00  0.00     0.530 C 
HETATM   20  F   UNK N   1      35.956  11.598  17.921  0.00  0.00    -0.144 F 
HETATM   21  F   UNK N   1      34.593  10.661  16.412  0.00  0.00    -0.144 F 
HETATM   22  F   UNK N   1      34.524  12.880  16.720  0.00  0.00    -0.144 F 
ENDBRANCH  18  19
ENDBRANCH  14  18
ENDBRANCH  10  11
ENDBRANCH   8  10
BRANCH   7  23
HETATM   23  O   UNK N   1      32.274  13.658   8.829  0.00  0.00    -0.348 OA
HETATM   24  H   UNK N   1      31.639  12.971   8.772  0.00  0.00     0.219 HD
ENDBRANCH   7  23
ENDBRANCH   4   7
BRANCH   6  25
HETATM   25  S   UNK N   1      35.189  14.521   7.266  0.00  0.00     0.244 S 
HETATM   26  O   UNK N   1      36.097  14.990   6.119  0.00  0.00    -0.206 OA
HETATM   27  O   UNK N   1      34.247  13.626   6.444  0.00  0.00    -0.206 OA
BRANCH  25  28
HETATM   28  C   UNK N   1      36.060  13.345   8.324  0.00  0.00     0.074 A 
HETATM   29  C   UNK N   1      37.187  13.675   9.093  0.00  0.00     0.025 A 
HETATM   30  C   UNK N   1      37.786  12.695   9.909  0.00  0.00     0.018 A 
HETATM   31  C   UNK N   1      37.282  11.380   9.925  0.00  0.00     0.048 A 
HETATM   32  C   UNK N   1      36.194  11.058   9.113  0.00  0.00     0.018 A 
HETATM   33  C   UNK N   1      35.592  12.030   8.326  0.00  0.00     0.025 A 
BRANCH  31  34
HETATM   34  C   UNK N   1      37.869  10.325  10.823  0.00  0.00     0.417 C 
HETATM   35  F   UNK N   1      38.138  10.843  12.081  0.00  0.00    -0.166 F 
HETATM   36  F   UNK N   1      36.990   9.269  10.960  0.00  0.00    -0.166 F 
HETATM   37  F   UNK N   1      39.054   9.867  10.277  0.00  0.00    -0.166 F 
ENDBRANCH  31  34
ENDBRANCH  25  28
ENDBRANCH   6  25
BRANCH   5  38
HETATM   38  C   UNK N   1      30.329  17.415   7.104  0.00  0.00     0.149 A 
HETATM   39  N   UNK N   1      29.856  17.531   5.835  0.00  0.00    -0.322 N 
HETATM   40  C   UNK N   1      28.759  18.359   5.791  0.00  0.00     0.127 A 
ATOM     41  HN  UNK N   1      30.261  17.065   5.023  1.00  0.00     0.169 HD
HETATM   42  C   UNK N   1      28.345  18.880   7.008  0.00  0.00     0.068 A 
HETATM   43  N   UNK N   1      28.069  18.621   4.663  0.00  0.00    -0.331 N 
HETATM   44  C   UNK N   1      27.201  19.654   7.088  0.00  0.00     0.112 A 
HETATM   45  S   UNK N   1      29.394  18.329   8.147  0.00  0.00    -0.049 SA
HETATM   46  N   UNK N   1      26.509  19.887   5.935  0.00  0.00    -0.354 N 
HETATM   47  C   UNK N   1      26.935  19.388   4.728  0.00  0.00     0.086 A 
ATOM     48  HN  UNK N   1      25.656  20.445   5.969  1.00  0.00     0.166 HD
ATOM     49  HN  UNK N   1      28.389  18.251   3.768  1.00  0.00     0.168 HD
BRANCH  47  50
HETATM   50  C   UNK N   1      26.143  19.682   3.489  0.00  0.00     0.053 A 
HETATM   51  C   UNK N   1      24.863  18.864   3.407  0.00  0.00     0.013 A 
HETATM   52  C   UNK N   1      24.810  20.298   3.885  0.00  0.00     0.013 A 
ENDBRANCH  47  50
ENDBRANCH   5  38
TORSDOF 11
ENDMDL
MODEL 3
REMARK VINA RESULT:      -8.0      2.897      5.287
REMARK  11 active torsions:
REMARK  status: ('A' for Active; 'I' for Inactive)
REMARK    1  A    between atoms: C_15  and  C_12 
REMARK    2  A    between atoms: N_38  and  C_12 
REMARK    3  A    between atoms: C_23  and  C_16 
REMARK    4  A    between atoms: C_27  and  C_17 
REMARK    5  A    between atoms: S_51  and  C_18 
REMARK    6  A    between atoms: C_20  and  C_25 
REMARK    7  A    between atoms: O_49  and  C_21 
REMARK    8  A    between atoms: O_46  and  C_25 
REMARK    9  A    between atoms: N_44  and  C_26 
REMARK   10  A    between atoms: O_49  and  C_28 
REMARK   11  A    between atoms: S_51  and  N_45 
ROOT
HETATM    1  C   UNK N   1      34.382  15.244  10.862  0.00  0.00     0.140 C 
HETATM    2  C   UNK N   1      35.295  15.791   9.792  0.00  0.00     0.128 C 
HETATM    3  C   UNK N   1      34.640  13.051   9.705  0.00  0.00     0.154 C 
HETATM    4  C   UNK N   1      34.343  13.898   8.435  0.00  0.00     0.166 C 
HETATM    5  N   UNK N   1      34.652  13.837  10.931  0.00  0.00    -0.358 N 
HETATM    6  N   UNK N   1      34.918  15.278   8.469  0.00  0.00    -0.191 NA
ENDROOT
BRANCH   4   7
HETATM    7  C   UNK N   1      32.850  13.858   8.152  0.00  0.00     0.132 C 
HETATM    8  N   UNK N   1      32.377  13.552   6.985  0.00  0.00    -0.369 N 
ATOM      9  HN  UNK N   1      31.364  13.510   6.872  1.00  0.00     0.161 HD
BRANCH   8  10
HETATM   10  C   UNK N   1      33.207  13.268   5.830  0.00  0.00     0.160 C 
BRANCH  10  11
HETATM   11  C   UNK N   1      32.377  13.352   4.618  0.00  0.00    -0.037 A 
HETATM   12  C   UNK N   1      32.226  14.571   3.965  0.00  0.00     0.012 A 
HETATM   13  C   UNK N   1      31.267  14.702   2.967  0.00  0.00     0.041 A 
HETATM   14  C   UNK N   1      30.432  13.627   2.643  0.00  0.00     0.116 A 
HETATM   15  C   UNK N   1      30.639  12.373   3.266  0.00  0.00     0.150 A 
HETATM   16  C   UNK N   1      31.610  12.250   4.250  0.00  0.00     0.054 A 
HETATM   17  F   UNK N   1      29.889  11.288   2.969  0.00  0.00    -0.203 F 
BRANCH  14  18
HETATM   18  O   UNK N   1      29.407  13.867   1.792  0.00  0.00    -0.252 OA
BRANCH  18  19
HETATM   19  C   UNK N   1      28.094  14.021   2.202  0.00  0.00     0.530 C 
HETATM   20  F   UNK N   1      27.461  15.032   1.508  0.00  0.00    -0.144 F 
HETATM   21  F   UNK N   1      28.087  14.340   3.543  0.00  0.00    -0.144 F 
HETATM   22  F   UNK N   1      27.406  12.827   2.035  0.00  0.00    -0.144 F 
ENDBRANCH  18  19
ENDBRANCH  14  18
ENDBRANCH  10  11
ENDBRANCH   8  10
BRANCH   7  23
HETATM   23  O   UNK N   1      31.989  14.139   9.149  0.00  0.00    -0.348 OA
HETATM   24  H   UNK N   1      31.640  14.083  10.018  0.00  0.00     0.219 HD
ENDBRANCH   7  23
ENDBRANCH   4   7
BRANCH   6  25
HETATM   25  S   UNK N   1      34.033  16.584   7.614  0.00  0.00     0.244 S 
HETATM   26  O   UNK N   1      34.614  16.600   6.193  0.00  0.00    -0.206 OA
HETATM   27  O   UNK N   1      34.757  17.827   8.158  0.00  0.00    -0.206 OA
BRANCH  25  28
HETATM   28  C   UNK N   1      32.299  17.089   7.597  0.00  0.00     0.074 A 
HETATM   29  C   UNK N   1      31.443  16.898   6.502  0.00  0.00     0.025 A 
HETATM   30  C   UNK N   1      30.096  17.305   6.590  0.00  0.00     0.018 A 
HETATM   31  C   UNK N   1      29.621  17.935   7.756  0.00  0.00     0.048 A 
HETATM   32  C   UNK N   1      30.501  18.165   8.814  0.00  0.00     0.018 A 
HETATM   33  C   UNK N   1      31.821  17.744   8.733  0.00  0.00     0.025 A 
BRANCH  31  34
HETATM   34  C   UNK N   1      28.177  18.334   7.899  0.00  0.00     0.417 C 
HETATM   35  F   UNK N   1      27.993  19.657   7.523  0.00  0.00    -0.166 F 
HETATM   36  F   UNK N   1      27.378  17.535   7.105  0.00  0.00    -0.166 F 
HETATM   37  F   UNK N   1      27.792  18.198   9.220  0.00  0.00    -0.166 F 
ENDBRANCH  31  34
ENDBRANCH  25  28
ENDBRANCH   6  25
BRANCH   5  38
HETATM   38  C   UNK N   1      35.351  13.332  12.054  0.00  0.00     0.149 A 
HETATM   39  N   UNK N   1      34.807  13.230  13.296  0.00  0.00    -0.322 N 
HETATM   40  C   UNK N   1      35.615  12.494  14.129  0.00  0.00     0.127 A 
ATOM     41  HN  UNK N   1      33.917  13.644  13.572  1.00  0.00     0.169 HD
HETATM   42  C   UNK N   1      36.777  11.994  13.560  0.00  0.00     0.068 A 
HETATM   43  N   UNK N   1      35.299  12.205  15.408  0.00  0.00    -0.331 N 
HETATM   44  C   UNK N   1      37.616  11.167  14.286  0.00  0.00     0.112 A 
HETATM   45  S   UNK N   1      36.811  12.519  12.002  0.00  0.00    -0.049 SA
HETATM   46  N   UNK N   1      37.263  10.874  15.570  0.00  0.00    -0.354 N 
HETATM   47  C   UNK N   1      36.123  11.389  16.139  0.00  0.00     0.086 A 
ATOM     48  HN  UNK N   1      37.859  10.258  16.123  1.00  0.00     0.166 HD
ATOM     49  HN  UNK N   1      34.453  12.590  15.827  1.00  0.00     0.168 HD
BRANCH  47  50
HETATM   50  C   UNK N   1      35.787  11.043  17.558  0.00  0.00     0.053 A 
HETATM   51  C   UNK N   1      35.017   9.735  17.673  0.00  0.00     0.013 A 
HETATM   52  C   UNK N   1      36.506   9.758  17.941  0.00  0.00     0.013 A 
ENDBRANCH  47  50
ENDBRANCH   5  38
TORSDOF 11
ENDMDL
MODEL 4
REMARK VINA RESULT:      -7.8      2.794      5.165
REMARK  11 active torsions:
REMARK  status: ('A' for Active; 'I' for Inactive)
REMARK    1  A    between atoms: C_15  and  C_12 
REMARK    2  A    between atoms: N_38  and  C_12 
REMARK    3  A    between atoms: C_23  and  C_16 
REMARK    4  A    between atoms: C_27  and  C_17 
REMARK    5  A    between atoms: S_51  and  C_18 
REMARK    6  A    between atoms: C_20  and  C_25 
REMARK    7  A    between atoms: O_49  and  C_21 
REMARK    8  A    between atoms: O_46  and  C_25 
REMARK    9  A    between atoms: N_44  and  C_26 
REMARK   10  A    between atoms: O_49  and  C_28 
REMARK   11  A    between atoms: S_51  and  N_45 
ROOT
HETATM    1  C   UNK N   1      34.387  15.442  10.896  0.00  0.00     0.140 C 
HETATM    2  C   UNK N   1      35.209  16.056   9.789  0.00  0.00     0.128 C 
HETATM    3  C   UNK N   1      34.510  13.334   9.570  0.00  0.00     0.154 C 
HETATM    4  C   UNK N   1      34.114  14.272   8.393  0.00  0.00     0.166 C 
HETATM    5  N   UNK N   1      34.641  14.032  10.842  0.00  0.00    -0.358 N 
HETATM    6  N   UNK N   1      34.710  15.641   8.472  0.00  0.00    -0.191 NA
ENDROOT
BRANCH   4   7
HETATM    7  C   UNK N   1      32.601  14.263   8.243  0.00  0.00     0.132 C 
HETATM    8  N   UNK N   1      32.017  13.820   7.174  0.00  0.00    -0.369 N 
ATOM      9  HN  UNK N   1      30.998  13.811   7.152  1.00  0.00     0.161 HD
BRANCH   8  10
HETATM   10  C   UNK N   1      32.732  13.339   6.008  0.00  0.00     0.160 C 
BRANCH  10  11
HETATM   11  C   UNK N   1      31.870  13.498   4.826  0.00  0.00    -0.037 A 
HETATM   12  C   UNK N   1      30.501  13.688   4.988  0.00  0.00     0.012 A 
HETATM   13  C   UNK N   1      29.661  13.607   3.883  0.00  0.00     0.041 A 
HETATM   14  C   UNK N   1      30.180  13.298   2.620  0.00  0.00     0.116 A 
HETATM   15  C   UNK N   1      31.580  13.174   2.456  0.00  0.00     0.150 A 
HETATM   16  C   UNK N   1      32.410  13.273   3.563  0.00  0.00     0.054 A 
HETATM   17  F   UNK N   1      32.145  12.913   1.255  0.00  0.00    -0.203 F 
BRANCH  14  18
HETATM   18  O   UNK N   1      29.297  13.060   1.623  0.00  0.00    -0.252 OA
BRANCH  18  19
HETATM   19  C   UNK N   1      28.979  11.791   1.171  0.00  0.00     0.530 C 
HETATM   20  F   UNK N   1      29.400  10.818   2.054  0.00  0.00    -0.144 F 
HETATM   21  F   UNK N   1      29.607  11.585  -0.038  0.00  0.00    -0.144 F 
HETATM   22  F   UNK N   1      27.609  11.692   0.973  0.00  0.00    -0.144 F 
ENDBRANCH  18  19
ENDBRANCH  14  18
ENDBRANCH  10  11
ENDBRANCH   8  10
BRANCH   7  23
HETATM   23  O   UNK N   1      31.842  14.722   9.257  0.00  0.00    -0.348 OA
HETATM   24  H   UNK N   1      31.052  14.831   9.750  0.00  0.00     0.219 HD
ENDBRANCH   7  23
ENDBRANCH   4   7
BRANCH   6  25
HETATM   25  S   UNK N   1      33.771  17.011   7.793  0.00  0.00     0.244 S 
HETATM   26  O   UNK N   1      34.806  18.114   7.528  0.00  0.00    -0.206 OA
HETATM   27  O   UNK N   1      33.151  17.598   9.071  0.00  0.00    -0.206 OA
BRANCH  25  28
HETATM   28  C   UNK N   1      32.422  17.106   6.596  0.00  0.00     0.074 A 
HETATM   29  C   UNK N   1      32.613  17.142   5.207  0.00  0.00     0.025 A 
HETATM   30  C   UNK N   1      31.496  17.192   4.349  0.00  0.00     0.018 A 
HETATM   31  C   UNK N   1      30.194  17.244   4.883  0.00  0.00     0.048 A 
HETATM   32  C   UNK N   1      30.026  17.261   6.268  0.00  0.00     0.018 A 
HETATM   33  C   UNK N   1      31.127  17.190   7.110  0.00  0.00     0.025 A 
BRANCH  31  34
HETATM   34  C   UNK N   1      28.981  17.247   3.993  0.00  0.00     0.417 C 
HETATM   35  F   UNK N   1      28.013  16.380   4.477  0.00  0.00    -0.166 F 
HETATM   36  F   UNK N   1      28.441  18.517   3.924  0.00  0.00    -0.166 F 
HETATM   37  F   UNK N   1      29.342  16.834   2.724  0.00  0.00    -0.166 F 
ENDBRANCH  31  34
ENDBRANCH  25  28
ENDBRANCH   6  25
BRANCH   5  38
HETATM   38  C   UNK N   1      35.430  13.443  11.860  0.00  0.00     0.149 A 
HETATM   39  N   UNK N   1      34.982  13.219  13.124  0.00  0.00    -0.322 N 
HETATM   40  C   UNK N   1      35.861  12.428  13.825  0.00  0.00     0.127 A 
ATOM     41  HN  UNK N   1      34.109  13.588  13.501  1.00  0.00     0.169 HD
HETATM   42  C   UNK N   1      36.984  12.005  13.129  0.00  0.00     0.068 A 
HETATM   43  N   UNK N   1      35.646  12.019  15.092  0.00  0.00    -0.331 N 
HETATM   44  C   UNK N   1      37.887  11.135  13.714  0.00  0.00     0.112 A 
HETATM   45  S   UNK N   1      36.893  12.669  11.628  0.00  0.00    -0.049 SA
HETATM   46  N   UNK N   1      37.635  10.721  14.989  0.00  0.00    -0.354 N 
HETATM   47  C   UNK N   1      36.534  11.159  15.684  0.00  0.00     0.086 A 
ATOM     48  HN  UNK N   1      38.280  10.071  15.438  1.00  0.00     0.166 HD
ATOM     49  HN  UNK N   1      34.828  12.348  15.606  1.00  0.00     0.168 HD
BRANCH  47  50
HETATM   50  C   UNK N   1      36.310  10.680  17.086  0.00  0.00     0.053 A 
HETATM   51  C   UNK N   1      35.278   9.565  17.165  0.00  0.00     0.013 A 
HETATM   52  C   UNK N   1      36.753   9.229  17.194  0.00  0.00     0.013 A 
ENDBRANCH  47  50
ENDBRANCH   5  38
TORSDOF 11
ENDMDL
MODEL 5
REMARK VINA RESULT:      -7.8      3.747      6.671
REMARK  11 active torsions:
REMARK  status: ('A' for Active; 'I' for Inactive)
REMARK    1  A    between atoms: C_15  and  C_12 
REMARK    2  A    between atoms: N_38  and  C_12 
REMARK    3  A    between atoms: C_23  and  C_16 
REMARK    4  A    between atoms: C_27  and  C_17 
REMARK    5  A    between atoms: S_51  and  C_18 
REMARK    6  A    between atoms: C_20  and  C_25 
REMARK    7  A    between atoms: O_49  and  C_21 
REMARK    8  A    between atoms: O_46  and  C_25 
REMARK    9  A    between atoms: N_44  and  C_26 
REMARK   10  A    between atoms: O_49  and  C_28 
REMARK   11  A    between atoms: S_51  and  N_45 
ROOT
HETATM    1  C   UNK N   1      34.147  15.185  10.359  0.00  0.00     0.140 C 
HETATM    2  C   UNK N   1      34.976  16.254   9.692  0.00  0.00     0.128 C 
HETATM    3  C   UNK N   1      35.584  13.560   9.130  0.00  0.00     0.154 C 
HETATM    4  C   UNK N   1      35.282  14.492   7.923  0.00  0.00     0.166 C 
HETATM    5  N   UNK N   1      34.959  14.003  10.369  0.00  0.00    -0.358 N 
HETATM    6  N   UNK N   1      35.192  15.942   8.274  0.00  0.00    -0.191 NA
ENDROOT
BRANCH   4   7
HETATM    7  C   UNK N   1      34.067  13.959   7.180  0.00  0.00     0.132 C 
HETATM    8  N   UNK N   1      34.123  13.597   5.937  0.00  0.00    -0.369 N 
ATOM      9  HN  UNK N   1      33.279  13.217   5.508  1.00  0.00     0.161 HD
BRANCH   8  10
HETATM   10  C   UNK N   1      35.316  13.705   5.120  0.00  0.00     0.160 C 
BRANCH  10  11
HETATM   11  C   UNK N   1      34.981  13.323   3.739  0.00  0.00    -0.037 A 
HETATM   12  C   UNK N   1      35.991  13.204   2.790  0.00  0.00     0.012 A 
HETATM   13  C   UNK N   1      35.658  13.073   1.446  0.00  0.00     0.041 A 
HETATM   14  C   UNK N   1      34.319  13.096   1.043  0.00  0.00     0.116 A 
HETATM   15  C   UNK N   1      33.299  13.149   2.023  0.00  0.00     0.150 A 
HETATM   16  C   UNK N   1      33.643  13.264   3.363  0.00  0.00     0.054 A 
HETATM   17  F   UNK N   1      31.986  13.138   1.699  0.00  0.00    -0.203 F 
BRANCH  14  18
HETATM   18  O   UNK N   1      34.067  13.142  -0.286  0.00  0.00    -0.252 OA
BRANCH  18  19
HETATM   19  C   UNK N   1      33.518  12.089  -0.996  0.00  0.00     0.530 C 
HETATM   20  F   UNK N   1      32.153  12.231  -1.142  0.00  0.00    -0.144 F 
HETATM   21  F   UNK N   1      33.764  10.919  -0.309  0.00  0.00    -0.144 F 
HETATM   22  F   UNK N   1      34.122  11.996  -2.242  0.00  0.00    -0.144 F 
ENDBRANCH  18  19
ENDBRANCH  14  18
ENDBRANCH  10  11
ENDBRANCH   8  10
BRANCH   7  23
HETATM   23  O   UNK N   1      32.896  13.850   7.837  0.00  0.00    -0.348 OA
HETATM   24  H   UNK N   1      32.343  13.672   8.574  0.00  0.00     0.219 HD
ENDBRANCH   7  23
ENDBRANCH   4   7
BRANCH   6  25
HETATM   25  S   UNK N   1      34.080  16.976   7.317  0.00  0.00     0.244 S 
HETATM   26  O   UNK N   1      34.547  16.831   5.862  0.00  0.00    -0.206 OA
HETATM   27  O   UNK N   1      34.670  18.369   7.596  0.00  0.00    -0.206 OA
BRANCH  25  28
HETATM   28  C   UNK N   1      32.298  17.260   7.386  0.00  0.00     0.074 A 
HETATM   29  C   UNK N   1      31.416  16.934   6.345  0.00  0.00     0.025 A 
HETATM   30  C   UNK N   1      30.035  17.172   6.499  0.00  0.00     0.018 A 
HETATM   31  C   UNK N   1      29.546  17.767   7.677  0.00  0.00     0.048 A 
HETATM   32  C   UNK N   1      30.444  18.133   8.680  0.00  0.00     0.018 A 
HETATM   33  C   UNK N   1      31.801  17.879   8.535  0.00  0.00     0.025 A 
BRANCH  31  34
HETATM   34  C   UNK N   1      28.073  17.987   7.891  0.00  0.00     0.417 C 
HETATM   35  F   UNK N   1      27.584  17.130   8.866  0.00  0.00    -0.166 F 
HETATM   36  F   UNK N   1      27.835  19.288   8.289  0.00  0.00    -0.166 F 
HETATM   37  F   UNK N   1      27.396  17.737   6.712  0.00  0.00    -0.166 F 
ENDBRANCH  31  34
ENDBRANCH  25  28
ENDBRANCH   6  25
BRANCH   5  38
HETATM   38  C   UNK N   1      35.503  13.562  11.600  0.00  0.00     0.149 A 
HETATM   39  N   UNK N   1      34.769  13.397  12.732  0.00  0.00    -0.322 N 
HETATM   40  C   UNK N   1      35.493  12.738  13.697  0.00  0.00     0.127 A 
ATOM     41  HN  UNK N   1      33.808  13.717  12.849  1.00  0.00     0.169 HD
HETATM   42  C   UNK N   1      36.779  12.361  13.339  0.00  0.00     0.068 A 
HETATM   43  N   UNK N   1      34.995  12.409  14.907  0.00  0.00    -0.331 N 
HETATM   44  C   UNK N   1      37.561  11.618  14.205  0.00  0.00     0.112 A 
HETATM   45  S   UNK N   1      37.025  12.899  11.805  0.00  0.00    -0.049 SA
HETATM   46  N   UNK N   1      37.026  11.281  15.413  0.00  0.00    -0.354 N 
HETATM   47  C   UNK N   1      35.760  11.675  15.775  0.00  0.00     0.086 A 
ATOM     48  HN  UNK N   1      37.578  10.724  16.065  1.00  0.00     0.166 HD
ATOM     49  HN  UNK N   1      34.056  12.705  15.172  1.00  0.00     0.168 HD
BRANCH  47  50
HETATM   50  C   UNK N   1      35.224  11.286  17.119  0.00  0.00     0.053 A 
HETATM   51  C   UNK N   1      34.777   9.833  17.171  0.00  0.00     0.013 A 
HETATM   52  C   UNK N   1      36.127  10.225  17.728  0.00  0.00     0.013 A 
ENDBRANCH  47  50
ENDBRANCH   5  38
TORSDOF 11
ENDMDL
MODEL 6
REMARK VINA RESULT:      -7.7      5.391      8.619
REMARK  11 active torsions:
REMARK  status: ('A' for Active; 'I' for Inactive)
REMARK    1  A    between atoms: C_15  and  C_12 
REMARK    2  A    between atoms: N_38  and  C_12 
REMARK    3  A    between atoms: C_23  and  C_16 
REMARK    4  A    between atoms: C_27  and  C_17 
REMARK    5  A    between atoms: S_51  and  C_18 
REMARK    6  A    between atoms: C_20  and  C_25 
REMARK    7  A    between atoms: O_49  and  C_21 
REMARK    8  A    between atoms: O_46  and  C_25 
REMARK    9  A    between atoms: N_44  and  C_26 
REMARK   10  A    between atoms: O_49  and  C_28 
REMARK   11  A    between atoms: S_51  and  N_45 
ROOT
HETATM    1  C   UNK N   1      34.235  15.326  10.633  0.00  0.00     0.140 C 
HETATM    2  C   UNK N   1      34.981  16.538  10.129  0.00  0.00     0.128 C 
HETATM    3  C   UNK N   1      35.881  13.993   9.318  0.00  0.00     0.154 C 
HETATM    4  C   UNK N   1      35.539  15.020   8.201  0.00  0.00     0.166 C 
HETATM    5  N   UNK N   1      35.160  14.233  10.561  0.00  0.00    -0.358 N 
HETATM    6  N   UNK N   1      35.288  16.407   8.699  0.00  0.00    -0.191 NA
ENDROOT
BRANCH   4   7
HETATM    7  C   UNK N   1      34.417  14.460   7.341  0.00  0.00     0.132 C 
HETATM    8  N   UNK N   1      34.554  14.271   6.067  0.00  0.00    -0.369 N 
ATOM      9  HN  UNK N   1      33.773  13.860   5.555  1.00  0.00     0.161 HD
BRANCH   8  10
HETATM   10  C   UNK N   1      35.753  14.613   5.327  0.00  0.00     0.160 C 
BRANCH  10  11
HETATM   11  C   UNK N   1      36.787  13.604   5.608  0.00  0.00    -0.037 A 
HETATM   12  C   UNK N   1      36.421  12.278   5.816  0.00  0.00     0.012 A 
HETATM   13  C   UNK N   1      37.359  11.376   6.306  0.00  0.00     0.041 A 
HETATM   14  C   UNK N   1      38.653  11.804   6.625  0.00  0.00     0.116 A 
HETATM   15  C   UNK N   1      39.032  13.138   6.346  0.00  0.00     0.150 A 
HETATM   16  C   UNK N   1      38.092  14.025   5.842  0.00  0.00     0.054 A 
HETATM   17  F   UNK N   1      40.278  13.601   6.597  0.00  0.00    -0.203 F 
BRANCH  14  18
HETATM   18  O   UNK N   1      39.462  10.924   7.260  0.00  0.00    -0.252 OA
BRANCH  18  19
HETATM   19  C   UNK N   1      39.807  11.031   8.596  0.00  0.00     0.530 C 
HETATM   20  F   UNK N   1      41.012  11.684   8.758  0.00  0.00    -0.144 F 
HETATM   21  F   UNK N   1      39.923   9.763   9.123  0.00  0.00    -0.144 F 
HETATM   22  F   UNK N   1      38.808  11.701   9.288  0.00  0.00    -0.144 F 
ENDBRANCH  18  19
ENDBRANCH  14  18
ENDBRANCH  10  11
ENDBRANCH   8  10
BRANCH   7  23
HETATM   23  O   UNK N   1      33.245  14.140   7.924  0.00  0.00    -0.348 OA
HETATM   24  H   UNK N   1      32.583  14.177   8.588  0.00  0.00     0.219 HD
ENDBRANCH   7  23
ENDBRANCH   4   7
BRANCH   6  25
HETATM   25  S   UNK N   1      34.121  17.431   7.799  0.00  0.00     0.244 S 
HETATM   26  O   UNK N   1      34.657  17.483   6.362  0.00  0.00    -0.206 OA
HETATM   27  O   UNK N   1      34.563  18.834   8.247  0.00  0.00    -0.206 OA
BRANCH  25  28
HETATM   28  C   UNK N   1      32.318  17.542   7.810  0.00  0.00     0.074 A 
HETATM   29  C   UNK N   1      31.496  16.964   6.830  0.00  0.00     0.025 A 
HETATM   30  C   UNK N   1      30.096  17.083   6.934  0.00  0.00     0.018 A 
HETATM   31  C   UNK N   1      29.524  17.811   7.995  0.00  0.00     0.048 A 
HETATM   32  C   UNK N   1      30.359  18.424   8.930  0.00  0.00     0.018 A 
HETATM   33  C   UNK N   1      31.737  18.287   8.837  0.00  0.00     0.025 A 
BRANCH  31  34
HETATM   34  C   UNK N   1      28.032  17.914   8.161  0.00  0.00     0.417 C 
HETATM   35  F   UNK N   1      27.393  16.849   7.543  0.00  0.00    -0.166 F 
HETATM   36  F   UNK N   1      27.698  17.911   9.501  0.00  0.00    -0.166 F 
HETATM   37  F   UNK N   1      27.586  19.087   7.581  0.00  0.00    -0.166 F 
ENDBRANCH  31  34
ENDBRANCH  25  28
ENDBRANCH   6  25
BRANCH   5  38
HETATM   38  C   UNK N   1      35.692  13.712  11.765  0.00  0.00     0.149 A 
HETATM   39  N   UNK N   1      34.982  13.609  12.920  0.00  0.00    -0.322 N 
HETATM   40  C   UNK N   1      35.660  12.857  13.850  0.00  0.00     0.127 A 
ATOM     41  HN  UNK N   1      34.068  14.033  13.075  1.00  0.00     0.169 HD
HETATM   42  C   UNK N   1      36.882  12.345  13.441  0.00  0.00     0.068 A 
HETATM   43  N   UNK N   1      35.168  12.564  15.071  0.00  0.00    -0.331 N 
HETATM   44  C   UNK N   1      37.604  11.503  14.268  0.00  0.00     0.112 A 
HETATM   45  S   UNK N   1      37.136  12.880  11.907  0.00  0.00    -0.049 SA
HETATM   46  N   UNK N   1      37.075  11.206  15.490  0.00  0.00    -0.354 N 
HETATM   47  C   UNK N   1      35.874  11.733  15.901  0.00  0.00     0.086 A 
ATOM     48  HN  UNK N   1      37.582  10.579  16.114  1.00  0.00     0.166 HD
ATOM     49  HN  UNK N   1      34.278  12.958  15.374  1.00  0.00     0.168 HD
BRANCH  47  50
HETATM   50  C   UNK N   1      35.343  11.382  17.258  0.00  0.00     0.053 A 
HETATM   51  C   UNK N   1      34.753   9.980  17.309  0.00  0.00     0.013 A 
HETATM   52  C   UNK N   1      36.152  10.227  17.827  0.00  0.00     0.013 A 
ENDBRANCH  47  50
ENDBRANCH   5  38
TORSDOF 11
ENDMDL
MODEL 7
REMARK VINA RESULT:      -7.6      9.189     14.290
REMARK  11 active torsions:
REMARK  status: ('A' for Active; 'I' for Inactive)
REMARK    1  A    between atoms: C_15  and  C_12 
REMARK    2  A    between atoms: N_38  and  C_12 
REMARK    3  A    between atoms: C_23  and  C_16 
REMARK    4  A    between atoms: C_27  and  C_17 
REMARK    5  A    between atoms: S_51  and  C_18 
REMARK    6  A    between atoms: C_20  and  C_25 
REMARK    7  A    between atoms: O_49  and  C_21 
REMARK    8  A    between atoms: O_46  and  C_25 
REMARK    9  A    between atoms: N_44  and  C_26 
REMARK   10  A    between atoms: O_49  and  C_28 
REMARK   11  A    between atoms: S_51  and  N_45 
ROOT
HETATM    1  C   UNK N   1      35.564  12.090  10.228  0.00  0.00     0.140 C 
HETATM    2  C   UNK N   1      36.972  11.856  10.717  0.00  0.00     0.128 C 
HETATM    3  C   UNK N   1      35.348  13.657  12.155  0.00  0.00     0.154 C 
HETATM    4  C   UNK N   1      35.980  12.475  12.946  0.00  0.00     0.166 C 
HETATM    5  N   UNK N   1      35.175  13.373  10.737  0.00  0.00    -0.358 N 
HETATM    6  N   UNK N   1      37.001  11.699  12.178  0.00  0.00    -0.191 NA
ENDROOT
BRANCH   4   7
HETATM    7  C   UNK N   1      34.866  11.622  13.531  0.00  0.00     0.132 C 
HETATM    8  N   UNK N   1      34.756  11.411  14.805  0.00  0.00    -0.369 N 
ATOM      9  HN  UNK N   1      33.966  10.857  15.134  1.00  0.00     0.161 HD
BRANCH   8  10
HETATM   10  C   UNK N   1      35.694  11.917  15.788  0.00  0.00     0.160 C 
BRANCH  10  11
HETATM   11  C   UNK N   1      35.215  11.554  17.131  0.00  0.00    -0.037 A 
HETATM   12  C   UNK N   1      35.369  12.449  18.186  0.00  0.00     0.012 A 
HETATM   13  C   UNK N   1      35.132  12.022  19.488  0.00  0.00     0.041 A 
HETATM   14  C   UNK N   1      34.776  10.693  19.743  0.00  0.00     0.116 A 
HETATM   15  C   UNK N   1      34.556   9.812  18.659  0.00  0.00     0.150 A 
HETATM   16  C   UNK N   1      34.781  10.253  17.362  0.00  0.00     0.054 A 
HETATM   17  F   UNK N   1      34.176   8.526  18.839  0.00  0.00    -0.203 F 
BRANCH  14  18
HETATM   18  O   UNK N   1      34.731  10.296  21.037  0.00  0.00    -0.252 OA
BRANCH  18  19
HETATM   19  C   UNK N   1      33.565  10.242  21.780  0.00  0.00     0.530 C 
HETATM   20  F   UNK N   1      33.767   9.622  22.996  0.00  0.00    -0.144 F 
HETATM   21  F   UNK N   1      32.626   9.521  21.072  0.00  0.00    -0.144 F 
HETATM   22  F   UNK N   1      33.072  11.524  21.976  0.00  0.00    -0.144 F 
ENDBRANCH  18  19
ENDBRANCH  14  18
ENDBRANCH  10  11
ENDBRANCH   8  10
BRANCH   7  23
HETATM   23  O   UNK N   1      33.958  11.074  12.701  0.00  0.00    -0.348 OA
HETATM   24  H   UNK N   1      33.353  11.063  11.984  0.00  0.00     0.219 HD
ENDBRANCH   7  23
ENDBRANCH   4   7
BRANCH   6  25
HETATM   25  S   UNK N   1      37.172   9.948  12.529  0.00  0.00     0.244 S 
HETATM   26  O   UNK N   1      38.340   9.474  11.653  0.00  0.00    -0.206 OA
HETATM   27  O   UNK N   1      36.022   9.371  11.689  0.00  0.00    -0.206 OA
BRANCH  25  28
HETATM   28  C   UNK N   1      37.093   8.986  14.056  0.00  0.00     0.074 A 
HETATM   29  C   UNK N   1      37.975   9.160  15.133  0.00  0.00     0.025 A 
HETATM   30  C   UNK N   1      37.821   8.377  16.295  0.00  0.00     0.018 A 
HETATM   31  C   UNK N   1      36.811   7.398  16.361  0.00  0.00     0.048 A 
HETATM   32  C   UNK N   1      35.978   7.202  15.259  0.00  0.00     0.018 A 
HETATM   33  C   UNK N   1      36.118   7.989  14.124  0.00  0.00     0.025 A 
BRANCH  31  34
HETATM   34  C   UNK N   1      36.590   6.582  17.606  0.00  0.00     0.417 C 
HETATM   35  F   UNK N   1      37.427   5.476  17.625  0.00  0.00    -0.166 F 
HETATM   36  F   UNK N   1      36.841   7.345  18.729  0.00  0.00    -0.166 F 
HETATM   37  F   UNK N   1      35.281   6.138  17.637  0.00  0.00    -0.166 F 
ENDBRANCH  31  34
ENDBRANCH  25  28
ENDBRANCH   6  25
BRANCH   5  38
HETATM   38  C   UNK N   1      35.072  14.459   9.835  0.00  0.00     0.149 A 
HETATM   39  N   UNK N   1      34.833  14.314   8.505  0.00  0.00    -0.322 N 
HETATM   40  C   UNK N   1      34.545  15.524   7.920  0.00  0.00     0.127 A 
ATOM     41  HN  UNK N   1      34.861  13.424   8.007  1.00  0.00     0.169 HD
HETATM   42  C   UNK N   1      34.531  16.620   8.771  0.00  0.00     0.068 A 
HETATM   43  N   UNK N   1      34.231  15.666   6.616  0.00  0.00    -0.331 N 
HETATM   44  C   UNK N   1      34.168  17.870   8.301  0.00  0.00     0.112 A 
HETATM   45  S   UNK N   1      34.927  16.068  10.268  0.00  0.00    -0.049 SA
HETATM   46  N   UNK N   1      33.836  17.981   6.983  0.00  0.00    -0.354 N 
HETATM   47  C   UNK N   1      33.872  16.898   6.138  0.00  0.00     0.086 A 
ATOM     48  HN  UNK N   1      33.554  18.890   6.615  1.00  0.00     0.166 HD
ATOM     49  HN  UNK N   1      34.261  14.860   5.991  1.00  0.00     0.168 HD
BRANCH  47  50
HETATM   50  C   UNK N   1      33.507  17.078   4.695  0.00  0.00     0.053 A 
HETATM   51  C   UNK N   1      32.359  16.176   4.267  0.00  0.00     0.013 A 
HETATM   52  C   UNK N   1      32.091  17.625   4.604  0.00  0.00     0.013 A 
ENDBRANCH  47  50
ENDBRANCH   5  38
TORSDOF 11
ENDMDL
MODEL 8
REMARK VINA RESULT:      -7.3      3.669      6.773
REMARK  11 active torsions:
REMARK  status: ('A' for Active; 'I' for Inactive)
REMARK    1  A    between atoms: C_15  and  C_12 
REMARK    2  A    between atoms: N_38  and  C_12 
REMARK    3  A    between atoms: C_23  and  C_16 
REMARK    4  A    between atoms: C_27  and  C_17 
REMARK    5  A    between atoms: S_51  and  C_18 
REMARK    6  A    between atoms: C_20  and  C_25 
REMARK    7  A    between atoms: O_49  and  C_21 
REMARK    8  A    between atoms: O_46  and  C_25 
REMARK    9  A    between atoms: N_44  and  C_26 
REMARK   10  A    between atoms: O_49  and  C_28 
REMARK   11  A    between atoms: S_51  and  N_45 
ROOT
HETATM    1  C   UNK N   1      28.851  18.206   6.926  0.00  0.00     0.140 C 
HETATM    2  C   UNK N   1      28.782  19.151   5.752  0.00  0.00     0.128 C 
HETATM    3  C   UNK N   1      28.849  16.383   5.225  0.00  0.00     0.154 C 
HETATM    4  C   UNK N   1      27.666  17.196   4.628  0.00  0.00     0.166 C 
HETATM    5  N   UNK N   1      29.418  16.989   6.422  0.00  0.00    -0.358 N 
HETATM    6  N   UNK N   1      27.813  18.678   4.755  0.00  0.00    -0.191 NA
ENDROOT
BRANCH   4   7
HETATM    7  C   UNK N   1      26.361  16.655   5.191  0.00  0.00     0.132 C 
HETATM    8  N   UNK N   1      25.477  16.072   4.445  0.00  0.00    -0.369 N 
ATOM      9  HN  UNK N   1      24.638  15.702   4.892  1.00  0.00     0.161 HD
BRANCH   8  10
HETATM   10  C   UNK N   1      25.611  15.919   3.009  0.00  0.00     0.160 C 
BRANCH  10  11
HETATM   11  C   UNK N   1      24.410  15.246   2.490  0.00  0.00    -0.037 A 
HETATM   12  C   UNK N   1      24.493  14.477   1.333  0.00  0.00     0.012 A 
HETATM   13  C   UNK N   1      23.328  14.036   0.717  0.00  0.00     0.041 A 
HETATM   14  C   UNK N   1      22.076  14.390   1.233  0.00  0.00     0.116 A 
HETATM   15  C   UNK N   1      22.005  15.114   2.446  0.00  0.00     0.150 A 
HETATM   16  C   UNK N   1      23.175  15.537   3.061  0.00  0.00     0.054 A 
HETATM   17  F   UNK N   1      20.826  15.456   3.014  0.00  0.00    -0.203 F 
BRANCH  14  18
HETATM   18  O   UNK N   1      20.986  14.081   0.494  0.00  0.00    -0.252 OA
BRANCH  18  19
HETATM   19  C   UNK N   1      20.246  12.925   0.671  0.00  0.00     0.530 C 
HETATM   20  F   UNK N   1      20.960  11.804   0.299  0.00  0.00    -0.144 F 
HETATM   21  F   UNK N   1      19.115  13.002  -0.114  0.00  0.00    -0.144 F 
HETATM   22  F   UNK N   1      19.849  12.818   1.996  0.00  0.00    -0.144 F 
ENDBRANCH  18  19
ENDBRANCH  14  18
ENDBRANCH  10  11
ENDBRANCH   8  10
BRANCH   7  23
HETATM   23  O   UNK N   1      26.120  16.776   6.511  0.00  0.00    -0.348 OA
HETATM   24  H   UNK N   1      26.336  16.953   7.407  0.00  0.00     0.219 HD
ENDBRANCH   7  23
ENDBRANCH   4   7
BRANCH   6  25
HETATM   25  S   UNK N   1      26.325  19.664   4.936  0.00  0.00     0.244 S 
HETATM   26  O   UNK N   1      26.803  21.123   4.907  0.00  0.00    -0.206 OA
HETATM   27  O   UNK N   1      26.084  19.546   6.450  0.00  0.00    -0.206 OA
BRANCH  25  28
HETATM   28  C   UNK N   1      24.665  19.526   4.240  0.00  0.00     0.074 A 
HETATM   29  C   UNK N   1      24.247  20.198   3.081  0.00  0.00     0.025 A 
HETATM   30  C   UNK N   1      22.936  20.010   2.599  0.00  0.00     0.018 A 
HETATM   31  C   UNK N   1      22.036  19.182   3.297  0.00  0.00     0.048 A 
HETATM   32  C   UNK N   1      22.453  18.564   4.477  0.00  0.00     0.018 A 
HETATM   33  C   UNK N   1      23.751  18.734   4.938  0.00  0.00     0.025 A 
BRANCH  31  34
HETATM   34  C   UNK N   1      20.648  18.922   2.780  0.00  0.00     0.417 C 
HETATM   35  F   UNK N   1      19.998  20.113   2.491  0.00  0.00    -0.166 F 
HETATM   36  F   UNK N   1      20.699  18.158   1.630  0.00  0.00    -0.166 F 
HETATM   37  F   UNK N   1      19.918  18.250   3.743  0.00  0.00    -0.166 F 
ENDBRANCH  31  34
ENDBRANCH  25  28
ENDBRANCH   6  25
BRANCH   5  38
HETATM   38  C   UNK N   1      30.744  16.652   6.788  0.00  0.00     0.149 A 
HETATM   39  N   UNK N   1      31.418  17.250   7.806  0.00  0.00    -0.322 N 
HETATM   40  C   UNK N   1      32.579  16.572   8.093  0.00  0.00     0.127 A 
ATOM     41  HN  UNK N   1      31.104  18.089   8.292  1.00  0.00     0.169 HD
HETATM   42  C   UNK N   1      32.821  15.436   7.334  0.00  0.00     0.068 A 
HETATM   43  N   UNK N   1      33.422  16.926   9.084  0.00  0.00    -0.331 N 
HETATM   44  C   UNK N   1      33.916  14.633   7.600  0.00  0.00     0.112 A 
HETATM   45  S   UNK N   1      31.583  15.306   6.260  0.00  0.00    -0.049 SA
HETATM   46  N   UNK N   1      34.742  15.003   8.621  0.00  0.00    -0.354 N 
HETATM   47  C   UNK N   1      34.512  16.141   9.356  0.00  0.00     0.086 A 
ATOM     48  HN  UNK N   1      35.550  14.422   8.845  1.00  0.00     0.166 HD
ATOM     49  HN  UNK N   1      33.250  17.772   9.626  1.00  0.00     0.168 HD
BRANCH  47  50
HETATM   50  C   UNK N   1      35.456  16.506  10.461  0.00  0.00     0.053 A 
HETATM   51  C   UNK N   1      35.336  15.580  11.662  0.00  0.00     0.013 A 
HETATM   52  C   UNK N   1      36.451  15.374  10.661  0.00  0.00     0.013 A 
ENDBRANCH  47  50
ENDBRANCH   5  38
TORSDOF 11
ENDMDL
MODEL 9
REMARK VINA RESULT:      -7.3      5.207      8.258
REMARK  11 active torsions:
REMARK  status: ('A' for Active; 'I' for Inactive)
REMARK    1  A    between atoms: C_15  and  C_12 
REMARK    2  A    between atoms: N_38  and  C_12 
REMARK    3  A    between atoms: C_23  and  C_16 
REMARK    4  A    between atoms: C_27  and  C_17 
REMARK    5  A    between atoms: S_51  and  C_18 
REMARK    6  A    between atoms: C_20  and  C_25 
REMARK    7  A    between atoms: O_49  and  C_21 
REMARK    8  A    between atoms: O_46  and  C_25 
REMARK    9  A    between atoms: N_44  and  C_26 
REMARK   10  A    between atoms: O_49  and  C_28 
REMARK   11  A    between atoms: S_51  and  N_45 
ROOT
HETATM    1  C   UNK N   1      37.511  11.622  14.258  0.00  0.00     0.140 C 
HETATM    2  C   UNK N   1      37.034  10.754  13.119  0.00  0.00     0.128 C 
HETATM    3  C   UNK N   1      35.153  12.418  14.400  0.00  0.00     0.154 C 
HETATM    4  C   UNK N   1      35.308  12.567  12.859  0.00  0.00     0.166 C 
HETATM    5  N   UNK N   1      36.352  11.908  15.051  0.00  0.00    -0.358 N 
HETATM    6  N   UNK N   1      36.149  11.508  12.222  0.00  0.00    -0.191 NA
ENDROOT
BRANCH   4   7
HETATM    7  C   UNK N   1      35.754  13.985  12.542  0.00  0.00     0.132 C 
HETATM    8  N   UNK N   1      35.171  14.706  11.637  0.00  0.00    -0.369 N 
ATOM      9  HN  UNK N   1      35.498  15.662  11.498  1.00  0.00     0.161 HD
BRANCH   8  10
HETATM   10  C   UNK N   1      34.080  14.229  10.809  0.00  0.00     0.160 C 
BRANCH  10  11
HETATM   11  C   UNK N   1      33.860  15.189   9.716  0.00  0.00    -0.037 A 
HETATM   12  C   UNK N   1      33.154  14.798   8.583  0.00  0.00     0.012 A 
HETATM   13  C   UNK N   1      33.145  15.620   7.461  0.00  0.00     0.041 A 
HETATM   14  C   UNK N   1      33.871  16.816   7.455  0.00  0.00     0.116 A 
HETATM   15  C   UNK N   1      34.530  17.235   8.635  0.00  0.00     0.150 A 
HETATM   16  C   UNK N   1      34.519  16.414   9.753  0.00  0.00     0.054 A 
HETATM   17  F   UNK N   1      35.218  18.398   8.702  0.00  0.00    -0.203 F 
BRANCH  14  18
HETATM   18  O   UNK N   1      33.967  17.481   6.280  0.00  0.00    -0.252 OA
BRANCH  18  19
HETATM   19  C   UNK N   1      33.025  17.390   5.271  0.00  0.00     0.530 C 
HETATM   20  F   UNK N   1      32.985  16.122   4.727  0.00  0.00    -0.144 F 
HETATM   21  F   UNK N   1      33.360  18.283   4.275  0.00  0.00    -0.144 F 
HETATM   22  F   UNK N   1      31.774  17.735   5.763  0.00  0.00    -0.144 F 
ENDBRANCH  18  19
ENDBRANCH  14  18
ENDBRANCH  10  11
ENDBRANCH   8  10
BRANCH   7  23
HETATM   23  O   UNK N   1      36.784  14.515  13.231  0.00  0.00    -0.348 OA
HETATM   24  H   UNK N   1      37.683  14.725  13.395  0.00  0.00     0.219 HD
ENDBRANCH   7  23
ENDBRANCH   4   7
BRANCH   6  25
HETATM   25  S   UNK N   1      37.102  11.947  10.766  0.00  0.00     0.244 S 
HETATM   26  O   UNK N   1      38.189  10.869  10.657  0.00  0.00    -0.206 OA
HETATM   27  O   UNK N   1      37.976  13.082  11.325  0.00  0.00    -0.206 OA
BRANCH  25  28
HETATM   28  C   UNK N   1      36.639  12.550   9.128  0.00  0.00     0.074 A 
HETATM   29  C   UNK N   1      37.132  13.738   8.566  0.00  0.00     0.025 A 
HETATM   30  C   UNK N   1      36.731  14.117   7.270  0.00  0.00     0.018 A 
HETATM   31  C   UNK N   1      35.810  13.328   6.554  0.00  0.00     0.048 A 
HETATM   32  C   UNK N   1      35.289  12.178   7.149  0.00  0.00     0.018 A 
HETATM   33  C   UNK N   1      35.702  11.796   8.418  0.00  0.00     0.025 A 
BRANCH  31  34
HETATM   34  C   UNK N   1      35.402  13.679   5.149  0.00  0.00     0.417 C 
HETATM   35  F   UNK N   1      35.464  15.050   4.946  0.00  0.00    -0.166 F 
HETATM   36  F   UNK N   1      36.236  13.061   4.239  0.00  0.00    -0.166 F 
HETATM   37  F   UNK N   1      34.100  13.265   4.933  0.00  0.00    -0.166 F 
ENDBRANCH  31  34
ENDBRANCH  25  28
ENDBRANCH   6  25
BRANCH   5  38
HETATM   38  C   UNK N   1      36.223  11.286  16.317  0.00  0.00     0.149 A 
HETATM   39  N   UNK N   1      35.543  11.832  17.359  0.00  0.00    -0.322 N 
HETATM   40  C   UNK N   1      35.376  10.919  18.373  0.00  0.00     0.127 A 
ATOM     41  HN  UNK N   1      35.200  12.792  17.385  1.00  0.00     0.169 HD
HETATM   42  C   UNK N   1      35.895   9.653  18.139  0.00  0.00     0.068 A 
HETATM   43  N   UNK N   1      34.703  11.184  19.511  0.00  0.00    -0.331 N 
HETATM   44  C   UNK N   1      35.705   8.636  19.058  0.00  0.00     0.112 A 
HETATM   45  S   UNK N   1      36.608   9.694  16.659  0.00  0.00    -0.049 SA
HETATM   46  N   UNK N   1      35.004   8.925  20.191  0.00  0.00    -0.354 N 
HETATM   47  C   UNK N   1      34.511  10.186  20.430  0.00  0.00     0.086 A 
ATOM     48  HN  UNK N   1      34.841   8.190  20.878  1.00  0.00     0.166 HD
ATOM     49  HN  UNK N   1      34.340  12.121  19.686  1.00  0.00     0.168 HD
BRANCH  47  50
HETATM   50  C   UNK N   1      33.755  10.452  21.696  0.00  0.00     0.053 A 
HETATM   51  C   UNK N   1      32.329   9.924  21.647  0.00  0.00     0.013 A 
HETATM   52  C   UNK N   1      33.402   9.127  22.354  0.00  0.00     0.013 A 
ENDBRANCH  47  50
ENDBRANCH   5  38
TORSDOF 11
ENDMDL
