MODEL 1
REMARK VINA RESULT:      -8.1      0.000      0.000
REMARK  7 active torsions:
REMARK  status: ('A' for Active; 'I' for Inactive)
REMARK    1  A    between atoms: C_4  and  C_8 
REMARK    2  A    between atoms: C_11  and  S_14 
REMARK    3  A    between atoms: S_14  and  N_17 
REMARK    4  A    between atoms: C_20  and  C_22 
REMARK    5  A    between atoms: C_23  and  C_24 
REMARK       I    between atoms: C_24  and  N_26 
REMARK    6  A    between atoms: N_26  and  C_27 
REMARK    7  A    between atoms: C_32  and  N_33 
ROOT
HETATM    1  N   UNK N   1      34.813  13.873  10.172  0.00  0.00    -0.257 N 
HETATM    2  C   UNK N   1      33.884  14.816  10.416  0.00  0.00     0.109 A 
HETATM    3  C   UNK N   1      33.082  14.956   9.287  0.00  0.00     0.031 A 
HETATM    4  C   UNK N   1      33.576  14.045   8.369  0.00  0.00    -0.018 A 
HETATM    5  C   UNK N   1      34.638  13.409   8.941  0.00  0.00     0.120 A 
ENDROOT
BRANCH   1   6
HETATM    6  S   UNK N   1      36.045  13.229  11.246  0.00  0.00     0.268 S 
HETATM    7  O   UNK N   1      36.193  11.772  10.773  0.00  0.00    -0.200 OA
HETATM    8  O   UNK N   1      37.391  13.815  10.800  0.00  0.00    -0.200 OA
BRANCH   6   9
HETATM    9  C   UNK N   1      35.740  13.230  13.004  0.00  0.00     0.080 A 
HETATM   10  C   UNK N   1      36.464  14.079  13.844  0.00  0.00     0.026 A 
HETATM   11  C   UNK N   1      36.313  13.981  15.230  0.00  0.00     0.014 A 
HETATM   12  C   UNK N   1      35.437  13.033  15.781  0.00  0.00    -0.023 A 
HETATM   13  C   UNK N   1      34.686  12.211  14.930  0.00  0.00     0.014 A 
HETATM   14  C   UNK N   1      34.838  12.309  13.546  0.00  0.00     0.026 A 
BRANCH  12  15
HETATM   15  C   UNK N   1      35.383  12.831  17.237  0.00  0.00     0.008 A 
HETATM   16  C   UNK N   1      35.321  11.622  17.900  0.00  0.00     0.123 A 
HETATM   17  N   UNK N   1      35.194  11.898  19.207  0.00  0.00    -0.307 N 
HETATM   18  C   UNK N   1      35.069  10.918  20.268  0.00  0.00     0.177 C 
HETATM   19  N   UNK N   1      35.169  13.207  19.403  0.00  0.00    -0.310 N 
HETATM   20  C   UNK N   1      35.281  13.815  18.206  0.00  0.00     0.120 A 
ATOM     21  HN  UNK N   1      35.080  13.674  20.305  1.00  0.00     0.186 HD
ENDBRANCH  12  15
ENDBRANCH   6   9
ENDBRANCH   1   6
BRANCH   4  22
HETATM   22  C   UNK N   1      33.069  13.791   7.012  0.00  0.00     0.018 C 
HETATM   23  C   UNK N   1      33.241  14.632   5.975  0.00  0.00     0.075 C 
BRANCH  23  24
HETATM   24  C   UNK N   1      34.066  15.878   5.984  0.00  0.00     0.245 C 
HETATM   25  O   UNK N   1      35.285  15.804   6.032  0.00  0.00    -0.268 OA
HETATM   26  N   UNK N   1      33.483  17.094   5.853  0.00  0.00    -0.322 N 
HETATM   27  H   UNK N   1      34.059  17.883   5.729  0.00  0.00     0.169 HD
BRANCH  26  28
HETATM   28  C   UNK N   1      32.076  17.276   5.885  0.00  0.00     0.061 A 
HETATM   29  C   UNK N   1      31.371  17.236   7.102  0.00  0.00     0.032 A 
HETATM   30  C   UNK N   1      29.981  17.359   7.114  0.00  0.00     0.002 A 
HETATM   31  C   UNK N   1      29.287  17.514   5.912  0.00  0.00     0.002 A 
HETATM   32  C   UNK N   1      29.985  17.570   4.702  0.00  0.00     0.031 A 
HETATM   33  C   UNK N   1      31.379  17.462   4.688  0.00  0.00     0.052 A 
BRANCH  33  34
HETATM   34  N   UNK N   1      32.072  17.493   3.460  0.00  0.00    -0.397 N 
HETATM   35  H   UNK N   1      32.314  16.663   2.990  0.00  0.00     0.156 HD
HETATM   36  H   UNK N   1      32.318  18.361   3.066  0.00  0.00     0.156 HD
ENDBRANCH  33  34
ENDBRANCH  26  28
ENDBRANCH  23  24
ENDBRANCH   4  22
TORSDOF 7
ENDMDL
MODEL 2
REMARK VINA RESULT:      -8.0      1.553      2.322
REMARK  7 active torsions:
REMARK  status: ('A' for Active; 'I' for Inactive)
REMARK    1  A    between atoms: C_4  and  C_8 
REMARK    2  A    between atoms: C_11  and  S_14 
REMARK    3  A    between atoms: S_14  and  N_17 
REMARK    4  A    between atoms: C_20  and  C_22 
REMARK    5  A    between atoms: C_23  and  C_24 
REMARK       I    between atoms: C_24  and  N_26 
REMARK    6  A    between atoms: N_26  and  C_27 
REMARK    7  A    between atoms: C_32  and  N_33 
ROOT
HETATM    1  N   UNK N   1      34.420  14.970   9.897  0.00  0.00    -0.257 N 
HETATM    2  C   UNK N   1      33.719  13.927   9.416  0.00  0.00     0.109 A 
HETATM    3  C   UNK N   1      32.657  14.414   8.660  0.00  0.00     0.031 A 
HETATM    4  C   UNK N   1      32.770  15.793   8.711  0.00  0.00    -0.018 A 
HETATM    5  C   UNK N   1      33.853  16.095   9.483  0.00  0.00     0.120 A 
ENDROOT
BRANCH   1   6
HETATM    6  S   UNK N   1      35.894  14.965  10.855  0.00  0.00     0.268 S 
HETATM    7  O   UNK N   1      36.907  14.268   9.930  0.00  0.00    -0.200 OA
HETATM    8  O   UNK N   1      36.442  16.398  10.855  0.00  0.00    -0.200 OA
BRANCH   6   9
HETATM    9  C   UNK N   1      35.892  14.133  12.433  0.00  0.00     0.080 A 
HETATM   10  C   UNK N   1      35.223  12.918  12.589  0.00  0.00     0.026 A 
HETATM   11  C   UNK N   1      35.116  12.340  13.856  0.00  0.00     0.014 A 
HETATM   12  C   UNK N   1      35.679  12.975  14.973  0.00  0.00    -0.023 A 
HETATM   13  C   UNK N   1      36.383  14.175  14.803  0.00  0.00     0.014 A 
HETATM   14  C   UNK N   1      36.488  14.752  13.537  0.00  0.00     0.026 A 
BRANCH  12  15
HETATM   15  C   UNK N   1      35.446  12.443  16.325  0.00  0.00     0.008 A 
HETATM   16  C   UNK N   1      35.250  13.177  17.477  0.00  0.00     0.123 A 
HETATM   17  N   UNK N   1      35.169  12.302  18.491  0.00  0.00    -0.307 N 
HETATM   18  C   UNK N   1      34.989  12.643  19.888  0.00  0.00     0.177 C 
HETATM   19  N   UNK N   1      35.306  11.063  18.044  0.00  0.00    -0.310 N 
HETATM   20  C   UNK N   1      35.482  11.113  16.709  0.00  0.00     0.120 A 
ATOM     21  HN  UNK N   1      35.283  10.217  18.613  1.00  0.00     0.186 HD
ENDBRANCH  12  15
ENDBRANCH   6   9
ENDBRANCH   1   6
BRANCH   4  22
HETATM   22  C   UNK N   1      31.892  16.778   8.062  0.00  0.00     0.018 C 
HETATM   23  C   UNK N   1      32.194  17.416   6.915  0.00  0.00     0.075 C 
BRANCH  23  24
HETATM   24  C   UNK N   1      33.384  17.150   6.051  0.00  0.00     0.245 C 
HETATM   25  O   UNK N   1      34.449  17.699   6.293  0.00  0.00    -0.268 OA
HETATM   26  N   UNK N   1      33.321  16.239   5.050  0.00  0.00    -0.322 N 
HETATM   27  H   UNK N   1      34.154  15.989   4.587  0.00  0.00     0.169 HD
BRANCH  26  28
HETATM   28  C   UNK N   1      32.107  15.629   4.645  0.00  0.00     0.061 A 
HETATM   29  C   UNK N   1      31.658  14.440   5.250  0.00  0.00     0.032 A 
HETATM   30  C   UNK N   1      30.492  13.820   4.803  0.00  0.00     0.002 A 
HETATM   31  C   UNK N   1      29.771  14.375   3.744  0.00  0.00     0.002 A 
HETATM   32  C   UNK N   1      30.205  15.564   3.149  0.00  0.00     0.031 A 
HETATM   33  C   UNK N   1      31.366  16.197   3.605  0.00  0.00     0.052 A 
BRANCH  33  34
HETATM   34  N   UNK N   1      31.810  17.380   2.981  0.00  0.00    -0.397 N 
HETATM   35  H   UNK N   1      31.688  18.259   3.406  0.00  0.00     0.156 HD
HETATM   36  H   UNK N   1      32.253  17.326   2.102  0.00  0.00     0.156 HD
ENDBRANCH  33  34
ENDBRANCH  26  28
ENDBRANCH  23  24
ENDBRANCH   4  22
TORSDOF 7
ENDMDL
MODEL 3
REMARK VINA RESULT:      -8.0     17.491     20.448
REMARK  7 active torsions:
REMARK  status: ('A' for Active; 'I' for Inactive)
REMARK    1  A    between atoms: C_4  and  C_8 
REMARK    2  A    between atoms: C_11  and  S_14 
REMARK    3  A    between atoms: S_14  and  N_17 
REMARK    4  A    between atoms: C_20  and  C_22 
REMARK    5  A    between atoms: C_23  and  C_24 
REMARK       I    between atoms: C_24  and  N_26 
REMARK    6  A    between atoms: N_26  and  C_27 
REMARK    7  A    between atoms: C_32  and  N_33 
ROOT
HETATM    1  N   UNK N   1      29.285  27.858  -5.274  0.00  0.00    -0.257 N 
HETATM    2  C   UNK N   1      28.490  28.944  -5.291  0.00  0.00     0.109 A 
HETATM    3  C   UNK N   1      27.493  28.753  -6.243  0.00  0.00     0.031 A 
HETATM    4  C   UNK N   1      27.732  27.499  -6.780  0.00  0.00    -0.018 A 
HETATM    5  C   UNK N   1      28.840  26.987  -6.171  0.00  0.00     0.120 A 
ENDROOT
BRANCH   1   6
HETATM    6  S   UNK N   1      30.658  27.508  -4.234  0.00  0.00     0.268 S 
HETATM    7  O   UNK N   1      31.792  28.334  -4.865  0.00  0.00    -0.200 OA
HETATM    8  O   UNK N   1      30.441  28.271  -2.921  0.00  0.00    -0.200 OA
BRANCH   6   9
HETATM    9  C   UNK N   1      31.204  25.817  -4.071  0.00  0.00     0.080 A 
HETATM   10  C   UNK N   1      32.300  25.357  -4.802  0.00  0.00     0.026 A 
HETATM   11  C   UNK N   1      32.640  24.002  -4.767  0.00  0.00     0.014 A 
HETATM   12  C   UNK N   1      31.884  23.102  -4.002  0.00  0.00    -0.023 A 
HETATM   13  C   UNK N   1      30.808  23.578  -3.240  0.00  0.00     0.014 A 
HETATM   14  C   UNK N   1      30.470  24.932  -3.276  0.00  0.00     0.026 A 
BRANCH  12  15
HETATM   15  C   UNK N   1      32.151  21.657  -4.076  0.00  0.00     0.008 A 
HETATM   16  C   UNK N   1      33.389  21.047  -4.092  0.00  0.00     0.123 A 
HETATM   17  N   UNK N   1      33.177  19.733  -4.257  0.00  0.00    -0.307 N 
HETATM   18  C   UNK N   1      34.207  18.718  -4.356  0.00  0.00     0.177 C 
HETATM   19  N   UNK N   1      31.880  19.483  -4.350  0.00  0.00    -0.310 N 
HETATM   20  C   UNK N   1      31.216  20.649  -4.244  0.00  0.00     0.120 A 
ATOM     21  HN  UNK N   1      31.457  18.563  -4.479  1.00  0.00     0.186 HD
ENDBRANCH  12  15
ENDBRANCH   6   9
ENDBRANCH   1   6
BRANCH   4  22
HETATM   22  C   UNK N   1      26.951  26.820  -7.824  0.00  0.00     0.018 C 
HETATM   23  C   UNK N   1      25.959  25.944  -7.573  0.00  0.00     0.075 C 
BRANCH  23  24
HETATM   24  C   UNK N   1      25.404  25.611  -6.226  0.00  0.00     0.245 C 
HETATM   25  O   UNK N   1      24.647  26.392  -5.668  0.00  0.00    -0.268 OA
HETATM   26  N   UNK N   1      25.660  24.412  -5.650  0.00  0.00    -0.322 N 
HETATM   27  H   UNK N   1      25.175  24.171  -4.828  0.00  0.00     0.169 HD
BRANCH  26  28
HETATM   28  C   UNK N   1      26.598  23.490  -6.183  0.00  0.00     0.061 A 
HETATM   29  C   UNK N   1      27.954  23.545  -5.814  0.00  0.00     0.032 A 
HETATM   30  C   UNK N   1      28.876  22.670  -6.389  0.00  0.00     0.002 A 
HETATM   31  C   UNK N   1      28.452  21.742  -7.342  0.00  0.00     0.002 A 
HETATM   32  C   UNK N   1      27.102  21.674  -7.701  0.00  0.00     0.031 A 
HETATM   33  C   UNK N   1      26.173  22.540  -7.116  0.00  0.00     0.052 A 
BRANCH  33  34
HETATM   34  N   UNK N   1      24.819  22.482  -7.504  0.00  0.00    -0.397 N 
HETATM   35  H   UNK N   1      24.151  22.005  -6.960  0.00  0.00     0.156 HD
HETATM   36  H   UNK N   1      24.536  22.927  -8.336  0.00  0.00     0.156 HD
ENDBRANCH  33  34
ENDBRANCH  26  28
ENDBRANCH  23  24
ENDBRANCH   4  22
TORSDOF 7
ENDMDL
MODEL 4
REMARK VINA RESULT:      -8.0      2.773     10.948
REMARK  7 active torsions:
REMARK  status: ('A' for Active; 'I' for Inactive)
REMARK    1  A    between atoms: C_4  and  C_8 
REMARK    2  A    between atoms: C_11  and  S_14 
REMARK    3  A    between atoms: S_14  and  N_17 
REMARK    4  A    between atoms: C_20  and  C_22 
REMARK    5  A    between atoms: C_23  and  C_24 
REMARK       I    between atoms: C_24  and  N_26 
REMARK    6  A    between atoms: N_26  and  C_27 
REMARK    7  A    between atoms: C_32  and  N_33 
ROOT
HETATM    1  N   UNK N   1      34.323  15.932   8.531  0.00  0.00    -0.257 N 
HETATM    2  C   UNK N   1      34.531  16.465   9.750  0.00  0.00     0.109 A 
HETATM    3  C   UNK N   1      34.635  15.433  10.677  0.00  0.00     0.031 A 
HETATM    4  C   UNK N   1      34.489  14.266   9.946  0.00  0.00    -0.018 A 
HETATM    5  C   UNK N   1      34.291  14.611   8.642  0.00  0.00     0.120 A 
ENDROOT
BRANCH   1   6
HETATM    6  S   UNK N   1      34.183  16.743   6.979  0.00  0.00     0.268 S 
HETATM    7  O   UNK N   1      34.762  18.140   7.261  0.00  0.00    -0.200 OA
HETATM    8  O   UNK N   1      35.267  16.162   6.061  0.00  0.00    -0.200 OA
BRANCH   6   9
HETATM    9  C   UNK N   1      32.566  16.931   6.249  0.00  0.00     0.080 A 
HETATM   10  C   UNK N   1      32.435  17.276   4.903  0.00  0.00     0.026 A 
HETATM   11  C   UNK N   1      31.172  17.549   4.373  0.00  0.00     0.014 A 
HETATM   12  C   UNK N   1      30.032  17.478   5.189  0.00  0.00    -0.023 A 
HETATM   13  C   UNK N   1      30.167  17.093   6.530  0.00  0.00     0.014 A 
HETATM   14  C   UNK N   1      31.430  16.822   7.058  0.00  0.00     0.026 A 
BRANCH  12  15
HETATM   15  C   UNK N   1      28.722  17.902   4.673  0.00  0.00     0.008 A 
HETATM   16  C   UNK N   1      28.101  19.115   4.894  0.00  0.00     0.123 A 
HETATM   17  N   UNK N   1      26.891  19.047   4.319  0.00  0.00    -0.307 N 
HETATM   18  C   UNK N   1      25.891  20.096   4.330  0.00  0.00     0.177 C 
HETATM   19  N   UNK N   1      26.714  17.862   3.755  0.00  0.00    -0.310 N 
HETATM   20  C   UNK N   1      27.824  17.128   3.956  0.00  0.00     0.120 A 
ATOM     21  HN  UNK N   1      25.878  17.558   3.253  1.00  0.00     0.186 HD
ENDBRANCH  12  15
ENDBRANCH   6   9
ENDBRANCH   1   6
BRANCH   4  22
HETATM   22  C   UNK N   1      34.530  12.888  10.460  0.00  0.00     0.018 C 
HETATM   23  C   UNK N   1      35.666  12.225  10.749  0.00  0.00     0.075 C 
BRANCH  23  24
HETATM   24  C   UNK N   1      37.046  12.798  10.721  0.00  0.00     0.245 C 
HETATM   25  O   UNK N   1      37.569  13.082   9.654  0.00  0.00    -0.268 OA
HETATM   26  N   UNK N   1      37.696  13.090  11.874  0.00  0.00    -0.322 N 
HETATM   27  H   UNK N   1      38.545  13.587  11.824  0.00  0.00     0.169 HD
BRANCH  26  28
HETATM   28  C   UNK N   1      37.204  12.709  13.149  0.00  0.00     0.061 A 
HETATM   29  C   UNK N   1      37.307  11.378  13.594  0.00  0.00     0.032 A 
HETATM   30  C   UNK N   1      36.768  11.004  14.825  0.00  0.00     0.002 A 
HETATM   31  C   UNK N   1      36.115  11.953  15.614  0.00  0.00     0.002 A 
HETATM   32  C   UNK N   1      36.023  13.280  15.182  0.00  0.00     0.031 A 
HETATM   33  C   UNK N   1      36.576  13.660  13.956  0.00  0.00     0.052 A 
BRANCH  33  34
HETATM   34  N   UNK N   1      36.454  14.995  13.517  0.00  0.00    -0.397 N 
HETATM   35  H   UNK N   1      37.099  15.684  13.794  0.00  0.00     0.156 HD
HETATM   36  H   UNK N   1      35.709  15.241  12.920  0.00  0.00     0.156 HD
ENDBRANCH  33  34
ENDBRANCH  26  28
ENDBRANCH  23  24
ENDBRANCH   4  22
TORSDOF 7
ENDMDL
MODEL 5
REMARK VINA RESULT:      -8.0     18.023     21.594
REMARK  7 active torsions:
REMARK  status: ('A' for Active; 'I' for Inactive)
REMARK    1  A    between atoms: C_4  and  C_8 
REMARK    2  A    between atoms: C_11  and  S_14 
REMARK    3  A    between atoms: S_14  and  N_17 
REMARK    4  A    between atoms: C_20  and  C_22 
REMARK    5  A    between atoms: C_23  and  C_24 
REMARK       I    between atoms: C_24  and  N_26 
REMARK    6  A    between atoms: N_26  and  C_27 
REMARK    7  A    between atoms: C_32  and  N_33 
ROOT
HETATM    1  N   UNK N   1      26.882  22.103  -8.504  0.00  0.00    -0.257 N 
HETATM    2  C   UNK N   1      27.247  21.401  -9.593  0.00  0.00     0.109 A 
HETATM    3  C   UNK N   1      28.315  20.575  -9.255  0.00  0.00     0.031 A 
HETATM    4  C   UNK N   1      28.557  20.817  -7.913  0.00  0.00    -0.018 A 
HETATM    5  C   UNK N   1      27.669  21.762  -7.491  0.00  0.00     0.120 A 
ENDROOT
BRANCH   1   6
HETATM    6  S   UNK N   1      25.559  23.244  -8.315  0.00  0.00     0.268 S 
HETATM    7  O   UNK N   1      25.401  23.830  -9.729  0.00  0.00    -0.200 OA
HETATM    8  O   UNK N   1      24.266  22.427  -8.196  0.00  0.00    -0.200 OA
BRANCH   6   9
HETATM    9  C   UNK N   1      25.740  24.588  -7.156  0.00  0.00     0.080 A 
HETATM   10  C   UNK N   1      25.923  25.894  -7.613  0.00  0.00     0.026 A 
HETATM   11  C   UNK N   1      26.194  26.918  -6.703  0.00  0.00     0.014 A 
HETATM   12  C   UNK N   1      26.284  26.640  -5.331  0.00  0.00    -0.023 A 
HETATM   13  C   UNK N   1      26.061  25.334  -4.875  0.00  0.00     0.014 A 
HETATM   14  C   UNK N   1      25.791  24.311  -5.786  0.00  0.00     0.026 A 
BRANCH  12  15
HETATM   15  C   UNK N   1      26.709  27.686  -4.387  0.00  0.00     0.008 A 
HETATM   16  C   UNK N   1      27.992  27.917  -3.935  0.00  0.00     0.123 A 
HETATM   17  N   UNK N   1      27.916  28.900  -3.025  0.00  0.00    -0.307 N 
HETATM   18  C   UNK N   1      29.031  29.443  -2.275  0.00  0.00     0.177 C 
HETATM   19  N   UNK N   1      26.662  29.297  -2.877  0.00  0.00    -0.310 N 
HETATM   20  C   UNK N   1      25.888  28.566  -3.702  0.00  0.00     0.120 A 
ATOM     21  HN  UNK N   1      26.338  30.030  -2.246  1.00  0.00     0.186 HD
ENDBRANCH  12  15
ENDBRANCH   6   9
ENDBRANCH   1   6
BRANCH   4  22
HETATM   22  C   UNK N   1      29.584  20.186  -7.070  0.00  0.00     0.018 C 
HETATM   23  C   UNK N   1      30.802  20.714  -6.845  0.00  0.00     0.075 C 
BRANCH  23  24
HETATM   24  C   UNK N   1      31.270  22.060  -7.294  0.00  0.00     0.245 C 
HETATM   25  O   UNK N   1      31.708  22.209  -8.425  0.00  0.00    -0.268 OA
HETATM   26  N   UNK N   1      31.136  23.142  -6.489  0.00  0.00    -0.322 N 
HETATM   27  H   UNK N   1      31.329  24.033  -6.861  0.00  0.00     0.169 HD
BRANCH  26  28
HETATM   28  C   UNK N   1      30.727  23.043  -5.134  0.00  0.00     0.061 A 
HETATM   29  C   UNK N   1      29.399  23.317  -4.759  0.00  0.00     0.032 A 
HETATM   30  C   UNK N   1      29.023  23.272  -3.417  0.00  0.00     0.002 A 
HETATM   31  C   UNK N   1      29.972  22.962  -2.440  0.00  0.00     0.002 A 
HETATM   32  C   UNK N   1      31.290  22.674  -2.810  0.00  0.00     0.031 A 
HETATM   33  C   UNK N   1      31.665  22.704  -4.156  0.00  0.00     0.052 A 
BRANCH  33  34
HETATM   34  N   UNK N   1      33.003  22.438  -4.516  0.00  0.00    -0.397 N 
HETATM   35  H   UNK N   1      33.731  23.049  -4.261  0.00  0.00     0.156 HD
HETATM   36  H   UNK N   1      33.211  21.626  -5.033  0.00  0.00     0.156 HD
ENDBRANCH  33  34
ENDBRANCH  26  28
ENDBRANCH  23  24
ENDBRANCH   4  22
TORSDOF 7
ENDMDL
MODEL 6
REMARK VINA RESULT:      -7.9      3.453      5.237
REMARK  7 active torsions:
REMARK  status: ('A' for Active; 'I' for Inactive)
REMARK    1  A    between atoms: C_4  and  C_8 
REMARK    2  A    between atoms: C_11  and  S_14 
REMARK    3  A    between atoms: S_14  and  N_17 
REMARK    4  A    between atoms: C_20  and  C_22 
REMARK    5  A    between atoms: C_23  and  C_24 
REMARK       I    between atoms: C_24  and  N_26 
REMARK    6  A    between atoms: N_26  and  C_27 
REMARK    7  A    between atoms: C_32  and  N_33 
ROOT
HETATM    1  N   UNK N   1      31.858  17.436   8.043  0.00  0.00    -0.257 N 
HETATM    2  C   UNK N   1      31.204  18.426   8.680  0.00  0.00     0.109 A 
HETATM    3  C   UNK N   1      29.845  18.313   8.403  0.00  0.00     0.031 A 
HETATM    4  C   UNK N   1      29.727  17.204   7.582  0.00  0.00    -0.018 A 
HETATM    5  C   UNK N   1      30.978  16.701   7.376  0.00  0.00     0.120 A 
ENDROOT
BRANCH   1   6
HETATM    6  S   UNK N   1      33.570  17.039   8.078  0.00  0.00     0.268 S 
HETATM    7  O   UNK N   1      33.731  16.088   6.880  0.00  0.00    -0.200 OA
HETATM    8  O   UNK N   1      34.334  18.270   7.574  0.00  0.00    -0.200 OA
BRANCH   6   9
HETATM    9  C   UNK N   1      34.241  16.249   9.530  0.00  0.00     0.080 A 
HETATM   10  C   UNK N   1      35.301  16.833  10.225  0.00  0.00     0.026 A 
HETATM   11  C   UNK N   1      35.905  16.145  11.281  0.00  0.00     0.014 A 
HETATM   12  C   UNK N   1      35.450  14.869  11.645  0.00  0.00    -0.023 A 
HETATM   13  C   UNK N   1      34.360  14.305  10.968  0.00  0.00     0.014 A 
HETATM   14  C   UNK N   1      33.759  14.993   9.914  0.00  0.00     0.026 A 
BRANCH  12  15
HETATM   15  C   UNK N   1      36.173  14.085  12.659  0.00  0.00     0.008 A 
HETATM   16  C   UNK N   1      36.656  12.800  12.517  0.00  0.00     0.123 A 
HETATM   17  N   UNK N   1      37.164  12.438  13.705  0.00  0.00    -0.307 N 
HETATM   18  C   UNK N   1      37.756  11.152  14.014  0.00  0.00     0.177 C 
HETATM   19  N   UNK N   1      37.023  13.418  14.585  0.00  0.00    -0.310 N 
HETATM   20  C   UNK N   1      36.413  14.451  13.973  0.00  0.00     0.120 A 
ATOM     21  HN  UNK N   1      37.326  13.394  15.559  1.00  0.00     0.186 HD
ENDBRANCH  12  15
ENDBRANCH   6   9
ENDBRANCH   1   6
BRANCH   4  22
HETATM   22  C   UNK N   1      28.489  16.650   7.014  0.00  0.00     0.018 C 
HETATM   23  C   UNK N   1      28.145  16.749   5.716  0.00  0.00     0.075 C 
BRANCH  23  24
HETATM   24  C   UNK N   1      28.997  17.312   4.624  0.00  0.00     0.245 C 
HETATM   25  O   UNK N   1      29.863  16.622   4.108  0.00  0.00    -0.268 OA
HETATM   26  N   UNK N   1      28.764  18.555   4.138  0.00  0.00    -0.322 N 
HETATM   27  H   UNK N   1      29.253  18.846   3.333  0.00  0.00     0.169 HD
BRANCH  26  28
HETATM   28  C   UNK N   1      27.846  19.454   4.739  0.00  0.00     0.061 A 
HETATM   29  C   UNK N   1      28.258  20.334   5.756  0.00  0.00     0.032 A 
HETATM   30  C   UNK N   1      27.334  21.172   6.379  0.00  0.00     0.002 A 
HETATM   31  C   UNK N   1      25.991  21.131   5.997  0.00  0.00     0.002 A 
HETATM   32  C   UNK N   1      25.579  20.268   4.976  0.00  0.00     0.031 A 
HETATM   33  C   UNK N   1      26.507  19.438   4.340  0.00  0.00     0.052 A 
BRANCH  33  34
HETATM   34  N   UNK N   1      26.078  18.552   3.330  0.00  0.00    -0.397 N 
HETATM   35  H   UNK N   1      25.123  18.360   3.192  0.00  0.00     0.156 HD
HETATM   36  H   UNK N   1      26.747  18.118   2.751  0.00  0.00     0.156 HD
ENDBRANCH  33  34
ENDBRANCH  26  28
ENDBRANCH  23  24
ENDBRANCH   4  22
TORSDOF 7
ENDMDL
MODEL 7
REMARK VINA RESULT:      -7.8      2.869     10.310
REMARK  7 active torsions:
REMARK  status: ('A' for Active; 'I' for Inactive)
REMARK    1  A    between atoms: C_4  and  C_8 
REMARK    2  A    between atoms: C_11  and  S_14 
REMARK    3  A    between atoms: S_14  and  N_17 
REMARK    4  A    between atoms: C_20  and  C_22 
REMARK    5  A    between atoms: C_23  and  C_24 
REMARK       I    between atoms: C_24  and  N_26 
REMARK    6  A    between atoms: N_26  and  C_27 
REMARK    7  A    between atoms: C_32  and  N_33 
ROOT
HETATM    1  N   UNK N   1      35.712  13.157  11.347  0.00  0.00    -0.257 N 
HETATM    2  C   UNK N   1      36.403  12.062  10.976  0.00  0.00     0.109 A 
HETATM    3  C   UNK N   1      35.923  10.968  11.691  0.00  0.00     0.031 A 
HETATM    4  C   UNK N   1      34.911  11.467  12.492  0.00  0.00    -0.018 A 
HETATM    5  C   UNK N   1      34.817  12.809  12.263  0.00  0.00     0.120 A 
ENDROOT
BRANCH   1   6
HETATM    6  S   UNK N   1      35.833  14.800  10.737  0.00  0.00     0.268 S 
HETATM    7  O   UNK N   1      35.941  15.641  12.022  0.00  0.00    -0.200 OA
HETATM    8  O   UNK N   1      37.245  14.971  10.162  0.00  0.00    -0.200 OA
BRANCH   6   9
HETATM    9  C   UNK N   1      34.503  15.448   9.740  0.00  0.00     0.080 A 
HETATM   10  C   UNK N   1      34.475  16.800   9.393  0.00  0.00     0.026 A 
HETATM   11  C   UNK N   1      33.367  17.324   8.724  0.00  0.00     0.014 A 
HETATM   12  C   UNK N   1      32.280  16.499   8.401  0.00  0.00    -0.023 A 
HETATM   13  C   UNK N   1      32.331  15.134   8.717  0.00  0.00     0.014 A 
HETATM   14  C   UNK N   1      33.439  14.612   9.386  0.00  0.00     0.026 A 
BRANCH  12  15
HETATM   15  C   UNK N   1      31.054  17.075   7.826  0.00  0.00     0.008 A 
HETATM   16  C   UNK N   1      30.216  17.993   8.425  0.00  0.00     0.123 A 
HETATM   17  N   UNK N   1      29.178  18.177   7.594  0.00  0.00    -0.307 N 
HETATM   18  C   UNK N   1      28.043  19.044   7.841  0.00  0.00     0.177 C 
HETATM   19  N   UNK N   1      29.314  17.425   6.513  0.00  0.00    -0.310 N 
HETATM   20  C   UNK N   1      30.461  16.729   6.623  0.00  0.00     0.120 A 
ATOM     21  HN  UNK N   1      28.661  17.382   5.730  1.00  0.00     0.186 HD
ENDBRANCH  12  15
ENDBRANCH   6   9
ENDBRANCH   1   6
BRANCH   4  22
HETATM   22  C   UNK N   1      34.074  10.711  13.436  0.00  0.00     0.018 C 
HETATM   23  C   UNK N   1      34.026  10.951  14.760  0.00  0.00     0.075 C 
BRANCH  23  24
HETATM   24  C   UNK N   1      34.699  12.080  15.471  0.00  0.00     0.245 C 
HETATM   25  O   UNK N   1      34.099  13.128  15.659  0.00  0.00    -0.268 OA
HETATM   26  N   UNK N   1      35.942  11.928  15.989  0.00  0.00    -0.322 N 
HETATM   27  H   UNK N   1      36.304  12.641  16.564  0.00  0.00     0.169 HD
BRANCH  26  28
HETATM   28  C   UNK N   1      36.742  10.784  15.737  0.00  0.00     0.061 A 
HETATM   29  C   UNK N   1      36.496   9.570  16.405  0.00  0.00     0.032 A 
HETATM   30  C   UNK N   1      37.325   8.469  16.191  0.00  0.00     0.002 A 
HETATM   31  C   UNK N   1      38.410   8.575  15.318  0.00  0.00     0.002 A 
HETATM   32  C   UNK N   1      38.649   9.775  14.641  0.00  0.00     0.031 A 
HETATM   33  C   UNK N   1      37.811  10.875  14.842  0.00  0.00     0.052 A 
BRANCH  33  34
HETATM   34  N   UNK N   1      38.077  12.090  14.176  0.00  0.00    -0.397 N 
HETATM   35  H   UNK N   1      38.854  12.185  13.579  0.00  0.00     0.156 HD
HETATM   36  H   UNK N   1      37.473  12.856  14.310  0.00  0.00     0.156 HD
ENDBRANCH  33  34
ENDBRANCH  26  28
ENDBRANCH  23  24
ENDBRANCH   4  22
TORSDOF 7
ENDMDL
MODEL 8
REMARK VINA RESULT:      -7.8      2.368     10.264
REMARK  7 active torsions:
REMARK  status: ('A' for Active; 'I' for Inactive)
REMARK    1  A    between atoms: C_4  and  C_8 
REMARK    2  A    between atoms: C_11  and  S_14 
REMARK    3  A    between atoms: S_14  and  N_17 
REMARK    4  A    between atoms: C_20  and  C_22 
REMARK    5  A    between atoms: C_23  and  C_24 
REMARK       I    between atoms: C_24  and  N_26 
REMARK    6  A    between atoms: N_26  and  C_27 
REMARK    7  A    between atoms: C_32  and  N_33 
ROOT
HETATM    1  N   UNK N   1      35.561  13.255  11.063  0.00  0.00    -0.257 N 
HETATM    2  C   UNK N   1      36.098  12.229  10.377  0.00  0.00     0.109 A 
HETATM    3  C   UNK N   1      35.773  11.040  11.024  0.00  0.00     0.031 A 
HETATM    4  C   UNK N   1      35.010  11.414  12.118  0.00  0.00    -0.018 A 
HETATM    5  C   UNK N   1      34.910  12.774  12.114  0.00  0.00     0.120 A 
ENDROOT
BRANCH   1   6
HETATM    6  S   UNK N   1      35.583  14.971  10.685  0.00  0.00     0.268 S 
HETATM    7  O   UNK N   1      35.656  15.632  12.072  0.00  0.00    -0.200 OA
HETATM    8  O   UNK N   1      36.978  15.299  10.136  0.00  0.00    -0.200 OA
BRANCH   6   9
HETATM    9  C   UNK N   1      34.210  15.673   9.787  0.00  0.00     0.080 A 
HETATM   10  C   UNK N   1      33.028  14.949   9.628  0.00  0.00     0.026 A 
HETATM   11  C   UNK N   1      32.009  15.451   8.815  0.00  0.00     0.014 A 
HETATM   12  C   UNK N   1      32.168  16.680   8.157  0.00  0.00    -0.023 A 
HETATM   13  C   UNK N   1      33.342  17.420   8.353  0.00  0.00     0.014 A 
HETATM   14  C   UNK N   1      34.360  16.917   9.165  0.00  0.00     0.026 A 
BRANCH  12  15
HETATM   15  C   UNK N   1      31.160  17.142   7.192  0.00  0.00     0.008 A 
HETATM   16  C   UNK N   1      29.874  17.557   7.477  0.00  0.00     0.123 A 
HETATM   17  N   UNK N   1      29.272  17.803   6.304  0.00  0.00    -0.307 N 
HETATM   18  C   UNK N   1      27.900  18.239   6.134  0.00  0.00     0.177 C 
HETATM   19  N   UNK N   1      30.101  17.564   5.300  0.00  0.00    -0.310 N 
HETATM   20  C   UNK N   1      31.277  17.151   5.812  0.00  0.00     0.120 A 
ATOM     21  HN  UNK N   1      29.887  17.673   4.308  1.00  0.00     0.186 HD
ENDBRANCH  12  15
ENDBRANCH   6   9
ENDBRANCH   1   6
BRANCH   4  22
HETATM   22  C   UNK N   1      34.409  10.524  13.123  0.00  0.00     0.018 C 
HETATM   23  C   UNK N   1      35.119   9.727  13.945  0.00  0.00     0.075 C 
BRANCH  23  24
HETATM   24  C   UNK N   1      36.608   9.700  14.068  0.00  0.00     0.245 C 
HETATM   25  O   UNK N   1      37.267   8.960  13.353  0.00  0.00    -0.268 OA
HETATM   26  N   UNK N   1      37.247  10.551  14.907  0.00  0.00    -0.322 N 
HETATM   27  H   UNK N   1      38.230  10.601  14.869  0.00  0.00     0.169 HD
BRANCH  26  28
HETATM   28  C   UNK N   1      36.558  11.372  15.837  0.00  0.00     0.061 A 
HETATM   29  C   UNK N   1      35.918  10.813  16.958  0.00  0.00     0.032 A 
HETATM   30  C   UNK N   1      35.196  11.625  17.833  0.00  0.00     0.002 A 
HETATM   31  C   UNK N   1      35.101  12.996  17.590  0.00  0.00     0.002 A 
HETATM   32  C   UNK N   1      35.748  13.558  16.485  0.00  0.00     0.031 A 
HETATM   33  C   UNK N   1      36.485  12.750  15.615  0.00  0.00     0.052 A 
BRANCH  33  34
HETATM   34  N   UNK N   1      37.112  13.321  14.488  0.00  0.00    -0.397 N 
HETATM   35  H   UNK N   1      37.098  12.871  13.613  0.00  0.00     0.156 HD
HETATM   36  H   UNK N   1      37.571  14.188  14.579  0.00  0.00     0.156 HD
ENDBRANCH  33  34
ENDBRANCH  26  28
ENDBRANCH  23  24
ENDBRANCH   4  22
TORSDOF 7
ENDMDL
MODEL 9
REMARK VINA RESULT:      -7.7      2.886      4.785
REMARK  7 active torsions:
REMARK  status: ('A' for Active; 'I' for Inactive)
REMARK    1  A    between atoms: C_4  and  C_8 
REMARK    2  A    between atoms: C_11  and  S_14 
REMARK    3  A    between atoms: S_14  and  N_17 
REMARK    4  A    between atoms: C_20  and  C_22 
REMARK    5  A    between atoms: C_23  and  C_24 
REMARK       I    between atoms: C_24  and  N_26 
REMARK    6  A    between atoms: N_26  and  C_27 
REMARK    7  A    between atoms: C_32  and  N_33 
ROOT
HETATM    1  N   UNK N   1      32.647  16.587   7.124  0.00  0.00    -0.257 N 
HETATM    2  C   UNK N   1      31.585  17.376   7.378  0.00  0.00     0.109 A 
HETATM    3  C   UNK N   1      30.451  16.789   6.826  0.00  0.00     0.031 A 
HETATM    4  C   UNK N   1      30.891  15.613   6.242  0.00  0.00    -0.018 A 
HETATM    5  C   UNK N   1      32.238  15.529   6.436  0.00  0.00     0.120 A 
ENDROOT
BRANCH   1   6
HETATM    6  S   UNK N   1      34.318  16.783   7.630  0.00  0.00     0.268 S 
HETATM    7  O   UNK N   1      35.112  16.243   6.428  0.00  0.00    -0.200 OA
HETATM    8  O   UNK N   1      34.648  18.279   7.545  0.00  0.00    -0.200 OA
BRANCH   6   9
HETATM    9  C   UNK N   1      34.874  15.948   9.105  0.00  0.00     0.080 A 
HETATM   10  C   UNK N   1      34.791  14.557   9.201  0.00  0.00     0.026 A 
HETATM   11  C   UNK N   1      35.106  13.923  10.406  0.00  0.00     0.014 A 
HETATM   12  C   UNK N   1      35.503  14.678  11.520  0.00  0.00    -0.023 A 
HETATM   13  C   UNK N   1      35.620  16.069  11.405  0.00  0.00     0.014 A 
HETATM   14  C   UNK N   1      35.305  16.702  10.201  0.00  0.00     0.026 A 
BRANCH  12  15
HETATM   15  C   UNK N   1      35.696  14.028  12.826  0.00  0.00     0.008 A 
HETATM   16  C   UNK N   1      35.134  12.840  13.247  0.00  0.00     0.123 A 
HETATM   17  N   UNK N   1      35.500  12.664  14.526  0.00  0.00    -0.307 N 
HETATM   18  C   UNK N   1      35.110  11.553  15.370  0.00  0.00     0.177 C 
HETATM   19  N   UNK N   1      36.254  13.674  14.933  0.00  0.00    -0.310 N 
HETATM   20  C   UNK N   1      36.394  14.537  13.909  0.00  0.00     0.120 A 
ATOM     21  HN  UNK N   1      36.660  13.779  15.864  1.00  0.00     0.186 HD
ENDBRANCH  12  15
ENDBRANCH   6   9
ENDBRANCH   1   6
BRANCH   4  22
HETATM   22  C   UNK N   1      30.075  14.618   5.530  0.00  0.00     0.018 C 
HETATM   23  C   UNK N   1      29.762  14.698   4.223  0.00  0.00     0.075 C 
BRANCH  23  24
HETATM   24  C   UNK N   1      30.279  15.715   3.258  0.00  0.00     0.245 C 
HETATM   25  O   UNK N   1      31.435  15.655   2.868  0.00  0.00    -0.268 OA
HETATM   26  N   UNK N   1      29.455  16.658   2.740  0.00  0.00    -0.322 N 
HETATM   27  H   UNK N   1      29.790  17.227   2.010  0.00  0.00     0.169 HD
BRANCH  26  28
HETATM   28  C   UNK N   1      28.129  16.856   3.205  0.00  0.00     0.061 A 
HETATM   29  C   UNK N   1      27.092  15.987   2.822  0.00  0.00     0.032 A 
HETATM   30  C   UNK N   1      25.783  16.226   3.240  0.00  0.00     0.002 A 
HETATM   31  C   UNK N   1      25.500  17.338   4.035  0.00  0.00     0.002 A 
HETATM   32  C   UNK N   1      26.530  18.196   4.432  0.00  0.00     0.031 A 
HETATM   33  C   UNK N   1      27.845  17.951   4.026  0.00  0.00     0.052 A 
BRANCH  33  34
HETATM   34  N   UNK N   1      28.874  18.837   4.408  0.00  0.00    -0.397 N 
HETATM   35  H   UNK N   1      29.087  19.633   3.871  0.00  0.00     0.156 HD
HETATM   36  H   UNK N   1      29.387  18.656   5.229  0.00  0.00     0.156 HD
ENDBRANCH  33  34
ENDBRANCH  26  28
ENDBRANCH  23  24
ENDBRANCH   4  22
TORSDOF 7
ENDMDL
