MODEL 1
REMARK VINA RESULT:      -8.5      0.000      0.000
REMARK  7 active torsions:
REMARK  status: ('A' for Active; 'I' for Inactive)
REMARK    1  A    between atoms: N_15  and  C_16 
REMARK    2  A    between atoms: C_25  and  O_38 
REMARK    3  A    between atoms: C_28  and  C_29 
REMARK    4  A    between atoms: C_28  and  O_36 
REMARK    5  A    between atoms: C_29  and  C_31 
REMARK    6  A    between atoms: C_31  and  O_32 
REMARK    7  A    between atoms: O_32  and  C_33 
ROOT
HETATM    1  C   UNK N   1      34.650  17.092   9.571  0.00  0.00     0.013 C 
HETATM    2  C   UNK N   1      33.555  16.677   8.601  0.00  0.00     0.025 C 
HETATM    3  C   UNK N   1      32.366  17.630   8.634  0.00  0.00     0.014 C 
HETATM    4  C   UNK N   1      31.745  17.552   7.230  0.00  0.00     0.006 C 
HETATM    5  C   UNK N   1      30.266  17.154   7.381  0.00  0.00     0.021 C 
HETATM    6  C   UNK N   1      29.400  18.366   7.661  0.00  0.00    -0.014 C 
HETATM    7  C   UNK N   1      28.336  18.690   6.909  0.00  0.00    -0.058 C 
HETATM    8  C   UNK N   1      27.980  17.848   5.736  0.00  0.00    -0.041 A 
HETATM    9  C   UNK N   1      26.693  17.774   5.365  0.00  0.00     0.040 A 
HETATM   10  C   UNK N   1      26.284  16.796   4.364  0.00  0.00     0.065 A 
HETATM   11  C   UNK N   1      27.159  15.979   3.740  0.00  0.00    -0.011 A 
HETATM   12  C   UNK N   1      26.406  15.130   2.953  0.00  0.00     0.117 A 
HETATM   13  N   UNK N   1      25.103  15.450   3.138  0.00  0.00    -0.304 N 
ATOM     14  HN  UNK N   1      24.308  14.989   2.697  1.00  0.00     0.186 HD
HETATM   15  N   UNK N   1      25.036  16.464   3.994  0.00  0.00    -0.257 N 
HETATM   16  C   UNK N   1      28.620  16.016   3.962  0.00  0.00     0.057 A 
HETATM   17  C   UNK N   1      29.080  16.985   5.090  0.00  0.00    -0.006 A 
HETATM   18  C   UNK N   1      29.720  16.216   6.272  0.00  0.00     0.035 C 
HETATM   19  C   UNK N   1      30.642  14.981   6.052  0.00  0.00     0.124 C 
HETATM   20  C   UNK N   1      32.053  15.125   6.618  0.00  0.00     0.045 C 
HETATM   21  C   UNK N   1      32.620  16.547   6.445  0.00  0.00     0.001 C 
HETATM   22  C   UNK N   1      33.982  16.677   7.136  0.00  0.00     0.131 C 
HETATM   23  C   UNK N   1      32.725  16.886   4.961  0.00  0.00     0.019 C 
HETATM   24  C   UNK N   1      30.067  17.937   4.435  0.00  0.00     0.021 C 
HETATM   25  C   UNK N   1      27.445  19.801   7.363  0.00  0.00     0.048 C 
ENDROOT
BRANCH  22  26
HETATM   26  C   UNK N   1      34.953  15.581   6.747  0.00  0.00     0.186 C 
HETATM   27  O   UNK N   1      35.635  15.687   5.739  0.00  0.00    -0.292 OA
BRANCH  26  28
HETATM   28  C   UNK N   1      35.042  14.337   7.591  0.00  0.00     0.260 C 
BRANCH  28  29
HETATM   29  O   UNK N   1      36.312  14.141   8.093  0.00  0.00    -0.314 OA
BRANCH  29  30
HETATM   30  C   UNK N   1      36.587  14.188   9.421  0.00  0.00     0.255 C 
HETATM   31  O   UNK N   1      37.538  14.842   9.813  0.00  0.00    -0.266 OA
HETATM   32  C   UNK N   1      35.750  13.448  10.421  0.00  0.00     0.126 C 
ENDBRANCH  29  30
ENDBRANCH  28  29
ENDBRANCH  26  28
ENDBRANCH  22  26
BRANCH  22  33
HETATM   33  O   UNK N   1      34.562  17.920   6.835  0.00  0.00    -0.381 OA
HETATM   34  H   UNK N   1      34.522  18.703   6.264  0.00  0.00     0.211 HD
ENDBRANCH  22  33
BRANCH  19  35
HETATM   35  O   UNK N   1      30.689  14.519   4.737  0.00  0.00    -0.395 OA
HETATM   36  H   UNK N   1      31.464  14.356   4.177  0.00  0.00     0.210 HD
ENDBRANCH  19  35
BRANCH  15  37
HETATM   37  C   UNK N   1      23.807  17.042   4.462  0.00  0.00     0.057 A 
HETATM   38  C   UNK N   1      23.243  18.151   3.812  0.00  0.00     0.031 A 
HETATM   39  C   UNK N   1      22.054  18.715   4.275  0.00  0.00     0.002 A 
HETATM   40  C   UNK N   1      21.427  18.187   5.404  0.00  0.00     0.000 A 
HETATM   41  C   UNK N   1      21.984  17.088   6.063  0.00  0.00     0.002 A 
HETATM   42  C   UNK N   1      23.165  16.509   5.588  0.00  0.00     0.031 A 
ENDBRANCH  15  37
TORSDOF 7
ENDMDL
MODEL 2
REMARK VINA RESULT:      -8.4      8.247     14.531
REMARK  7 active torsions:
REMARK  status: ('A' for Active; 'I' for Inactive)
REMARK    1  A    between atoms: N_15  and  C_16 
REMARK    2  A    between atoms: C_25  and  O_38 
REMARK    3  A    between atoms: C_28  and  C_29 
REMARK    4  A    between atoms: C_28  and  O_36 
REMARK    5  A    between atoms: C_29  and  C_31 
REMARK    6  A    between atoms: C_31  and  O_32 
REMARK    7  A    between atoms: O_32  and  C_33 
ROOT
HETATM    1  C   UNK N   1      36.084  15.900  10.906  0.00  0.00     0.013 C 
HETATM    2  C   UNK N   1      36.335  14.640  11.718  0.00  0.00     0.025 C 
HETATM    3  C   UNK N   1      35.919  14.802  13.175  0.00  0.00     0.014 C 
HETATM    4  C   UNK N   1      35.546  13.388  13.651  0.00  0.00     0.006 C 
HETATM    5  C   UNK N   1      36.406  13.054  14.883  0.00  0.00     0.021 C 
HETATM    6  C   UNK N   1      35.784  13.608  16.149  0.00  0.00    -0.014 C 
HETATM    7  C   UNK N   1      35.505  12.843  17.217  0.00  0.00    -0.058 C 
HETATM    8  C   UNK N   1      35.794  11.385  17.175  0.00  0.00    -0.041 A 
HETATM    9  C   UNK N   1      36.088  10.755  18.322  0.00  0.00     0.040 A 
HETATM   10  C   UNK N   1      36.585   9.385  18.288  0.00  0.00     0.065 A 
HETATM   11  C   UNK N   1      36.718   8.685  17.142  0.00  0.00    -0.011 A 
HETATM   12  C   UNK N   1      37.309   7.484  17.485  0.00  0.00     0.117 A 
HETATM   13  N   UNK N   1      37.528   7.505  18.821  0.00  0.00    -0.304 N 
ATOM     14  HN  UNK N   1      37.962   6.760  19.365  1.00  0.00     0.186 HD
HETATM   15  N   UNK N   1      37.082   8.660  19.303  0.00  0.00    -0.257 N 
HETATM   16  C   UNK N   1      36.334   9.204  15.811  0.00  0.00     0.057 A 
HETATM   17  C   UNK N   1      35.886  10.694  15.802  0.00  0.00    -0.006 A 
HETATM   18  C   UNK N   1      36.863  11.574  14.984  0.00  0.00     0.035 C 
HETATM   19  C   UNK N   1      37.514  11.076  13.660  0.00  0.00     0.124 C 
HETATM   20  C   UNK N   1      37.210  11.935  12.434  0.00  0.00     0.045 C 
HETATM   21  C   UNK N   1      35.765  12.469  12.426  0.00  0.00     0.001 C 
HETATM   22  C   UNK N   1      35.544  13.423  11.246  0.00  0.00     0.131 C 
HETATM   23  C   UNK N   1      34.782  11.304  12.378  0.00  0.00     0.019 C 
HETATM   24  C   UNK N   1      34.488  10.698  15.206  0.00  0.00     0.021 C 
HETATM   25  C   UNK N   1      35.054  13.508  18.479  0.00  0.00     0.048 C 
ENDROOT
BRANCH  22  26
HETATM   26  C   UNK N   1      35.987  12.841   9.920  0.00  0.00     0.186 C 
HETATM   27  O   UNK N   1      37.175  12.774   9.638  0.00  0.00    -0.292 OA
BRANCH  26  28
HETATM   28  C   UNK N   1      34.951  12.381   8.930  0.00  0.00     0.260 C 
BRANCH  28  29
HETATM   29  O   UNK N   1      34.436  13.429   8.195  0.00  0.00    -0.314 OA
BRANCH  29  30
HETATM   30  C   UNK N   1      33.110  13.560   7.941  0.00  0.00     0.255 C 
HETATM   31  O   UNK N   1      32.306  13.361   8.836  0.00  0.00    -0.266 OA
HETATM   32  C   UNK N   1      32.606  13.944   6.582  0.00  0.00     0.126 C 
ENDBRANCH  29  30
ENDBRANCH  28  29
ENDBRANCH  26  28
ENDBRANCH  22  26
BRANCH  22  33
HETATM   33  O   UNK N   1      34.188  13.774  11.153  0.00  0.00    -0.381 OA
HETATM   34  H   UNK N   1      33.463  14.007  10.553  0.00  0.00     0.211 HD
ENDBRANCH  22  33
BRANCH  19  35
HETATM   35  O   UNK N   1      37.295   9.728  13.378  0.00  0.00    -0.395 OA
HETATM   36  H   UNK N   1      36.593   9.325  12.843  0.00  0.00     0.210 HD
ENDBRANCH  19  35
BRANCH  15  37
HETATM   37  C   UNK N   1      37.189   9.052  20.681  0.00  0.00     0.057 A 
HETATM   38  C   UNK N   1      38.279   9.818  21.126  0.00  0.00     0.031 A 
HETATM   39  C   UNK N   1      38.384  10.189  22.466  0.00  0.00     0.002 A 
HETATM   40  C   UNK N   1      37.411   9.781  23.379  0.00  0.00     0.000 A 
HETATM   41  C   UNK N   1      36.327   9.012  22.949  0.00  0.00     0.002 A 
HETATM   42  C   UNK N   1      36.210   8.657  21.601  0.00  0.00     0.031 A 
ENDBRANCH  15  37
TORSDOF 7
ENDMDL
MODEL 3
REMARK VINA RESULT:      -8.3      3.136      5.118
REMARK  7 active torsions:
REMARK  status: ('A' for Active; 'I' for Inactive)
REMARK    1  A    between atoms: N_15  and  C_16 
REMARK    2  A    between atoms: C_25  and  O_38 
REMARK    3  A    between atoms: C_28  and  C_29 
REMARK    4  A    between atoms: C_28  and  O_36 
REMARK    5  A    between atoms: C_29  and  C_31 
REMARK    6  A    between atoms: C_31  and  O_32 
REMARK    7  A    between atoms: O_32  and  C_33 
ROOT
HETATM    1  C   UNK N   1      38.724  13.792   6.309  0.00  0.00     0.013 C 
HETATM    2  C   UNK N   1      37.466  14.405   6.900  0.00  0.00     0.025 C 
HETATM    3  C   UNK N   1      36.403  14.673   5.842  0.00  0.00     0.014 C 
HETATM    4  C   UNK N   1      35.059  14.580   6.582  0.00  0.00     0.006 C 
HETATM    5  C   UNK N   1      34.302  15.904   6.370  0.00  0.00     0.021 C 
HETATM    6  C   UNK N   1      33.542  15.894   5.059  0.00  0.00    -0.014 C 
HETATM    7  C   UNK N   1      32.223  16.133   4.981  0.00  0.00    -0.058 C 
HETATM    8  C   UNK N   1      31.449  16.406   6.221  0.00  0.00    -0.041 A 
HETATM    9  C   UNK N   1      30.365  17.192   6.141  0.00  0.00     0.040 A 
HETATM   10  C   UNK N   1      29.715  17.652   7.362  0.00  0.00     0.065 A 
HETATM   11  C   UNK N   1      30.124  17.281   8.593  0.00  0.00    -0.011 A 
HETATM   12  C   UNK N   1      29.351  17.990   9.492  0.00  0.00     0.117 A 
HETATM   13  N   UNK N   1      28.512  18.777   8.776  0.00  0.00    -0.304 N 
ATOM     14  HN  UNK N   1      27.826  19.423   9.164  1.00  0.00     0.186 HD
HETATM   15  N   UNK N   1      28.736  18.564   7.484  0.00  0.00    -0.257 N 
HETATM   16  C   UNK N   1      31.235  16.337   8.840  0.00  0.00     0.057 A 
HETATM   17  C   UNK N   1      32.008  15.898   7.562  0.00  0.00    -0.006 A 
HETATM   18  C   UNK N   1      33.475  16.392   7.589  0.00  0.00     0.035 C 
HETATM   19  C   UNK N   1      34.320  16.401   8.897  0.00  0.00     0.124 C 
HETATM   20  C   UNK N   1      35.599  15.567   8.840  0.00  0.00     0.045 C 
HETATM   21  C   UNK N   1      35.418  14.256   8.051  0.00  0.00     0.001 C 
HETATM   22  C   UNK N   1      36.753  13.515   7.915  0.00  0.00     0.131 C 
HETATM   23  C   UNK N   1      34.373  13.380   8.736  0.00  0.00     0.019 C 
HETATM   24  C   UNK N   1      31.924  14.380   7.534  0.00  0.00     0.021 C 
HETATM   25  C   UNK N   1      31.596  16.271   3.630  0.00  0.00     0.048 C 
ENDROOT
BRANCH  22  26
HETATM   26  C   UNK N   1      37.473  13.339   9.236  0.00  0.00     0.186 C 
HETATM   27  O   UNK N   1      38.378  14.096   9.555  0.00  0.00    -0.292 OA
BRANCH  26  28
HETATM   28  C   UNK N   1      37.094  12.195  10.139  0.00  0.00     0.260 C 
BRANCH  28  29
HETATM   29  O   UNK N   1      37.061  12.571  11.466  0.00  0.00    -0.314 OA
BRANCH  29  30
HETATM   30  C   UNK N   1      35.976  13.155  12.032  0.00  0.00     0.255 C 
HETATM   31  O   UNK N   1      34.967  12.495  12.215  0.00  0.00    -0.266 OA
HETATM   32  C   UNK N   1      35.985  14.599  12.437  0.00  0.00     0.126 C 
ENDBRANCH  29  30
ENDBRANCH  28  29
ENDBRANCH  26  28
ENDBRANCH  22  26
BRANCH  22  33
HETATM   33  O   UNK N   1      36.549  12.249   7.341  0.00  0.00    -0.381 OA
HETATM   34  H   UNK N   1      35.908  11.660   6.915  0.00  0.00     0.211 HD
ENDBRANCH  22  33
BRANCH  19  35
HETATM   35  O   UNK N   1      33.600  16.110  10.055  0.00  0.00    -0.395 OA
HETATM   36  H   UNK N   1      33.334  15.246  10.405  0.00  0.00     0.210 HD
ENDBRANCH  19  35
BRANCH  15  37
HETATM   37  C   UNK N   1      28.059  19.261   6.426  0.00  0.00     0.057 A 
HETATM   38  C   UNK N   1      27.501  20.530   6.645  0.00  0.00     0.031 A 
HETATM   39  C   UNK N   1      26.837  21.200   5.618  0.00  0.00     0.002 A 
HETATM   40  C   UNK N   1      26.707  20.598   4.365  0.00  0.00     0.000 A 
HETATM   41  C   UNK N   1      27.251  19.332   4.138  0.00  0.00     0.002 A 
HETATM   42  C   UNK N   1      27.935  18.668   5.162  0.00  0.00     0.031 A 
ENDBRANCH  15  37
TORSDOF 7
ENDMDL
MODEL 4
REMARK VINA RESULT:      -8.2      4.495     10.350
REMARK  7 active torsions:
REMARK  status: ('A' for Active; 'I' for Inactive)
REMARK    1  A    between atoms: N_15  and  C_16 
REMARK    2  A    between atoms: C_25  and  O_38 
REMARK    3  A    between atoms: C_28  and  C_29 
REMARK    4  A    between atoms: C_28  and  O_36 
REMARK    5  A    between atoms: C_29  and  C_31 
REMARK    6  A    between atoms: C_31  and  O_32 
REMARK    7  A    between atoms: O_32  and  C_33 
ROOT
HETATM    1  C   UNK N   1      24.418  12.057   1.051  0.00  0.00     0.013 C 
HETATM    2  C   UNK N   1      24.892  12.880   2.238  0.00  0.00     0.025 C 
HETATM    3  C   UNK N   1      26.383  13.185   2.169  0.00  0.00     0.014 C 
HETATM    4  C   UNK N   1      26.562  14.512   2.925  0.00  0.00     0.006 C 
HETATM    5  C   UNK N   1      27.588  14.288   4.051  0.00  0.00     0.021 C 
HETATM    6  C   UNK N   1      29.006  14.430   3.533  0.00  0.00    -0.014 C 
HETATM    7  C   UNK N   1      29.896  15.278   4.073  0.00  0.00    -0.058 C 
HETATM    8  C   UNK N   1      29.493  16.137   5.219  0.00  0.00    -0.041 A 
HETATM    9  C   UNK N   1      30.430  16.504   6.106  0.00  0.00     0.040 A 
HETATM   10  C   UNK N   1      30.033  17.159   7.347  0.00  0.00     0.065 A 
HETATM   11  C   UNK N   1      28.751  17.467   7.633  0.00  0.00    -0.011 A 
HETATM   12  C   UNK N   1      28.748  17.970   8.919  0.00  0.00     0.117 A 
HETATM   13  N   UNK N   1      30.023  17.934   9.374  0.00  0.00    -0.304 N 
ATOM     14  HN  UNK N   1      30.335  18.232  10.298  1.00  0.00     0.186 HD
HETATM   15  N   UNK N   1      30.799  17.444   8.413  0.00  0.00    -0.257 N 
HETATM   16  C   UNK N   1      27.621  17.223   6.710  0.00  0.00     0.057 A 
HETATM   17  C   UNK N   1      27.998  16.444   5.417  0.00  0.00    -0.006 A 
HETATM   18  C   UNK N   1      27.302  15.062   5.365  0.00  0.00     0.035 C 
HETATM   19  C   UNK N   1      25.838  14.854   5.854  0.00  0.00     0.124 C 
HETATM   20  C   UNK N   1      24.878  14.319   4.793  0.00  0.00     0.045 C 
HETATM   21  C   UNK N   1      25.145  14.913   3.397  0.00  0.00     0.001 C 
HETATM   22  C   UNK N   1      24.243  14.257   2.345  0.00  0.00     0.131 C 
HETATM   23  C   UNK N   1      24.938  16.424   3.429  0.00  0.00     0.019 C 
HETATM   24  C   UNK N   1      27.569  17.335   4.262  0.00  0.00     0.021 C 
HETATM   25  C   UNK N   1      31.316  15.223   3.607  0.00  0.00     0.048 C 
ENDROOT
BRANCH  22  26
HETATM   26  C   UNK N   1      22.780  14.252   2.738  0.00  0.00     0.186 C 
HETATM   27  O   UNK N   1      22.315  13.325   3.385  0.00  0.00    -0.292 OA
BRANCH  26  28
HETATM   28  C   UNK N   1      21.888  15.378   2.287  0.00  0.00     0.260 C 
BRANCH  28  29
HETATM   29  O   UNK N   1      21.474  15.220   0.981  0.00  0.00    -0.314 OA
BRANCH  29  30
HETATM   30  C   UNK N   1      20.279  15.680   0.533  0.00  0.00     0.255 C 
HETATM   31  O   UNK N   1      20.192  16.826   0.125  0.00  0.00    -0.266 OA
HETATM   32  C   UNK N   1      19.056  14.812   0.531  0.00  0.00     0.126 C 
ENDBRANCH  29  30
ENDBRANCH  28  29
ENDBRANCH  26  28
ENDBRANCH  22  26
BRANCH  22  33
HETATM   33  O   UNK N   1      24.376  14.916   1.112  0.00  0.00    -0.381 OA
HETATM   34  H   UNK N   1      24.800  14.900   0.241  0.00  0.00     0.211 HD
ENDBRANCH  22  33
BRANCH  19  35
HETATM   35  O   UNK N   1      25.283  15.955   6.504  0.00  0.00    -0.395 OA
HETATM   36  H   UNK N   1      24.904  16.761   6.120  0.00  0.00     0.210 HD
ENDBRANCH  19  35
BRANCH  15  37
HETATM   37  C   UNK N   1      32.211  17.219   8.555  0.00  0.00     0.057 A 
HETATM   38  C   UNK N   1      33.135  18.211   8.190  0.00  0.00     0.031 A 
HETATM   39  C   UNK N   1      34.505  17.986   8.322  0.00  0.00     0.002 A 
HETATM   40  C   UNK N   1      34.965  16.758   8.801  0.00  0.00     0.000 A 
HETATM   41  C   UNK N   1      34.054  15.762   9.160  0.00  0.00     0.002 A 
HETATM   42  C   UNK N   1      32.680  15.994   9.048  0.00  0.00     0.031 A 
ENDBRANCH  15  37
TORSDOF 7
ENDMDL
MODEL 5
REMARK VINA RESULT:      -8.1      6.722     11.576
REMARK  7 active torsions:
REMARK  status: ('A' for Active; 'I' for Inactive)
REMARK    1  A    between atoms: N_15  and  C_16 
REMARK    2  A    between atoms: C_25  and  O_38 
REMARK    3  A    between atoms: C_28  and  C_29 
REMARK    4  A    between atoms: C_28  and  O_36 
REMARK    5  A    between atoms: C_29  and  C_31 
REMARK    6  A    between atoms: C_31  and  O_32 
REMARK    7  A    between atoms: O_32  and  C_33 
ROOT
HETATM    1  C   UNK N   1      32.982  12.713   5.438  0.00  0.00     0.013 C 
HETATM    2  C   UNK N   1      33.508  13.120   6.805  0.00  0.00     0.025 C 
HETATM    3  C   UNK N   1      33.590  11.940   7.765  0.00  0.00     0.014 C 
HETATM    4  C   UNK N   1      34.725  12.289   8.742  0.00  0.00     0.006 C 
HETATM    5  C   UNK N   1      34.159  12.241  10.172  0.00  0.00     0.021 C 
HETATM    6  C   UNK N   1      34.169  10.827  10.717  0.00  0.00    -0.014 C 
HETATM    7  C   UNK N   1      34.768  10.497  11.873  0.00  0.00    -0.058 C 
HETATM    8  C   UNK N   1      35.469  11.543  12.664  0.00  0.00    -0.041 A 
HETATM    9  C   UNK N   1      35.533  11.406  13.997  0.00  0.00     0.040 A 
HETATM   10  C   UNK N   1      36.018  12.511  14.815  0.00  0.00     0.065 A 
HETATM   11  C   UNK N   1      36.464  13.670  14.287  0.00  0.00    -0.011 A 
HETATM   12  C   UNK N   1      36.735  14.505  15.353  0.00  0.00     0.117 A 
HETATM   13  N   UNK N   1      36.428  13.831  16.488  0.00  0.00    -0.304 N 
ATOM     14  HN  UNK N   1      36.513  14.193  17.437  1.00  0.00     0.186 HD
HETATM   15  N   UNK N   1      35.997  12.620  16.154  0.00  0.00    -0.257 N 
HETATM   16  C   UNK N   1      36.557  13.930  12.834  0.00  0.00     0.057 A 
HETATM   17  C   UNK N   1      35.962  12.807  11.936  0.00  0.00    -0.006 A 
HETATM   18  C   UNK N   1      34.731  13.309  11.142  0.00  0.00     0.035 C 
HETATM   19  C   UNK N   1      34.668  14.740  10.532  0.00  0.00     0.124 C 
HETATM   20  C   UNK N   1      34.474  14.784   9.017  0.00  0.00     0.045 C 
HETATM   21  C   UNK N   1      35.250  13.671   8.288  0.00  0.00     0.001 C 
HETATM   22  C   UNK N   1      34.929  13.677   6.789  0.00  0.00     0.131 C 
HETATM   23  C   UNK N   1      36.748  13.841   8.526  0.00  0.00     0.019 C 
HETATM   24  C   UNK N   1      37.092  12.379  11.014  0.00  0.00     0.021 C 
HETATM   25  C   UNK N   1      34.578   9.115  12.412  0.00  0.00     0.048 C 
ENDROOT
BRANCH  22  26
HETATM   26  C   UNK N   1      35.079  15.044   6.154  0.00  0.00     0.186 C 
HETATM   27  O   UNK N   1      36.143  15.383   5.657  0.00  0.00    -0.292 OA
BRANCH  26  28
HETATM   28  C   UNK N   1      33.918  16.002   6.176  0.00  0.00     0.260 C 
BRANCH  28  29
HETATM   29  O   UNK N   1      34.330  17.313   6.284  0.00  0.00    -0.314 OA
BRANCH  29  30
HETATM   30  C   UNK N   1      34.139  18.048   7.409  0.00  0.00     0.255 C 
HETATM   31  O   UNK N   1      35.043  18.754   7.824  0.00  0.00    -0.266 OA
HETATM   32  C   UNK N   1      32.841  18.011   8.158  0.00  0.00     0.126 C 
ENDBRANCH  29  30
ENDBRANCH  28  29
ENDBRANCH  26  28
ENDBRANCH  22  26
BRANCH  22  33
HETATM   33  O   UNK N   1      35.761  12.771   6.110  0.00  0.00    -0.381 OA
HETATM   34  H   UNK N   1      36.340  12.639   5.344  0.00  0.00     0.211 HD
ENDBRANCH  22  33
BRANCH  19  35
HETATM   35  O   UNK N   1      35.713  15.580  10.914  0.00  0.00    -0.395 OA
HETATM   36  H   UNK N   1      36.209  15.593  11.748  0.00  0.00     0.210 HD
ENDBRANCH  19  35
BRANCH  15  37
HETATM   37  C   UNK N   1      35.539  11.640  17.099  0.00  0.00     0.057 A 
HETATM   38  C   UNK N   1      35.147  10.361  16.673  0.00  0.00     0.031 A 
HETATM   39  C   UNK N   1      34.695   9.415  17.593  0.00  0.00     0.002 A 
HETATM   40  C   UNK N   1      34.611   9.746  18.946  0.00  0.00     0.000 A 
HETATM   41  C   UNK N   1      34.990  11.019  19.380  0.00  0.00     0.002 A 
HETATM   42  C   UNK N   1      35.464  11.961  18.461  0.00  0.00     0.031 A 
ENDBRANCH  15  37
TORSDOF 7
ENDMDL
MODEL 6
REMARK VINA RESULT:      -8.0      2.093      3.684
REMARK  7 active torsions:
REMARK  status: ('A' for Active; 'I' for Inactive)
REMARK    1  A    between atoms: N_15  and  C_16 
REMARK    2  A    between atoms: C_25  and  O_38 
REMARK    3  A    between atoms: C_28  and  C_29 
REMARK    4  A    between atoms: C_28  and  O_36 
REMARK    5  A    between atoms: C_29  and  C_31 
REMARK    6  A    between atoms: C_31  and  O_32 
REMARK    7  A    between atoms: O_32  and  C_33 
ROOT
HETATM    1  C   UNK N   1      35.458  13.600  11.986  0.00  0.00     0.013 C 
HETATM    2  C   UNK N   1      34.823  13.858  10.629  0.00  0.00     0.025 C 
HETATM    3  C   UNK N   1      33.733  14.922  10.697  0.00  0.00     0.014 C 
HETATM    4  C   UNK N   1      33.710  15.569   9.303  0.00  0.00     0.006 C 
HETATM    5  C   UNK N   1      32.283  15.444   8.740  0.00  0.00     0.021 C 
HETATM    6  C   UNK N   1      31.398  16.568   9.241  0.00  0.00    -0.014 C 
HETATM    7  C   UNK N   1      30.719  17.382   8.416  0.00  0.00    -0.058 C 
HETATM    8  C   UNK N   1      30.836  17.203   6.944  0.00  0.00    -0.041 A 
HETATM    9  C   UNK N   1      29.795  17.547   6.170  0.00  0.00     0.040 A 
HETATM   10  C   UNK N   1      29.794  17.186   4.758  0.00  0.00     0.065 A 
HETATM   11  C   UNK N   1      30.828  16.555   4.164  0.00  0.00    -0.011 A 
HETATM   12  C   UNK N   1      30.429  16.285   2.870  0.00  0.00     0.117 A 
HETATM   13  N   UNK N   1      29.163  16.746   2.729  0.00  0.00    -0.304 N 
ATOM     14  HN  UNK N   1      28.596  16.682   1.884  1.00  0.00     0.186 HD
HETATM   15  N   UNK N   1      28.785  17.295   3.878  0.00  0.00    -0.257 N 
HETATM   16  C   UNK N   1      32.087  16.206   4.858  0.00  0.00     0.057 A 
HETATM   17  C   UNK N   1      32.085  16.496   6.387  0.00  0.00    -0.006 A 
HETATM   18  C   UNK N   1      32.198  15.190   7.211  0.00  0.00     0.035 C 
HETATM   19  C   UNK N   1      33.111  14.009   6.768  0.00  0.00     0.124 C 
HETATM   20  C   UNK N   1      34.190  13.619   7.776  0.00  0.00     0.045 C 
HETATM   21  C   UNK N   1      34.804  14.839   8.490  0.00  0.00     0.001 C 
HETATM   22  C   UNK N   1      35.790  14.394   9.577  0.00  0.00     0.131 C 
HETATM   23  C   UNK N   1      35.487  15.746   7.471  0.00  0.00     0.019 C 
HETATM   24  C   UNK N   1      33.266  17.421   6.630  0.00  0.00     0.021 C 
HETATM   25  C   UNK N   1      29.741  18.348   9.004  0.00  0.00     0.048 C 
ENDROOT
BRANCH  22  26
HETATM   26  C   UNK N   1      36.816  13.398   9.077  0.00  0.00     0.186 C 
HETATM   27  O   UNK N   1      36.476  12.270   8.750  0.00  0.00    -0.292 OA
BRANCH  26  28
HETATM   28  C   UNK N   1      38.268  13.793   9.026  0.00  0.00     0.260 C 
BRANCH  28  29
HETATM   29  O   UNK N   1      38.892  13.326   7.888  0.00  0.00    -0.314 OA
BRANCH  29  30
HETATM   30  C   UNK N   1      39.236  14.139   6.858  0.00  0.00     0.255 C 
HETATM   31  O   UNK N   1      40.286  14.756   6.906  0.00  0.00    -0.266 OA
HETATM   32  C   UNK N   1      38.351  14.301   5.658  0.00  0.00     0.126 C 
ENDBRANCH  29  30
ENDBRANCH  28  29
ENDBRANCH  26  28
ENDBRANCH  22  26
BRANCH  22  33
HETATM   33  O   UNK N   1      36.463  15.507  10.107  0.00  0.00    -0.381 OA
HETATM   34  H   UNK N   1      36.394  16.446  10.337  0.00  0.00     0.211 HD
ENDBRANCH  22  33
BRANCH  19  35
HETATM   35  O   UNK N   1      33.661  14.148   5.494  0.00  0.00    -0.395 OA
HETATM   36  H   UNK N   1      33.641  14.917   4.904  0.00  0.00     0.210 HD
ENDBRANCH  19  35
BRANCH  15  37
HETATM   37  C   UNK N   1      27.481  17.850   4.114  0.00  0.00     0.057 A 
HETATM   38  C   UNK N   1      27.279  19.239   4.094  0.00  0.00     0.031 A 
HETATM   39  C   UNK N   1      26.013  19.775   4.332  0.00  0.00     0.002 A 
HETATM   40  C   UNK N   1      24.941  18.927   4.611  0.00  0.00     0.000 A 
HETATM   41  C   UNK N   1      25.132  17.543   4.641  0.00  0.00     0.002 A 
HETATM   42  C   UNK N   1      26.396  17.004   4.382  0.00  0.00     0.031 A 
ENDBRANCH  15  37
TORSDOF 7
ENDMDL
MODEL 7
REMARK VINA RESULT:      -8.0      1.135      2.309
REMARK  7 active torsions:
REMARK  status: ('A' for Active; 'I' for Inactive)
REMARK    1  A    between atoms: N_15  and  C_16 
REMARK    2  A    between atoms: C_25  and  O_38 
REMARK    3  A    between atoms: C_28  and  C_29 
REMARK    4  A    between atoms: C_28  and  O_36 
REMARK    5  A    between atoms: C_29  and  C_31 
REMARK    6  A    between atoms: C_31  and  O_32 
REMARK    7  A    between atoms: O_32  and  C_33 
ROOT
HETATM    1  C   UNK N   1      34.638  16.815   9.525  0.00  0.00     0.013 C 
HETATM    2  C   UNK N   1      33.523  16.436   8.564  0.00  0.00     0.025 C 
HETATM    3  C   UNK N   1      32.371  17.433   8.598  0.00  0.00     0.014 C 
HETATM    4  C   UNK N   1      31.739  17.371   7.198  0.00  0.00     0.006 C 
HETATM    5  C   UNK N   1      30.247  17.029   7.359  0.00  0.00     0.021 C 
HETATM    6  C   UNK N   1      29.428  18.273   7.638  0.00  0.00    -0.014 C 
HETATM    7  C   UNK N   1      28.372  18.632   6.890  0.00  0.00    -0.058 C 
HETATM    8  C   UNK N   1      27.979  17.798   5.724  0.00  0.00    -0.041 A 
HETATM    9  C   UNK N   1      26.687  17.770   5.360  0.00  0.00     0.040 A 
HETATM   10  C   UNK N   1      26.237  16.803   4.367  0.00  0.00     0.065 A 
HETATM   11  C   UNK N   1      27.077  15.951   3.742  0.00  0.00    -0.011 A 
HETATM   12  C   UNK N   1      26.289  15.126   2.964  0.00  0.00     0.117 A 
HETATM   13  N   UNK N   1      25.000  15.495   3.154  0.00  0.00    -0.304 N 
ATOM     14  HN  UNK N   1      24.186  15.062   2.720  1.00  0.00     0.186 HD
HETATM   15  N   UNK N   1      24.976  16.516   4.005  0.00  0.00    -0.257 N 
HETATM   16  C   UNK N   1      28.541  15.935   3.956  0.00  0.00     0.057 A 
HETATM   17  C   UNK N   1      29.042  16.892   5.076  0.00  0.00    -0.006 A 
HETATM   18  C   UNK N   1      29.660  16.106   6.258  0.00  0.00     0.035 C 
HETATM   19  C   UNK N   1      30.535  14.836   6.039  0.00  0.00     0.124 C 
HETATM   20  C   UNK N   1      31.954  14.931   6.597  0.00  0.00     0.045 C 
HETATM   21  C   UNK N   1      32.571  16.330   6.414  0.00  0.00     0.001 C 
HETATM   22  C   UNK N   1      33.942  16.414   7.096  0.00  0.00     0.131 C 
HETATM   23  C   UNK N   1      32.680  16.658   4.928  0.00  0.00     0.019 C 
HETATM   24  C   UNK N   1      30.060  17.804   4.411  0.00  0.00     0.021 C 
HETATM   25  C   UNK N   1      27.525  19.778   7.344  0.00  0.00     0.048 C 
ENDROOT
BRANCH  22  26
HETATM   26  C   UNK N   1      34.869  15.281   6.708  0.00  0.00     0.186 C 
HETATM   27  O   UNK N   1      35.229  14.461   7.540  0.00  0.00    -0.292 OA
BRANCH  26  28
HETATM   28  C   UNK N   1      35.381  15.194   5.294  0.00  0.00     0.260 C 
BRANCH  28  29
HETATM   29  O   UNK N   1      35.197  13.939   4.753  0.00  0.00    -0.314 OA
BRANCH  29  30
HETATM   30  C   UNK N   1      34.335  13.704   3.731  0.00  0.00     0.255 C 
HETATM   31  O   UNK N   1      33.229  13.252   3.972  0.00  0.00    -0.266 OA
HETATM   32  C   UNK N   1      34.713  13.985   2.307  0.00  0.00     0.126 C 
ENDBRANCH  29  30
ENDBRANCH  28  29
ENDBRANCH  26  28
ENDBRANCH  22  26
BRANCH  22  33
HETATM   33  O   UNK N   1      34.566  17.633   6.786  0.00  0.00    -0.381 OA
HETATM   34  H   UNK N   1      35.268  18.062   6.275  0.00  0.00     0.211 HD
ENDBRANCH  22  33
BRANCH  19  35
HETATM   35  O   UNK N   1      30.557  14.367   4.727  0.00  0.00    -0.395 OA
HETATM   36  H   UNK N   1      31.318  14.245   4.137  0.00  0.00     0.210 HD
ENDBRANCH  19  35
BRANCH  15  37
HETATM   37  C   UNK N   1      23.772  17.141   4.477  0.00  0.00     0.057 A 
HETATM   38  C   UNK N   1      23.117  16.662   5.623  0.00  0.00     0.031 A 
HETATM   39  C   UNK N   1      21.944  17.266   6.074  0.00  0.00     0.002 A 
HETATM   40  C   UNK N   1      21.401  18.342   5.371  0.00  0.00     0.000 A 
HETATM   41  C   UNK N   1      22.040  18.822   4.225  0.00  0.00     0.002 A 
HETATM   42  C   UNK N   1      23.228  18.230   3.784  0.00  0.00     0.031 A 
ENDBRANCH  15  37
TORSDOF 7
ENDMDL
MODEL 8
REMARK VINA RESULT:      -7.9      2.099      2.878
REMARK  7 active torsions:
REMARK  status: ('A' for Active; 'I' for Inactive)
REMARK    1  A    between atoms: N_15  and  C_16 
REMARK    2  A    between atoms: C_25  and  O_38 
REMARK    3  A    between atoms: C_28  and  C_29 
REMARK    4  A    between atoms: C_28  and  O_36 
REMARK    5  A    between atoms: C_29  and  C_31 
REMARK    6  A    between atoms: C_31  and  O_32 
REMARK    7  A    between atoms: O_32  and  C_33 
ROOT
HETATM    1  C   UNK N   1      33.352  18.093   8.494  0.00  0.00     0.013 C 
HETATM    2  C   UNK N   1      32.602  17.140   7.578  0.00  0.00     0.025 C 
HETATM    3  C   UNK N   1      31.347  17.775   6.991  0.00  0.00     0.014 C 
HETATM    4  C   UNK N   1      31.126  17.068   5.644  0.00  0.00     0.006 C 
HETATM    5  C   UNK N   1      29.713  16.457   5.648  0.00  0.00     0.021 C 
HETATM    6  C   UNK N   1      28.674  17.484   5.243  0.00  0.00    -0.014 C 
HETATM    7  C   UNK N   1      27.814  17.287   4.230  0.00  0.00    -0.058 C 
HETATM    8  C   UNK N   1      27.873  16.023   3.449  0.00  0.00    -0.041 A 
HETATM    9  C   UNK N   1      26.743  15.558   2.894  0.00  0.00     0.040 A 
HETATM   10  C   UNK N   1      26.722  14.222   2.310  0.00  0.00     0.065 A 
HETATM   11  C   UNK N   1      27.815  13.432   2.252  0.00  0.00    -0.011 A 
HETATM   12  C   UNK N   1      27.394  12.220   1.740  0.00  0.00     0.117 A 
HETATM   13  N   UNK N   1      26.060  12.311   1.521  0.00  0.00    -0.304 N 
ATOM     14  HN  UNK N   1      25.464  11.570   1.155  1.00  0.00     0.186 HD
HETATM   15  N   UNK N   1      25.659  13.530   1.866  0.00  0.00    -0.257 N 
HETATM   16  C   UNK N   1      29.154  13.846   2.723  0.00  0.00     0.057 A 
HETATM   17  C   UNK N   1      29.192  15.229   3.434  0.00  0.00    -0.006 A 
HETATM   18  C   UNK N   1      29.584  15.091   4.925  0.00  0.00     0.035 C 
HETATM   19  C   UNK N   1      30.664  14.076   5.405  0.00  0.00     0.124 C 
HETATM   20  C   UNK N   1      31.853  14.702   6.131  0.00  0.00     0.045 C 
HETATM   21  C   UNK N   1      32.282  16.048   5.517  0.00  0.00     0.001 C 
HETATM   22  C   UNK N   1      33.394  16.696   6.351  0.00  0.00     0.131 C 
HETATM   23  C   UNK N   1      32.732  15.840   4.074  0.00  0.00     0.019 C 
HETATM   24  C   UNK N   1      30.203  16.060   2.659  0.00  0.00     0.021 C 
HETATM   25  C   UNK N   1      26.716  18.280   4.016  0.00  0.00     0.048 C 
ENDROOT
BRANCH  22  26
HETATM   26  C   UNK N   1      34.549  15.758   6.634  0.00  0.00     0.186 C 
HETATM   27  O   UNK N   1      35.493  15.686   5.860  0.00  0.00    -0.292 OA
BRANCH  26  28
HETATM   28  C   UNK N   1      34.507  14.880   7.856  0.00  0.00     0.260 C 
BRANCH  28  29
HETATM   29  O   UNK N   1      35.434  15.264   8.802  0.00  0.00    -0.314 OA
BRANCH  29  30
HETATM   30  C   UNK N   1      35.162  15.268  10.131  0.00  0.00     0.255 C 
HETATM   31  O   UNK N   1      34.597  14.310  10.630  0.00  0.00    -0.266 OA
HETATM   32  C   UNK N   1      35.536  16.429  11.004  0.00  0.00     0.126 C 
ENDBRANCH  29  30
ENDBRANCH  28  29
ENDBRANCH  26  28
ENDBRANCH  22  26
BRANCH  22  33
HETATM   33  O   UNK N   1      33.889  17.836   5.697  0.00  0.00    -0.381 OA
HETATM   34  H   UNK N   1      33.660  18.619   5.174  0.00  0.00     0.211 HD
ENDBRANCH  22  33
BRANCH  19  35
HETATM   35  O   UNK N   1      31.104  13.190   4.423  0.00  0.00    -0.395 OA
HETATM   36  H   UNK N   1      30.690  12.968   3.574  0.00  0.00     0.210 HD
ENDBRANCH  19  35
BRANCH  15  37
HETATM   37  C   UNK N   1      24.294  13.974   1.812  0.00  0.00     0.057 A 
HETATM   38  C   UNK N   1      23.735  14.703   2.873  0.00  0.00     0.031 A 
HETATM   39  C   UNK N   1      22.406  15.124   2.821  0.00  0.00     0.002 A 
HETATM   40  C   UNK N   1      21.617  14.803   1.715  0.00  0.00     0.000 A 
HETATM   41  C   UNK N   1      22.162  14.071   0.657  0.00  0.00     0.002 A 
HETATM   42  C   UNK N   1      23.500  13.666   0.700  0.00  0.00     0.031 A 
ENDBRANCH  15  37
TORSDOF 7
ENDMDL
MODEL 9
REMARK VINA RESULT:      -7.8      8.952     13.975
REMARK  7 active torsions:
REMARK  status: ('A' for Active; 'I' for Inactive)
REMARK    1  A    between atoms: N_15  and  C_16 
REMARK    2  A    between atoms: C_25  and  O_38 
REMARK    3  A    between atoms: C_28  and  C_29 
REMARK    4  A    between atoms: C_28  and  O_36 
REMARK    5  A    between atoms: C_29  and  C_31 
REMARK    6  A    between atoms: C_31  and  O_32 
REMARK    7  A    between atoms: O_32  and  C_33 
ROOT
HETATM    1  C   UNK N   1      35.289   9.174   8.726  0.00  0.00     0.013 C 
HETATM    2  C   UNK N   1      35.219   9.927  10.044  0.00  0.00     0.025 C 
HETATM    3  C   UNK N   1      35.593   9.047  11.231  0.00  0.00     0.014 C 
HETATM    4  C   UNK N   1      36.166  10.008  12.285  0.00  0.00     0.006 C 
HETATM    5  C   UNK N   1      35.354   9.839  13.581  0.00  0.00     0.021 C 
HETATM    6  C   UNK N   1      35.875   8.678  14.404  0.00  0.00    -0.014 C 
HETATM    7  C   UNK N   1      36.255   8.807  15.686  0.00  0.00    -0.058 C 
HETATM    8  C   UNK N   1      36.185  10.138  16.344  0.00  0.00    -0.041 A 
HETATM    9  C   UNK N   1      35.976  10.190  17.668  0.00  0.00     0.040 A 
HETATM   10  C   UNK N   1      35.688  11.470  18.305  0.00  0.00     0.065 A 
HETATM   11  C   UNK N   1      35.669  12.636  17.626  0.00  0.00    -0.011 A 
HETATM   12  C   UNK N   1      35.259  13.603  18.523  0.00  0.00     0.117 A 
HETATM   13  N   UNK N   1      35.027  12.988  19.708  0.00  0.00    -0.304 N 
ATOM     14  HN  UNK N   1      34.703  13.442  20.561  1.00  0.00     0.186 HD
HETATM   15  N   UNK N   1      35.293  11.694  19.569  0.00  0.00    -0.257 N 
HETATM   16  C   UNK N   1      35.985  12.755  16.186  0.00  0.00     0.057 A 
HETATM   17  C   UNK N   1      36.208  11.398  15.458  0.00  0.00    -0.006 A 
HETATM   18  C   UNK N   1      35.119  11.144  14.386  0.00  0.00     0.035 C 
HETATM   19  C   UNK N   1      34.562  12.287  13.488  0.00  0.00     0.124 C 
HETATM   20  C   UNK N   1      34.746  12.072  11.987  0.00  0.00     0.045 C 
HETATM   21  C   UNK N   1      36.096  11.414  11.644  0.00  0.00     0.001 C 
HETATM   22  C   UNK N   1      36.185  11.105  10.145  0.00  0.00     0.131 C 
HETATM   23  C   UNK N   1      37.242  12.322  12.083  0.00  0.00     0.019 C 
HETATM   24  C   UNK N   1      37.595  11.486  14.844  0.00  0.00     0.021 C 
HETATM   25  C   UNK N   1      36.591   7.575  16.464  0.00  0.00     0.048 C 
ENDROOT
BRANCH  22  26
HETATM   26  C   UNK N   1      35.845  12.294   9.271  0.00  0.00     0.186 C 
HETATM   27  O   UNK N   1      34.794  12.326   8.649  0.00  0.00    -0.292 OA
BRANCH  26  28
HETATM   28  C   UNK N   1      36.833  13.423   9.140  0.00  0.00     0.260 C 
BRANCH  28  29
HETATM   29  O   UNK N   1      36.210  14.652   9.071  0.00  0.00    -0.314 OA
BRANCH  29  30
HETATM   30  C   UNK N   1      35.931  15.392  10.174  0.00  0.00     0.255 C 
HETATM   31  O   UNK N   1      36.813  16.063  10.683  0.00  0.00    -0.266 OA
HETATM   32  C   UNK N   1      34.562  15.404  10.785  0.00  0.00     0.126 C 
ENDBRANCH  29  30
ENDBRANCH  28  29
ENDBRANCH  26  28
ENDBRANCH  22  26
BRANCH  22  33
HETATM   33  O   UNK N   1      37.476  10.659   9.817  0.00  0.00    -0.381 OA
HETATM   34  H   UNK N   1      38.417  10.888   9.793  0.00  0.00     0.211 HD
ENDBRANCH  22  33
BRANCH  19  35
HETATM   35  O   UNK N   1      34.980  13.567  13.852  0.00  0.00    -0.395 OA
HETATM   36  H   UNK N   1      35.795  13.835  14.303  0.00  0.00     0.210 HD
ENDBRANCH  19  35
BRANCH  15  37
HETATM   37  C   UNK N   1      35.116  10.720  20.611  0.00  0.00     0.057 A 
HETATM   38  C   UNK N   1      36.223  10.063  21.173  0.00  0.00     0.031 A 
HETATM   39  C   UNK N   1      36.047   9.113  22.178  0.00  0.00     0.002 A 
HETATM   40  C   UNK N   1      34.761   8.795  22.618  0.00  0.00     0.000 A 
HETATM   41  C   UNK N   1      33.653   9.437  22.060  0.00  0.00     0.002 A 
HETATM   42  C   UNK N   1      33.829  10.405  21.066  0.00  0.00     0.031 A 
ENDBRANCH  15  37
TORSDOF 7
ENDMDL
