REMARK  17 active torsions:
REMARK  status: ('A' for Active; 'I' for Inactive)
REMARK    1  A    between atoms: C_2  and  C_3 
REMARK    2  A    between atoms: C_3  and  C_4 
REMARK    3  A    between atoms: C_3  and  O_25 
REMARK    4  A    between atoms: C_5  and  C_6 
REMARK    5  A    between atoms: C_7  and  C_8 
REMARK    6  A    between atoms: C_8  and  C_9 
REMARK    7  A    between atoms: C_9  and  C_10 
REMARK    8  A    between atoms: C_9  and  O_24 
REMARK    9  A    between atoms: C_11  and  C_12 
REMARK   10  A    between atoms: C_13  and  C_14 
REMARK   11  A    between atoms: C_15  and  C_16 
REMARK   12  A    between atoms: C_16  and  C_17 
REMARK   13  A    between atoms: C_16  and  O_23 
REMARK   14  A    between atoms: C_17  and  C_18 
REMARK   15  A    between atoms: C_18  and  C_19 
REMARK   16  A    between atoms: C_19  and  C_20 
REMARK   17  A    between atoms: C_20  and  O_22 
ROOT
HETATM    1  C   UNK N   1       2.292   6.122  -0.252  0.00  0.00     0.005 C 
HETATM    2  C   UNK N   1       2.100   4.884   0.185  0.00  0.00    -0.002 C 
ENDROOT
BRANCH   2   3
HETATM    3  C   UNK N   1       1.023   4.032  -0.309  0.00  0.00    -0.000 C 
HETATM    4  C   UNK N   1       1.074   2.755   0.039  0.00  0.00    -0.000 C 
BRANCH   4   5
HETATM    5  C   UNK N   1       0.106   1.759  -0.422  0.00  0.00    -0.002 C 
HETATM    6  C   UNK N   1       0.347   0.448  -0.275  0.00  0.00     0.004 C 
BRANCH   6   7
HETATM    7  C   UNK N   1       1.621  -0.111   0.313  0.00  0.00     0.141 C 
BRANCH   7   8
HETATM    8  C   UNK N   1       2.826   0.133  -0.590  0.00  0.00     0.036 C 
BRANCH   8   9
HETATM    9  C   UNK N   1       3.681   1.270  -0.051  0.00  0.00     0.013 C 
BRANCH   9  10
HETATM   10  C   UNK N   1       5.055   1.259  -0.696  0.00  0.00     0.110 C 
BRANCH  10  11
HETATM   11  C   UNK N   1       5.976   0.351   0.054  0.00  0.00     0.139 C 
HETATM   12  O   UNK N   1       6.977   0.802   0.582  0.00  0.00    -0.650 OA
BRANCH  11  13
HETATM   13  O   UNK N   1       5.705  -0.965   0.147  0.00  0.00    -0.776 OA
HETATM   14  H   UNK N   1       4.818  -1.260   0.211  0.00  0.00     0.167 HD
ENDBRANCH  11  13
ENDBRANCH  10  11
ENDBRANCH   9  10
ENDBRANCH   8   9
ENDBRANCH   7   8
BRANCH   7  15
HETATM   15  O   UNK N   1       1.472  -1.485   0.488  0.00  0.00    -0.392 OA
HETATM   16  H   UNK N   1       0.592  -1.874   0.609  0.00  0.00     0.210 HD
ENDBRANCH   7  15
ENDBRANCH   6   7
ENDBRANCH   4   5
ENDBRANCH   2   3
BRANCH   1  17
HETATM   17  C   UNK N   1       3.461   6.876   0.282  0.00  0.00     0.144 C 
BRANCH  17  18
HETATM   18  C   UNK N   1       3.707   8.165  -0.489  0.00  0.00     0.062 C 
BRANCH  18  19
HETATM   19  C   UNK N   1       4.981   8.845  -0.052  0.00  0.00    -0.024 C 
HETATM   20  C   UNK N   1       6.176   8.233   0.003  0.00  0.00    -0.004 C 
BRANCH  20  21
HETATM   21  C   UNK N   1       6.348   6.814  -0.344  0.00  0.00    -0.002 C 
HETATM   22  C   UNK N   1       7.482   6.176  -0.072  0.00  0.00     0.004 C 
BRANCH  22  23
HETATM   23  C   UNK N   1       7.612   4.721  -0.383  0.00  0.00     0.140 C 
BRANCH  23  24
HETATM   24  C   UNK N   1       9.007   4.252  -0.011  0.00  0.00     0.031 C 
HETATM   25  C   UNK N   1       9.223   2.821  -0.466  0.00  0.00     0.008 C 
ENDBRANCH  23  24
BRANCH  23  26
HETATM   26  O   UNK N   1       6.662   3.999   0.344  0.00  0.00    -0.392 OA
HETATM   27  H   UNK N   1       5.898   4.320   0.848  0.00  0.00     0.210 HD
ENDBRANCH  23  26
ENDBRANCH  22  23
ENDBRANCH  20  21
ENDBRANCH  18  19
ENDBRANCH  17  18
BRANCH  17  28
HETATM   28  O   UNK N   1       3.314   7.120   1.649  0.00  0.00    -0.391 OA
HETATM   29  H   UNK N   1       3.410   7.294   2.599  0.00  0.00     0.210 HD
ENDBRANCH  17  28
ENDBRANCH   1  17
TORSDOF 17
