MODEL 1
REMARK VINA RESULT:      -5.7      0.000      0.000
REMARK  4 active torsions:
REMARK  status: ('A' for Active; 'I' for Inactive)
REMARK    1  A    between atoms: C_9  and  N_3 
REMARK    2  A    between atoms: C_11  and  O_16 
REMARK    3  A    between atoms: C_12  and  C_14 
REMARK    4  A    between atoms: C_14  and  O_15 
ROOT
HETATM    1  C   UNK N   1      21.943  14.161   8.922  0.00  0.00     0.269 C 
HETATM    2  C   UNK N   1      21.339  13.016   9.710  0.00  0.00     0.250 C 
HETATM    3  C   UNK N   1      22.557  12.581  10.437  0.00  0.00     0.187 C 
HETATM    4  C   UNK N   1      23.608  12.711   9.351  0.00  0.00     0.179 C 
HETATM    5  O   UNK N   1      23.163  13.673   8.414  0.00  0.00    -0.353 OA
HETATM    6  F   UNK N   1      20.345  13.426  10.579  0.00  0.00    -0.242 F 
ENDROOT
BRANCH   1   7
HETATM    7  N   UNK N   1      21.071  14.690   7.850  0.00  0.00    -0.279 N 
HETATM    8  C   UNK N   1      20.795  13.932   6.748  0.00  0.00     0.104 A 
HETATM    9  C   UNK N   1      19.936  14.394   5.754  0.00  0.00     0.092 A 
HETATM   10  C   UNK N   1      19.362  15.650   5.897  0.00  0.00     0.250 A 
HETATM   11  N   UNK N   1      19.646  16.407   6.998  0.00  0.00    -0.275 N 
HETATM   12  O   UNK N   1      18.606  16.076   5.044  0.00  0.00    -0.268 OA
HETATM   13  C   UNK N   1      20.486  15.940   7.977  0.00  0.00     0.331 A 
HETATM   14  H   UNK N   1      19.243  17.300   7.092  0.00  0.00     0.173 HD
HETATM   15  O   UNK N   1      20.713  16.637   8.950  0.00  0.00    -0.246 OA
ENDBRANCH   1   7
BRANCH   3  16
HETATM   16  O   UNK N   1      22.443  11.260  10.872  0.00  0.00    -0.390 OA
HETATM   17  H   UNK N   1      22.992  10.757  11.493  0.00  0.00     0.210 HD
ENDBRANCH   3  16
BRANCH   4  18
HETATM   18  C   UNK N   1      24.939  13.140   9.953  0.00  0.00     0.198 C 
BRANCH  18  19
HETATM   19  O   UNK N   1      25.071  12.637  11.249  0.00  0.00    -0.398 OA
HETATM   20  H   UNK N   1      25.926  12.319  11.578  0.00  0.00     0.209 HD
ENDBRANCH  18  19
ENDBRANCH   4  18
TORSDOF 4
ENDMDL
MODEL 2
REMARK VINA RESULT:      -5.6     12.334     13.013
REMARK  4 active torsions:
REMARK  status: ('A' for Active; 'I' for Inactive)
REMARK    1  A    between atoms: C_9  and  N_3 
REMARK    2  A    between atoms: C_11  and  O_16 
REMARK    3  A    between atoms: C_12  and  C_14 
REMARK    4  A    between atoms: C_14  and  O_15 
ROOT
HETATM    1  C   UNK N   1      34.645  15.813   7.879  0.00  0.00     0.269 C 
HETATM    2  C   UNK N   1      33.535  15.760   8.909  0.00  0.00     0.250 C 
HETATM    3  C   UNK N   1      34.369  15.579  10.123  0.00  0.00     0.187 C 
HETATM    4  C   UNK N   1      35.420  14.611   9.614  0.00  0.00     0.179 C 
HETATM    5  O   UNK N   1      35.527  14.765   8.212  0.00  0.00    -0.353 OA
HETATM    6  F   UNK N   1      32.798  16.927   8.966  0.00  0.00    -0.242 F 
ENDROOT
BRANCH   1   7
HETATM    7  N   UNK N   1      34.181  15.718   6.477  0.00  0.00    -0.279 N 
HETATM    8  C   UNK N   1      33.939  14.499   5.911  0.00  0.00     0.104 A 
HETATM    9  C   UNK N   1      33.454  14.394   4.610  0.00  0.00     0.092 A 
HETATM   10  C   UNK N   1      33.220  15.556   3.887  0.00  0.00     0.250 A 
HETATM   11  N   UNK N   1      33.469  16.772   4.456  0.00  0.00    -0.275 N 
HETATM   12  O   UNK N   1      32.794  15.491   2.749  0.00  0.00    -0.268 OA
HETATM   13  C   UNK N   1      33.939  16.867   5.741  0.00  0.00     0.331 A 
HETATM   14  H   UNK N   1      33.309  17.594   3.937  0.00  0.00     0.173 HD
HETATM   15  O   UNK N   1      34.144  17.969   6.221  0.00  0.00    -0.246 OA
ENDBRANCH   1   7
BRANCH   3  16
HETATM   16  O   UNK N   1      33.631  15.018  11.166  0.00  0.00    -0.390 OA
HETATM   17  H   UNK N   1      33.753  15.087  12.126  0.00  0.00     0.210 HD
ENDBRANCH   3  16
BRANCH   4  18
HETATM   18  C   UNK N   1      36.762  14.892  10.278  0.00  0.00     0.198 C 
BRANCH  18  19
HETATM   19  O   UNK N   1      36.741  16.137  10.910  0.00  0.00    -0.398 OA
HETATM   20  H   UNK N   1      37.512  16.461  11.400  0.00  0.00     0.209 HD
ENDBRANCH  18  19
ENDBRANCH   4  18
TORSDOF 4
ENDMDL
MODEL 3
REMARK VINA RESULT:      -5.6     13.449     16.043
REMARK  4 active torsions:
REMARK  status: ('A' for Active; 'I' for Inactive)
REMARK    1  A    between atoms: C_9  and  N_3 
REMARK    2  A    between atoms: C_11  and  O_16 
REMARK    3  A    between atoms: C_12  and  C_14 
REMARK    4  A    between atoms: C_14  and  O_15 
ROOT
HETATM    1  C   UNK N   1      35.391  13.590  13.203  0.00  0.00     0.269 C 
HETATM    2  C   UNK N   1      36.445  14.655  12.979  0.00  0.00     0.250 C 
HETATM    3  C   UNK N   1      35.853  15.303  11.783  0.00  0.00     0.187 C 
HETATM    4  C   UNK N   1      35.355  14.095  11.012  0.00  0.00     0.179 C 
HETATM    5  O   UNK N   1      35.121  13.046  11.931  0.00  0.00    -0.353 OA
HETATM    6  F   UNK N   1      36.551  15.538  14.037  0.00  0.00    -0.242 F 
ENDROOT
BRANCH   1   7
HETATM    7  N   UNK N   1      35.777  12.547  14.179  0.00  0.00    -0.279 N 
HETATM    8  C   UNK N   1      36.868  11.757  13.949  0.00  0.00     0.104 A 
HETATM    9  C   UNK N   1      37.275  10.805  14.880  0.00  0.00     0.092 A 
HETATM   10  C   UNK N   1      36.549  10.664  16.055  0.00  0.00     0.250 A 
HETATM   11  N   UNK N   1      35.455  11.452  16.277  0.00  0.00    -0.275 N 
HETATM   12  O   UNK N   1      36.885   9.841  16.885  0.00  0.00    -0.268 OA
HETATM   13  C   UNK N   1      35.066  12.393  15.358  0.00  0.00     0.331 A 
HETATM   14  H   UNK N   1      34.938  11.343  17.107  0.00  0.00     0.173 HD
HETATM   15  O   UNK N   1      34.090  13.085  15.591  0.00  0.00    -0.246 OA
ENDBRANCH   1   7
BRANCH   3  16
HETATM   16  O   UNK N   1      36.817  16.002  11.055  0.00  0.00    -0.390 OA
HETATM   17  H   UNK N   1      37.557  16.548  11.361  0.00  0.00     0.210 HD
ENDBRANCH   3  16
BRANCH   4  18
HETATM   18  C   UNK N   1      34.072  14.437  10.266  0.00  0.00     0.198 C 
BRANCH  18  19
HETATM   19  O   UNK N   1      33.163  15.062  11.122  0.00  0.00    -0.398 OA
HETATM   20  H   UNK N   1      32.886  14.641  11.951  0.00  0.00     0.209 HD
ENDBRANCH  18  19
ENDBRANCH   4  18
TORSDOF 4
ENDMDL
MODEL 4
REMARK VINA RESULT:      -5.5      4.531      7.984
REMARK  4 active torsions:
REMARK  status: ('A' for Active; 'I' for Inactive)
REMARK    1  A    between atoms: C_9  and  N_3 
REMARK    2  A    between atoms: C_11  and  O_16 
REMARK    3  A    between atoms: C_12  and  C_14 
REMARK    4  A    between atoms: C_14  and  O_15 
ROOT
HETATM    1  C   UNK N   1      20.822  17.930   3.444  0.00  0.00     0.269 C 
HETATM    2  C   UNK N   1      20.597  17.037   2.240  0.00  0.00     0.250 C 
HETATM    3  C   UNK N   1      20.781  18.053   1.175  0.00  0.00     0.187 C 
HETATM    4  C   UNK N   1      20.071  19.247   1.783  0.00  0.00     0.179 C 
HETATM    5  O   UNK N   1      20.087  19.106   3.190  0.00  0.00    -0.353 OA
HETATM    6  F   UNK N   1      21.530  16.022   2.143  0.00  0.00    -0.242 F 
ENDROOT
BRANCH   1   7
HETATM    7  N   UNK N   1      20.451  17.315   4.737  0.00  0.00    -0.279 N 
HETATM    8  C   UNK N   1      19.497  16.339   4.788  0.00  0.00     0.104 A 
HETATM    9  C   UNK N   1      19.171  15.714   5.989  0.00  0.00     0.092 A 
HETATM   10  C   UNK N   1      19.831  16.103   7.146  0.00  0.00     0.250 A 
HETATM   11  N   UNK N   1      20.780  17.084   7.091  0.00  0.00    -0.275 N 
HETATM   12  O   UNK N   1      19.566  15.571   8.208  0.00  0.00    -0.268 OA
HETATM   13  C   UNK N   1      21.101  17.688   5.902  0.00  0.00     0.331 A 
HETATM   14  H   UNK N   1      21.241  17.362   7.916  0.00  0.00     0.173 HD
HETATM   15  O   UNK N   1      21.958  18.555   5.887  0.00  0.00    -0.246 OA
ENDBRANCH   1   7
BRANCH   3  16
HETATM   16  O   UNK N   1      20.169  17.655  -0.015  0.00  0.00    -0.390 OA
HETATM   17  H   UNK N   1      20.556  17.461  -0.883  0.00  0.00     0.210 HD
ENDBRANCH   3  16
BRANCH   4  18
HETATM   18  C   UNK N   1      20.767  20.539   1.376  0.00  0.00     0.198 C 
BRANCH  18  19
HETATM   19  O   UNK N   1      20.731  20.695  -0.011  0.00  0.00    -0.398 OA
HETATM   20  H   UNK N   1      21.459  20.379  -0.569  0.00  0.00     0.209 HD
ENDBRANCH  18  19
ENDBRANCH   4  18
TORSDOF 4
ENDMDL
MODEL 5
REMARK VINA RESULT:      -5.5      9.750     11.582
REMARK  4 active torsions:
REMARK  status: ('A' for Active; 'I' for Inactive)
REMARK    1  A    between atoms: C_9  and  N_3 
REMARK    2  A    between atoms: C_11  and  O_16 
REMARK    3  A    between atoms: C_12  and  C_14 
REMARK    4  A    between atoms: C_14  and  O_15 
ROOT
HETATM    1  C   UNK N   1      32.860  16.418   7.379  0.00  0.00     0.269 C 
HETATM    2  C   UNK N   1      33.413  17.780   7.012  0.00  0.00     0.250 C 
HETATM    3  C   UNK N   1      34.529  17.835   7.988  0.00  0.00     0.187 C 
HETATM    4  C   UNK N   1      33.876  17.227   9.215  0.00  0.00     0.179 C 
HETATM    5  O   UNK N   1      32.821  16.388   8.788  0.00  0.00    -0.353 OA
HETATM    6  F   UNK N   1      33.871  17.841   5.710  0.00  0.00    -0.242 F 
ENDROOT
BRANCH   1   7
HETATM    7  N   UNK N   1      31.539  16.116   6.784  0.00  0.00    -0.279 N 
HETATM    8  C   UNK N   1      30.610  17.104   6.631  0.00  0.00     0.104 A 
HETATM    9  C   UNK N   1      29.381  16.848   6.026  0.00  0.00     0.092 A 
HETATM   10  C   UNK N   1      29.109  15.562   5.582  0.00  0.00     0.250 A 
HETATM   11  N   UNK N   1      30.040  14.575   5.743  0.00  0.00    -0.275 N 
HETATM   12  O   UNK N   1      28.044  15.313   5.048  0.00  0.00    -0.268 OA
HETATM   13  C   UNK N   1      31.251  14.838   6.331  0.00  0.00     0.331 A 
HETATM   14  H   UNK N   1      29.840  13.663   5.433  0.00  0.00     0.173 HD
HETATM   15  O   UNK N   1      32.062  13.937   6.454  0.00  0.00    -0.246 OA
ENDBRANCH   1   7
BRANCH   3  16
HETATM   16  O   UNK N   1      34.928  19.150   8.229  0.00  0.00    -0.390 OA
HETATM   17  H   UNK N   1      35.400  19.532   8.985  0.00  0.00     0.210 HD
ENDBRANCH   3  16
BRANCH   4  18
HETATM   18  C   UNK N   1      34.895  16.426  10.013  0.00  0.00     0.198 C 
BRANCH  18  19
HETATM   19  O   UNK N   1      35.888  17.268  10.519  0.00  0.00    -0.398 OA
HETATM   20  H   UNK N   1      35.985  18.177  10.196  0.00  0.00     0.209 HD
ENDBRANCH  18  19
ENDBRANCH   4  18
TORSDOF 4
ENDMDL
MODEL 6
REMARK VINA RESULT:      -5.5     12.239     14.806
REMARK  4 active torsions:
REMARK  status: ('A' for Active; 'I' for Inactive)
REMARK    1  A    between atoms: C_9  and  N_3 
REMARK    2  A    between atoms: C_11  and  O_16 
REMARK    3  A    between atoms: C_12  and  C_14 
REMARK    4  A    between atoms: C_14  and  O_15 
ROOT
HETATM    1  C   UNK N   1      34.965  15.422   9.517  0.00  0.00     0.269 C 
HETATM    2  C   UNK N   1      33.520  15.076   9.215  0.00  0.00     0.250 C 
HETATM    3  C   UNK N   1      33.210  16.203   8.301  0.00  0.00     0.187 C 
HETATM    4  C   UNK N   1      33.928  17.347   8.993  0.00  0.00     0.179 C 
HETATM    5  O   UNK N   1      34.982  16.808   9.766  0.00  0.00    -0.353 OA
HETATM    6  F   UNK N   1      33.379  13.855   8.584  0.00  0.00    -0.242 F 
ENDROOT
BRANCH   1   7
HETATM    7  N   UNK N   1      35.555  14.652  10.634  0.00  0.00    -0.279 N 
HETATM    8  C   UNK N   1      34.759  14.167  11.633  0.00  0.00     0.104 A 
HETATM    9  C   UNK N   1      35.291  13.398  12.665  0.00  0.00     0.092 A 
HETATM   10  C   UNK N   1      36.653  13.132  12.669  0.00  0.00     0.250 A 
HETATM   11  N   UNK N   1      37.445  13.625  11.671  0.00  0.00    -0.275 N 
HETATM   12  O   UNK N   1      37.141  12.460  13.559  0.00  0.00    -0.268 OA
HETATM   13  C   UNK N   1      36.912  14.374  10.653  0.00  0.00     0.331 A 
HETATM   14  H   UNK N   1      38.412  13.440  11.682  0.00  0.00     0.173 HD
HETATM   15  O   UNK N   1      37.645  14.793   9.775  0.00  0.00    -0.246 OA
ENDBRANCH   1   7
BRANCH   3  16
HETATM   16  O   UNK N   1      31.836  16.438   8.234  0.00  0.00    -0.390 OA
HETATM   17  H   UNK N   1      31.096  15.924   8.591  0.00  0.00     0.210 HD
ENDBRANCH   3  16
BRANCH   4  18
HETATM   18  C   UNK N   1      34.477  18.325   7.963  0.00  0.00     0.198 C 
BRANCH  18  19
HETATM   19  O   UNK N   1      35.333  19.244   8.573  0.00  0.00    -0.398 OA
HETATM   20  H   UNK N   1      36.006  18.955   9.210  0.00  0.00     0.209 HD
ENDBRANCH  18  19
ENDBRANCH   4  18
TORSDOF 4
ENDMDL
MODEL 7
REMARK VINA RESULT:      -5.5      7.387      9.644
REMARK  4 active torsions:
REMARK  status: ('A' for Active; 'I' for Inactive)
REMARK    1  A    between atoms: C_9  and  N_3 
REMARK    2  A    between atoms: C_11  and  O_16 
REMARK    3  A    between atoms: C_12  and  C_14 
REMARK    4  A    between atoms: C_14  and  O_15 
ROOT
HETATM    1  C   UNK N   1      22.884  19.732   2.722  0.00  0.00     0.269 C 
HETATM    2  C   UNK N   1      21.792  18.837   3.272  0.00  0.00     0.250 C 
HETATM    3  C   UNK N   1      20.667  19.324   2.438  0.00  0.00     0.187 C 
HETATM    4  C   UNK N   1      20.937  20.816   2.423  0.00  0.00     0.179 C 
HETATM    5  O   UNK N   1      22.319  21.020   2.644  0.00  0.00    -0.353 OA
HETATM    6  F   UNK N   1      22.040  17.494   3.061  0.00  0.00    -0.242 F 
ENDROOT
BRANCH   1   7
HETATM    7  N   UNK N   1      24.135  19.724   3.513  0.00  0.00    -0.279 N 
HETATM    8  C   UNK N   1      24.185  19.083   4.718  0.00  0.00     0.104 A 
HETATM    9  C   UNK N   1      25.367  19.023   5.452  0.00  0.00     0.092 A 
HETATM   10  C   UNK N   1      26.504  19.634   4.941  0.00  0.00     0.250 A 
HETATM   11  N   UNK N   1      26.446  20.280   3.738  0.00  0.00    -0.275 N 
HETATM   12  O   UNK N   1      27.549  19.594   5.561  0.00  0.00    -0.268 OA
HETATM   13  C   UNK N   1      25.280  20.326   3.017  0.00  0.00     0.331 A 
HETATM   14  H   UNK N   1      27.253  20.718   3.383  0.00  0.00     0.173 HD
HETATM   15  O   UNK N   1      25.266  20.904   1.945  0.00  0.00    -0.246 OA
ENDBRANCH   1   7
BRANCH   3  16
HETATM   16  O   UNK N   1      19.436  19.041   3.032  0.00  0.00    -0.390 OA
HETATM   17  H   UNK N   1      19.184  18.330   3.641  0.00  0.00     0.210 HD
ENDBRANCH   3  16
BRANCH   4  18
HETATM   18  C   UNK N   1      20.524  21.414   1.085  0.00  0.00     0.198 C 
BRANCH  18  19
HETATM   19  O   UNK N   1      20.622  20.458   0.073  0.00  0.00    -0.398 OA
HETATM   20  H   UNK N   1      20.215  20.604  -0.795  0.00  0.00     0.209 HD
ENDBRANCH  18  19
ENDBRANCH   4  18
TORSDOF 4
ENDMDL
MODEL 8
REMARK VINA RESULT:      -5.4     10.653     12.469
REMARK  4 active torsions:
REMARK  status: ('A' for Active; 'I' for Inactive)
REMARK    1  A    between atoms: C_9  and  N_3 
REMARK    2  A    between atoms: C_11  and  O_16 
REMARK    3  A    between atoms: C_12  and  C_14 
REMARK    4  A    between atoms: C_14  and  O_15 
ROOT
HETATM    1  C   UNK N   1      34.157  16.294   7.810  0.00  0.00     0.269 C 
HETATM    2  C   UNK N   1      34.049  17.275   8.959  0.00  0.00     0.250 C 
HETATM    3  C   UNK N   1      35.153  16.752   9.800  0.00  0.00     0.187 C 
HETATM    4  C   UNK N   1      34.965  15.256   9.634  0.00  0.00     0.179 C 
HETATM    5  O   UNK N   1      34.307  15.025   8.403  0.00  0.00    -0.353 OA
HETATM    6  F   UNK N   1      34.278  18.582   8.574  0.00  0.00    -0.242 F 
ENDROOT
BRANCH   1   7
HETATM    7  N   UNK N   1      33.017  16.332   6.867  0.00  0.00    -0.279 N 
HETATM    8  C   UNK N   1      31.908  15.567   7.095  0.00  0.00     0.104 A 
HETATM    9  C   UNK N   1      30.806  15.628   6.246  0.00  0.00     0.092 A 
HETATM   10  C   UNK N   1      30.850  16.481   5.152  0.00  0.00     0.250 A 
HETATM   11  N   UNK N   1      31.964  17.239   4.925  0.00  0.00    -0.275 N 
HETATM   12  O   UNK N   1      29.900  16.555   4.396  0.00  0.00    -0.268 OA
HETATM   13  C   UNK N   1      33.042  17.179   5.772  0.00  0.00     0.331 A 
HETATM   14  H   UNK N   1      31.995  17.837   4.144  0.00  0.00     0.173 HD
HETATM   15  O   UNK N   1      34.017  17.874   5.545  0.00  0.00    -0.246 OA
ENDBRANCH   1   7
BRANCH   3  16
HETATM   16  O   UNK N   1      34.999  17.133  11.134  0.00  0.00    -0.390 OA
HETATM   17  H   UNK N   1      34.220  17.094  11.710  0.00  0.00     0.210 HD
ENDBRANCH   3  16
BRANCH   4  18
HETATM   18  C   UNK N   1      36.313  14.549   9.650  0.00  0.00     0.198 C 
BRANCH  18  19
HETATM   19  O   UNK N   1      37.257  15.316  10.335  0.00  0.00    -0.398 OA
HETATM   20  H   UNK N   1      37.000  16.128  10.800  0.00  0.00     0.209 HD
ENDBRANCH  18  19
ENDBRANCH   4  18
TORSDOF 4
ENDMDL
MODEL 9
REMARK VINA RESULT:      -5.4      9.204     11.005
REMARK  4 active torsions:
REMARK  status: ('A' for Active; 'I' for Inactive)
REMARK    1  A    between atoms: C_9  and  N_3 
REMARK    2  A    between atoms: C_11  and  O_16 
REMARK    3  A    between atoms: C_12  and  C_14 
REMARK    4  A    between atoms: C_14  and  O_15 
ROOT
HETATM    1  C   UNK N   1      30.698  16.479   6.845  0.00  0.00     0.269 C 
HETATM    2  C   UNK N   1      31.415  17.323   7.880  0.00  0.00     0.250 C 
HETATM    3  C   UNK N   1      30.270  17.575   8.790  0.00  0.00     0.187 C 
HETATM    4  C   UNK N   1      29.150  17.805   7.794  0.00  0.00     0.179 C 
HETATM    5  O   UNK N   1      29.480  17.139   6.590  0.00  0.00    -0.353 OA
HETATM    6  F   UNK N   1      32.433  16.641   8.519  0.00  0.00    -0.242 F 
ENDROOT
BRANCH   1   7
HETATM    7  N   UNK N   1      31.472  16.249   5.605  0.00  0.00    -0.279 N 
HETATM    8  C   UNK N   1      31.965  17.305   4.894  0.00  0.00     0.104 A 
HETATM    9  C   UNK N   1      32.738  17.105   3.753  0.00  0.00     0.092 A 
HETATM   10  C   UNK N   1      32.999  15.806   3.340  0.00  0.00     0.250 A 
HETATM   11  N   UNK N   1      32.498  14.753   4.052  0.00  0.00    -0.275 N 
HETATM   12  O   UNK N   1      33.674  15.605   2.348  0.00  0.00    -0.268 OA
HETATM   13  C   UNK N   1      31.746  14.959   5.180  0.00  0.00     0.331 A 
HETATM   14  H   UNK N   1      32.680  13.833   3.752  0.00  0.00     0.173 HD
HETATM   15  O   UNK N   1      31.320  13.997   5.796  0.00  0.00    -0.246 OA
ENDBRANCH   1   7
BRANCH   3  16
HETATM   16  O   UNK N   1      30.486  18.708   9.575  0.00  0.00    -0.390 OA
HETATM   17  H   UNK N   1      29.903  19.147  10.214  0.00  0.00     0.210 HD
ENDBRANCH   3  16
BRANCH   4  18
HETATM   18  C   UNK N   1      27.835  17.272   8.346  0.00  0.00     0.198 C 
BRANCH  18  19
HETATM   19  O   UNK N   1      27.427  18.028   9.446  0.00  0.00    -0.398 OA
HETATM   20  H   UNK N   1      26.526  17.953   9.799  0.00  0.00     0.209 HD
ENDBRANCH  18  19
ENDBRANCH   4  18
TORSDOF 4
ENDMDL
