MODEL 1
REMARK VINA RESULT:      -8.1      0.000      0.000
REMARK  11 active torsions:
REMARK  status: ('A' for Active; 'I' for Inactive)
REMARK    1  A    between atoms: C_6  and  C_12 
REMARK    2  A    between atoms: C_8  and  O_9 
REMARK    3  A    between atoms: C_12  and  S_13 
REMARK    4  A    between atoms: S_13  and  C_14 
REMARK    5  A    between atoms: C_19  and  O_38 
REMARK    6  A    between atoms: N_23  and  S_24 
REMARK    7  A    between atoms: S_24  and  C_27 
REMARK    8  A    between atoms: C_30  and  O_33 
REMARK    9  A    between atoms: O_33  and  C_34 
REMARK   10  A    between atoms: C_34  and  C_35 
REMARK   11  A    between atoms: C_35  and  O_37 
ROOT
HETATM    1  C   UNK N   1      24.121  14.005   6.834  0.00  0.00     0.192 A 
HETATM    2  N   UNK N   1      25.026  13.707   7.801  0.00  0.00    -0.332 N 
ATOM      3  HN  UNK N   1      26.042  13.801   7.763  1.00  0.00     0.168 HD
HETATM    4  C   UNK N   1      24.272  13.257   8.821  0.00  0.00     0.065 A 
HETATM    5  C   UNK N   1      24.697  12.816  10.068  0.00  0.00     0.068 A 
HETATM    6  C   UNK N   1      23.715  12.379  10.980  0.00  0.00     0.070 A 
HETATM    7  C   UNK N   1      22.341  12.411  10.609  0.00  0.00     0.039 A 
HETATM    8  C   UNK N   1      21.949  12.870   9.339  0.00  0.00     0.036 A 
HETATM    9  C   UNK N   1      22.956  13.280   8.470  0.00  0.00     0.080 A 
HETATM   10  N   UNK N   1      22.853  13.742   7.220  0.00  0.00    -0.210 N 
ENDROOT
BRANCH  10  11
HETATM   11  S   UNK N   1      21.397  14.052   6.274  0.00  0.00     0.271 S 
HETATM   12  O   UNK N   1      21.353  12.952   5.201  0.00  0.00    -0.200 OA
HETATM   13  O   UNK N   1      20.208  13.737   7.194  0.00  0.00    -0.200 OA
BRANCH  11  14
HETATM   14  C   UNK N   1      21.501  15.716   5.681  0.00  0.00     0.080 A 
HETATM   15  C   UNK N   1      21.184  15.980   4.350  0.00  0.00     0.028 A 
HETATM   16  C   UNK N   1      21.062  17.297   3.915  0.00  0.00     0.038 A 
HETATM   17  C   UNK N   1      21.228  18.361   4.820  0.00  0.00     0.069 A 
HETATM   18  C   UNK N   1      21.533  18.087   6.157  0.00  0.00     0.038 A 
HETATM   19  C   UNK N   1      21.660  16.767   6.589  0.00  0.00     0.028 A 
BRANCH  17  20
HETATM   20  O   UNK N   1      21.108  19.650   4.422  0.00  0.00    -0.341 OA
BRANCH  20  21
HETATM   21  C   UNK N   1      20.406  20.031   3.298  0.00  0.00     0.285 C 
BRANCH  21  22
HETATM   22  C   UNK N   1      21.262  20.917   2.452  0.00  0.00     0.164 C 
HETATM   23  O   UNK N   1      20.845  21.334   1.386  0.00  0.00    -0.648 OA
BRANCH  22  24
HETATM   24  O   UNK N   1      22.512  21.221   2.850  0.00  0.00    -0.775 OA
HETATM   25  H   UNK N   1      23.097  20.580   3.203  0.00  0.00     0.167 HD
ENDBRANCH  22  24
ENDBRANCH  21  22
ENDBRANCH  20  21
ENDBRANCH  17  20
ENDBRANCH  11  14
ENDBRANCH  10  11
BRANCH   1  26
HETATM   26  S   UNK N   1      24.577  14.562   5.184  0.00  0.00     0.091 S 
HETATM   27  O   UNK N   1      24.082  13.673   3.798  0.00  0.00    -0.249 OA
BRANCH  26  28
HETATM   28  C   UNK N   1      24.980  16.338   5.050  0.00  0.00     0.175 C 
BRANCH  28  29
HETATM   29  C   UNK N   1      26.396  16.482   5.499  0.00  0.00     0.029 A 
HETATM   30  N   UNK N   1      26.646  16.687   6.820  0.00  0.00    -0.367 N 
HETATM   31  C   UNK N   1      27.895  16.923   7.286  0.00  0.00     0.097 A 
ATOM     32  HN  UNK N   1      25.868  16.663   7.479  1.00  0.00     0.165 HD
HETATM   33  C   UNK N   1      28.980  16.962   6.415  0.00  0.00    -0.013 A 
HETATM   34  C   UNK N   1      30.316  17.259   7.007  0.00  0.00     0.052 C 
HETATM   35  C   UNK N   1      28.766  16.729   5.026  0.00  0.00     0.083 A 
HETATM   36  C   UNK N   1      27.454  16.483   4.579  0.00  0.00    -0.005 A 
HETATM   37  C   UNK N   1      27.188  16.259   3.124  0.00  0.00     0.053 C 
BRANCH  35  38
HETATM   38  O   UNK N   1      29.760  16.745   4.094  0.00  0.00    -0.355 OA
HETATM   39  C   UNK N   1      30.786  15.838   3.977  0.00  0.00     0.210 C 
ENDBRANCH  35  38
ENDBRANCH  28  29
ENDBRANCH  26  28
ENDBRANCH   1  26
BRANCH   6  40
HETATM   40  O   UNK N   1      24.106  11.931  12.195  0.00  0.00    -0.356 OA
HETATM   41  C   UNK N   1      23.283  11.933  13.298  0.00  0.00     0.210 C 
ENDBRANCH   6  40
TORSDOF 11
ENDMDL
MODEL 2
REMARK VINA RESULT:      -8.1     14.256     16.439
REMARK  11 active torsions:
REMARK  status: ('A' for Active; 'I' for Inactive)
REMARK    1  A    between atoms: C_6  and  C_12 
REMARK    2  A    between atoms: C_8  and  O_9 
REMARK    3  A    between atoms: C_12  and  S_13 
REMARK    4  A    between atoms: S_13  and  C_14 
REMARK    5  A    between atoms: C_19  and  O_38 
REMARK    6  A    between atoms: N_23  and  S_24 
REMARK    7  A    between atoms: S_24  and  C_27 
REMARK    8  A    between atoms: C_30  and  O_33 
REMARK    9  A    between atoms: O_33  and  C_34 
REMARK   10  A    between atoms: C_34  and  C_35 
REMARK   11  A    between atoms: C_35  and  O_37 
ROOT
HETATM    1  C   UNK N   1      32.475  24.318  -5.161  0.00  0.00     0.192 A 
HETATM    2  N   UNK N   1      33.496  23.712  -5.818  0.00  0.00    -0.332 N 
ATOM      3  HN  UNK N   1      34.111  24.110  -6.529  1.00  0.00     0.168 HD
HETATM    4  C   UNK N   1      33.508  22.464  -5.314  0.00  0.00     0.065 A 
HETATM    5  C   UNK N   1      34.363  21.419  -5.641  0.00  0.00     0.068 A 
HETATM    6  C   UNK N   1      34.177  20.187  -4.982  0.00  0.00     0.070 A 
HETATM    7  C   UNK N   1      33.144  20.054  -4.012  0.00  0.00     0.039 A 
HETATM    8  C   UNK N   1      32.302  21.137  -3.703  0.00  0.00     0.036 A 
HETATM    9  C   UNK N   1      32.518  22.328  -4.388  0.00  0.00     0.080 A 
HETATM   10  N   UNK N   1      31.859  23.488  -4.291  0.00  0.00    -0.210 N 
ENDROOT
BRANCH  10  11
HETATM   11  S   UNK N   1      30.534  23.917  -3.209  0.00  0.00     0.271 S 
HETATM   12  O   UNK N   1      30.742  23.076  -1.939  0.00  0.00    -0.200 OA
HETATM   13  O   UNK N   1      30.795  25.362  -2.759  0.00  0.00    -0.200 OA
BRANCH  11  14
HETATM   14  C   UNK N   1      29.026  23.638  -4.092  0.00  0.00     0.080 A 
HETATM   15  C   UNK N   1      27.850  24.219  -3.620  0.00  0.00     0.028 A 
HETATM   16  C   UNK N   1      26.698  24.184  -4.401  0.00  0.00     0.038 A 
HETATM   17  C   UNK N   1      26.724  23.590  -5.676  0.00  0.00     0.069 A 
HETATM   18  C   UNK N   1      27.911  23.021  -6.147  0.00  0.00     0.038 A 
HETATM   19  C   UNK N   1      29.062  23.053  -5.361  0.00  0.00     0.028 A 
BRANCH  17  20
HETATM   20  O   UNK N   1      25.618  23.549  -6.456  0.00  0.00    -0.341 OA
BRANCH  20  21
HETATM   21  C   UNK N   1      25.642  23.168  -7.781  0.00  0.00     0.285 C 
BRANCH  21  22
HETATM   22  C   UNK N   1      24.837  21.920  -7.955  0.00  0.00     0.164 C 
HETATM   23  O   UNK N   1      25.395  20.841  -8.052  0.00  0.00    -0.648 OA
BRANCH  22  24
HETATM   24  O   UNK N   1      23.496  21.995  -8.047  0.00  0.00    -0.775 OA
HETATM   25  H   UNK N   1      23.064  22.416  -8.763  0.00  0.00     0.167 HD
ENDBRANCH  22  24
ENDBRANCH  21  22
ENDBRANCH  20  21
ENDBRANCH  17  20
ENDBRANCH  11  14
ENDBRANCH  10  11
BRANCH   1  26
HETATM   26  S   UNK N   1      31.927  25.998  -5.509  0.00  0.00     0.091 S 
HETATM   27  O   UNK N   1      33.006  27.323  -5.315  0.00  0.00    -0.249 OA
BRANCH  26  28
HETATM   28  C   UNK N   1      30.493  26.128  -6.633  0.00  0.00     0.175 C 
BRANCH  28  29
HETATM   29  C   UNK N   1      29.447  26.892  -5.890  0.00  0.00     0.029 A 
HETATM   30  N   UNK N   1      29.761  27.421  -4.678  0.00  0.00    -0.367 N 
HETATM   31  C   UNK N   1      28.838  28.040  -3.904  0.00  0.00     0.097 A 
ATOM     32  HN  UNK N   1      30.720  27.349  -4.340  1.00  0.00     0.165 HD
HETATM   33  C   UNK N   1      27.518  28.158  -4.333  0.00  0.00    -0.013 A 
HETATM   34  C   UNK N   1      26.560  28.827  -3.408  0.00  0.00     0.052 C 
HETATM   35  C   UNK N   1      27.153  27.638  -5.608  0.00  0.00     0.083 A 
HETATM   36  C   UNK N   1      28.141  27.004  -6.385  0.00  0.00    -0.005 A 
HETATM   37  C   UNK N   1      27.787  26.424  -7.719  0.00  0.00     0.053 C 
BRANCH  35  38
HETATM   38  O   UNK N   1      25.891  27.704  -6.119  0.00  0.00    -0.355 OA
HETATM   39  C   UNK N   1      24.800  26.981  -5.700  0.00  0.00     0.210 C 
ENDBRANCH  35  38
ENDBRANCH  28  29
ENDBRANCH  26  28
ENDBRANCH   1  26
BRANCH   6  40
HETATM   40  O   UNK N   1      34.988  19.150  -5.294  0.00  0.00    -0.356 OA
HETATM   41  C   UNK N   1      34.944  17.939  -4.643  0.00  0.00     0.210 C 
ENDBRANCH   6  40
TORSDOF 11
ENDMDL
MODEL 3
REMARK VINA RESULT:      -7.9      1.468      2.002
REMARK  11 active torsions:
REMARK  status: ('A' for Active; 'I' for Inactive)
REMARK    1  A    between atoms: C_6  and  C_12 
REMARK    2  A    between atoms: C_8  and  O_9 
REMARK    3  A    between atoms: C_12  and  S_13 
REMARK    4  A    between atoms: S_13  and  C_14 
REMARK    5  A    between atoms: C_19  and  O_38 
REMARK    6  A    between atoms: N_23  and  S_24 
REMARK    7  A    between atoms: S_24  and  C_27 
REMARK    8  A    between atoms: C_30  and  O_33 
REMARK    9  A    between atoms: O_33  and  C_34 
REMARK   10  A    between atoms: C_34  and  C_35 
REMARK   11  A    between atoms: C_35  and  O_37 
ROOT
HETATM    1  C   UNK N   1      23.777  13.917   5.900  0.00  0.00     0.192 A 
HETATM    2  N   UNK N   1      24.754  13.684   6.812  0.00  0.00    -0.332 N 
ATOM      3  HN  UNK N   1      25.765  13.753   6.682  1.00  0.00     0.168 HD
HETATM    4  C   UNK N   1      24.082  13.339   7.925  0.00  0.00     0.065 A 
HETATM    5  C   UNK N   1      24.603  12.996   9.166  0.00  0.00     0.068 A 
HETATM    6  C   UNK N   1      23.695  12.659  10.190  0.00  0.00     0.070 A 
HETATM    7  C   UNK N   1      22.296  12.688   9.931  0.00  0.00     0.039 A 
HETATM    8  C   UNK N   1      21.805  13.046   8.663  0.00  0.00     0.036 A 
HETATM    9  C   UNK N   1      22.742  13.360   7.682  0.00  0.00     0.080 A 
HETATM   10  N   UNK N   1      22.541  13.716   6.410  0.00  0.00    -0.210 N 
ENDROOT
BRANCH  10  11
HETATM   11  S   UNK N   1      21.016  13.974   5.563  0.00  0.00     0.271 S 
HETATM   12  O   UNK N   1      21.089  13.108   4.295  0.00  0.00    -0.200 OA
HETATM   13  O   UNK N   1      19.928  13.309   6.419  0.00  0.00    -0.200 OA
BRANCH  11  14
HETATM   14  C   UNK N   1      20.846  15.718   5.308  0.00  0.00     0.080 A 
HETATM   15  C   UNK N   1      21.433  16.593   6.220  0.00  0.00     0.028 A 
HETATM   16  C   UNK N   1      21.488  17.955   5.935  0.00  0.00     0.038 A 
HETATM   17  C   UNK N   1      20.980  18.446   4.719  0.00  0.00     0.069 A 
HETATM   18  C   UNK N   1      20.405  17.559   3.804  0.00  0.00     0.038 A 
HETATM   19  C   UNK N   1      20.346  16.196   4.093  0.00  0.00     0.028 A 
BRANCH  17  20
HETATM   20  O   UNK N   1      21.028  19.765   4.417  0.00  0.00    -0.341 OA
BRANCH  20  21
HETATM   21  C   UNK N   1      20.409  20.310   3.312  0.00  0.00     0.285 C 
BRANCH  21  22
HETATM   22  C   UNK N   1      21.440  20.896   2.402  0.00  0.00     0.164 C 
HETATM   23  O   UNK N   1      21.463  20.585   1.223  0.00  0.00    -0.648 OA
BRANCH  22  24
HETATM   24  O   UNK N   1      22.371  21.736   2.894  0.00  0.00    -0.775 OA
HETATM   25  H   UNK N   1      22.205  22.649   3.023  0.00  0.00     0.167 HD
ENDBRANCH  22  24
ENDBRANCH  21  22
ENDBRANCH  20  21
ENDBRANCH  17  20
ENDBRANCH  11  14
ENDBRANCH  10  11
BRANCH   1  26
HETATM   26  S   UNK N   1      24.101  14.323   4.176  0.00  0.00     0.091 S 
HETATM   27  O   UNK N   1      23.866  13.144   2.946  0.00  0.00    -0.249 OA
BRANCH  26  28
HETATM   28  C   UNK N   1      24.044  16.104   3.775  0.00  0.00     0.175 C 
BRANCH  28  29
HETATM   29  C   UNK N   1      25.441  16.611   3.924  0.00  0.00     0.029 A 
HETATM   30  N   UNK N   1      26.443  15.716   4.132  0.00  0.00    -0.367 N 
HETATM   31  C   UNK N   1      27.716  16.108   4.374  0.00  0.00     0.097 A 
ATOM     32  HN  UNK N   1      26.229  14.720   4.106  1.00  0.00     0.165 HD
HETATM   33  C   UNK N   1      28.045  17.460   4.416  0.00  0.00    -0.013 A 
HETATM   34  C   UNK N   1      29.464  17.805   4.718  0.00  0.00     0.052 C 
HETATM   35  C   UNK N   1      27.029  18.430   4.180  0.00  0.00     0.083 A 
HETATM   36  C   UNK N   1      25.718  17.985   3.929  0.00  0.00    -0.005 A 
HETATM   37  C   UNK N   1      24.620  18.977   3.701  0.00  0.00     0.053 C 
BRANCH  35  38
HETATM   38  O   UNK N   1      27.248  19.775   4.198  0.00  0.00    -0.355 OA
HETATM   39  C   UNK N   1      27.337  20.575   5.312  0.00  0.00     0.210 C 
ENDBRANCH  35  38
ENDBRANCH  28  29
ENDBRANCH  26  28
ENDBRANCH   1  26
BRANCH   6  40
HETATM   40  O   UNK N   1      24.180  12.308  11.404  0.00  0.00    -0.356 OA
HETATM   41  C   UNK N   1      23.376  11.910  12.447  0.00  0.00     0.210 C 
ENDBRANCH   6  40
TORSDOF 11
ENDMDL
MODEL 4
REMARK VINA RESULT:      -7.8      1.501      2.230
REMARK  11 active torsions:
REMARK  status: ('A' for Active; 'I' for Inactive)
REMARK    1  A    between atoms: C_6  and  C_12 
REMARK    2  A    between atoms: C_8  and  O_9 
REMARK    3  A    between atoms: C_12  and  S_13 
REMARK    4  A    between atoms: S_13  and  C_14 
REMARK    5  A    between atoms: C_19  and  O_38 
REMARK    6  A    between atoms: N_23  and  S_24 
REMARK    7  A    between atoms: S_24  and  C_27 
REMARK    8  A    between atoms: C_30  and  O_33 
REMARK    9  A    between atoms: O_33  and  C_34 
REMARK   10  A    between atoms: C_34  and  C_35 
REMARK   11  A    between atoms: C_35  and  O_37 
ROOT
HETATM    1  C   UNK N   1      25.089  14.920   6.526  0.00  0.00     0.192 A 
HETATM    2  N   UNK N   1      25.621  14.739   7.761  0.00  0.00    -0.332 N 
ATOM      3  HN  UNK N   1      26.443  15.190   8.165  1.00  0.00     0.168 HD
HETATM    4  C   UNK N   1      24.814  13.824   8.329  0.00  0.00     0.065 A 
HETATM    5  C   UNK N   1      24.906  13.276   9.602  0.00  0.00     0.068 A 
HETATM    6  C   UNK N   1      23.942  12.318   9.976  0.00  0.00     0.070 A 
HETATM    7  C   UNK N   1      22.916  11.952   9.060  0.00  0.00     0.039 A 
HETATM    8  C   UNK N   1      22.853  12.532   7.780  0.00  0.00     0.036 A 
HETATM    9  C   UNK N   1      23.833  13.465   7.454  0.00  0.00     0.080 A 
HETATM   10  N   UNK N   1      24.002  14.145   6.316  0.00  0.00    -0.210 N 
ENDROOT
BRANCH  10  11
HETATM   11  S   UNK N   1      22.999  14.138   4.866  0.00  0.00     0.271 S 
HETATM   12  O   UNK N   1      23.935  13.751   3.709  0.00  0.00    -0.200 OA
HETATM   13  O   UNK N   1      22.047  12.941   5.004  0.00  0.00    -0.200 OA
BRANCH  11  14
HETATM   14  C   UNK N   1      22.233  15.730   4.751  0.00  0.00     0.080 A 
HETATM   15  C   UNK N   1      22.047  16.475   5.913  0.00  0.00     0.028 A 
HETATM   16  C   UNK N   1      21.636  17.802   5.827  0.00  0.00     0.038 A 
HETATM   17  C   UNK N   1      21.437  18.402   4.570  0.00  0.00     0.069 A 
HETATM   18  C   UNK N   1      21.640  17.652   3.408  0.00  0.00     0.038 A 
HETATM   19  C   UNK N   1      22.045  16.321   3.498  0.00  0.00     0.028 A 
BRANCH  17  20
HETATM   20  O   UNK N   1      21.045  19.694   4.461  0.00  0.00    -0.341 OA
BRANCH  20  21
HETATM   21  C   UNK N   1      20.333  20.179   3.384  0.00  0.00     0.285 C 
BRANCH  21  22
HETATM   22  C   UNK N   1      21.265  20.865   2.439  0.00  0.00     0.164 C 
HETATM   23  O   UNK N   1      21.184  20.657   1.240  0.00  0.00    -0.648 OA
BRANCH  22  24
HETATM   24  O   UNK N   1      22.222  21.684   2.916  0.00  0.00    -0.775 OA
HETATM   25  H   UNK N   1      22.056  22.309   3.593  0.00  0.00     0.167 HD
ENDBRANCH  22  24
ENDBRANCH  21  22
ENDBRANCH  20  21
ENDBRANCH  17  20
ENDBRANCH  11  14
ENDBRANCH  10  11
BRANCH   1  26
HETATM   26  S   UNK N   1      25.829  15.979   5.271  0.00  0.00     0.091 S 
HETATM   27  O   UNK N   1      25.084  17.467   4.839  0.00  0.00    -0.249 OA
BRANCH  26  28
HETATM   28  C   UNK N   1      27.617  15.725   4.998  0.00  0.00     0.175 C 
BRANCH  28  29
HETATM   29  C   UNK N   1      28.314  16.424   6.118  0.00  0.00     0.029 A 
HETATM   30  N   UNK N   1      27.643  17.383   6.809  0.00  0.00    -0.367 N 
HETATM   31  C   UNK N   1      28.241  18.125   7.771  0.00  0.00     0.097 A 
ATOM     32  HN  UNK N   1      26.660  17.549   6.597  1.00  0.00     0.165 HD
HETATM   33  C   UNK N   1      29.582  17.926   8.088  0.00  0.00    -0.013 A 
HETATM   34  C   UNK N   1      30.170  18.807   9.137  0.00  0.00     0.052 C 
HETATM   35  C   UNK N   1      30.315  16.915   7.404  0.00  0.00     0.083 A 
HETATM   36  C   UNK N   1      29.659  16.160   6.413  0.00  0.00    -0.005 A 
HETATM   37  C   UNK N   1      30.405  15.107   5.656  0.00  0.00     0.053 C 
BRANCH  35  38
HETATM   38  O   UNK N   1      31.629  16.641   7.641  0.00  0.00    -0.355 OA
HETATM   39  C   UNK N   1      32.130  15.834   8.635  0.00  0.00     0.210 C 
ENDBRANCH  35  38
ENDBRANCH  28  29
ENDBRANCH  26  28
ENDBRANCH   1  26
BRANCH   6  40
HETATM   40  O   UNK N   1      24.019  11.760  11.206  0.00  0.00    -0.356 OA
HETATM   41  C   UNK N   1      23.057  11.936  12.174  0.00  0.00     0.210 C 
ENDBRANCH   6  40
TORSDOF 11
ENDMDL
MODEL 5
REMARK VINA RESULT:      -7.6      2.955      4.951
REMARK  11 active torsions:
REMARK  status: ('A' for Active; 'I' for Inactive)
REMARK    1  A    between atoms: C_6  and  C_12 
REMARK    2  A    between atoms: C_8  and  O_9 
REMARK    3  A    between atoms: C_12  and  S_13 
REMARK    4  A    between atoms: S_13  and  C_14 
REMARK    5  A    between atoms: C_19  and  O_38 
REMARK    6  A    between atoms: N_23  and  S_24 
REMARK    7  A    between atoms: S_24  and  C_27 
REMARK    8  A    between atoms: C_30  and  O_33 
REMARK    9  A    between atoms: O_33  and  C_34 
REMARK   10  A    between atoms: C_34  and  C_35 
REMARK   11  A    between atoms: C_35  and  O_37 
ROOT
HETATM    1  C   UNK N   1      23.745  13.797   6.869  0.00  0.00     0.192 A 
HETATM    2  N   UNK N   1      24.721  13.418   7.733  0.00  0.00    -0.332 N 
ATOM      3  HN  UNK N   1      25.728  13.385   7.569  1.00  0.00     0.168 HD
HETATM    4  C   UNK N   1      24.052  13.095   8.855  0.00  0.00     0.065 A 
HETATM    5  C   UNK N   1      24.574  12.641  10.060  0.00  0.00     0.068 A 
HETATM    6  C   UNK N   1      23.669  12.355  11.102  0.00  0.00     0.070 A 
HETATM    7  C   UNK N   1      22.272  12.545  10.897  0.00  0.00     0.039 A 
HETATM    8  C   UNK N   1      21.782  13.012   9.664  0.00  0.00     0.036 A 
HETATM    9  C   UNK N   1      22.715  13.269   8.664  0.00  0.00     0.080 A 
HETATM   10  N   UNK N   1      22.512  13.704   7.416  0.00  0.00    -0.210 N 
ENDROOT
BRANCH  10  11
HETATM   11  S   UNK N   1      20.997  14.163   6.639  0.00  0.00     0.271 S 
HETATM   12  O   UNK N   1      20.650  13.009   5.683  0.00  0.00    -0.200 OA
HETATM   13  O   UNK N   1      19.916  14.097   7.727  0.00  0.00    -0.200 OA
BRANCH  11  14
HETATM   14  C   UNK N   1      21.250  15.747   5.890  0.00  0.00     0.080 A 
HETATM   15  C   UNK N   1      20.826  15.949   4.578  0.00  0.00     0.028 A 
HETATM   16  C   UNK N   1      20.828  17.233   4.039  0.00  0.00     0.038 A 
HETATM   17  C   UNK N   1      21.230  18.330   4.824  0.00  0.00     0.069 A 
HETATM   18  C   UNK N   1      21.641  18.119   6.144  0.00  0.00     0.038 A 
HETATM   19  C   UNK N   1      21.642  16.832   6.679  0.00  0.00     0.028 A 
BRANCH  17  20
HETATM   20  O   UNK N   1      21.234  19.588   4.324  0.00  0.00    -0.341 OA
BRANCH  20  21
HETATM   21  C   UNK N   1      20.450  19.981   3.260  0.00  0.00     0.285 C 
BRANCH  21  22
HETATM   22  C   UNK N   1      21.251  20.853   2.347  0.00  0.00     0.164 C 
HETATM   23  O   UNK N   1      21.199  20.687   1.141  0.00  0.00    -0.648 OA
BRANCH  22  24
HETATM   24  O   UNK N   1      22.063  21.797   2.861  0.00  0.00    -0.775 OA
HETATM   25  H   UNK N   1      21.887  22.712   2.774  0.00  0.00     0.167 HD
ENDBRANCH  22  24
ENDBRANCH  21  22
ENDBRANCH  20  21
ENDBRANCH  17  20
ENDBRANCH  11  14
ENDBRANCH  10  11
BRANCH   1  26
HETATM   26  S   UNK N   1      24.054  14.246   5.153  0.00  0.00     0.091 S 
HETATM   27  O   UNK N   1      24.667  15.803   4.758  0.00  0.00    -0.249 OA
BRANCH  26  28
HETATM   28  C   UNK N   1      24.302  12.838   4.016  0.00  0.00     0.175 C 
BRANCH  28  29
HETATM   29  C   UNK N   1      23.170  12.881   3.044  0.00  0.00     0.029 A 
HETATM   30  N   UNK N   1      22.945  14.030   2.354  0.00  0.00    -0.367 N 
HETATM   31  C   UNK N   1      21.881  14.176   1.529  0.00  0.00     0.097 A 
ATOM     32  HN  UNK N   1      23.597  14.807   2.461  1.00  0.00     0.165 HD
HETATM   33  C   UNK N   1      20.970  13.136   1.358  0.00  0.00    -0.013 A 
HETATM   34  C   UNK N   1      19.811  13.390   0.456  0.00  0.00     0.052 C 
HETATM   35  C   UNK N   1      21.183  11.906   2.045  0.00  0.00     0.083 A 
HETATM   36  C   UNK N   1      22.302  11.791   2.890  0.00  0.00    -0.005 A 
HETATM   37  C   UNK N   1      22.543  10.523   3.647  0.00  0.00     0.053 C 
BRANCH  35  38
HETATM   38  O   UNK N   1      20.353  10.830   1.944  0.00  0.00    -0.355 OA
HETATM   39  C   UNK N   1      19.168  10.644   2.615  0.00  0.00     0.210 C 
ENDBRANCH  35  38
ENDBRANCH  28  29
ENDBRANCH  26  28
ENDBRANCH   1  26
BRANCH   6  40
HETATM   40  O   UNK N   1      24.152  11.898  12.280  0.00  0.00    -0.356 OA
HETATM   41  C   UNK N   1      23.468  12.012  13.468  0.00  0.00     0.210 C 
ENDBRANCH   6  40
TORSDOF 11
ENDMDL
MODEL 6
REMARK VINA RESULT:      -7.6      2.670      5.469
REMARK  11 active torsions:
REMARK  status: ('A' for Active; 'I' for Inactive)
REMARK    1  A    between atoms: C_6  and  C_12 
REMARK    2  A    between atoms: C_8  and  O_9 
REMARK    3  A    between atoms: C_12  and  S_13 
REMARK    4  A    between atoms: S_13  and  C_14 
REMARK    5  A    between atoms: C_19  and  O_38 
REMARK    6  A    between atoms: N_23  and  S_24 
REMARK    7  A    between atoms: S_24  and  C_27 
REMARK    8  A    between atoms: C_30  and  O_33 
REMARK    9  A    between atoms: O_33  and  C_34 
REMARK   10  A    between atoms: C_34  and  C_35 
REMARK   11  A    between atoms: C_35  and  O_37 
ROOT
HETATM    1  C   UNK N   1      21.068  13.605   7.410  0.00  0.00     0.192 A 
HETATM    2  N   UNK N   1      20.531  13.599   8.656  0.00  0.00    -0.332 N 
ATOM      3  HN  UNK N   1      19.627  13.969   8.953  1.00  0.00     0.168 HD
HETATM    4  C   UNK N   1      21.467  12.993   9.408  0.00  0.00     0.065 A 
HETATM    5  C   UNK N   1      21.426  12.723  10.770  0.00  0.00     0.068 A 
HETATM    6  C   UNK N   1      22.541  12.080  11.347  0.00  0.00     0.070 A 
HETATM    7  C   UNK N   1      23.651  11.724  10.530  0.00  0.00     0.039 A 
HETATM    8  C   UNK N   1      23.653  12.008   9.153  0.00  0.00     0.036 A 
HETATM    9  C   UNK N   1      22.535  12.653   8.634  0.00  0.00     0.080 A 
HETATM   10  N   UNK N   1      22.295  13.041   7.377  0.00  0.00    -0.210 N 
ENDROOT
BRANCH  10  11
HETATM   11  S   UNK N   1      23.289  12.804   5.939  0.00  0.00     0.271 S 
HETATM   12  O   UNK N   1      24.517  12.005   6.405  0.00  0.00    -0.200 OA
HETATM   13  O   UNK N   1      22.518  11.829   5.037  0.00  0.00    -0.200 OA
BRANCH  11  14
HETATM   14  C   UNK N   1      23.612  14.404   5.255  0.00  0.00     0.080 A 
HETATM   15  C   UNK N   1      24.221  15.370   6.054  0.00  0.00     0.028 A 
HETATM   16  C   UNK N   1      24.667  16.559   5.485  0.00  0.00     0.038 A 
HETATM   17  C   UNK N   1      24.531  16.778   4.102  0.00  0.00     0.069 A 
HETATM   18  C   UNK N   1      23.931  15.798   3.305  0.00  0.00     0.038 A 
HETATM   19  C   UNK N   1      23.480  14.610   3.879  0.00  0.00     0.028 A 
BRANCH  17  20
HETATM   20  O   UNK N   1      24.964  17.924   3.525  0.00  0.00    -0.341 OA
BRANCH  20  21
HETATM   21  C   UNK N   1      24.406  19.158   3.784  0.00  0.00     0.285 C 
BRANCH  21  22
HETATM   22  C   UNK N   1      25.126  20.205   2.997  0.00  0.00     0.164 C 
HETATM   23  O   UNK N   1      24.514  20.907   2.210  0.00  0.00    -0.648 OA
BRANCH  22  24
HETATM   24  O   UNK N   1      26.459  20.346   3.129  0.00  0.00    -0.775 OA
HETATM   25  H   UNK N   1      27.023  20.487   2.395  0.00  0.00     0.167 HD
ENDBRANCH  22  24
ENDBRANCH  21  22
ENDBRANCH  20  21
ENDBRANCH  17  20
ENDBRANCH  11  14
ENDBRANCH  10  11
BRANCH   1  26
HETATM   26  S   UNK N   1      20.283  14.394   5.993  0.00  0.00     0.091 S 
HETATM   27  O   UNK N   1      18.976  13.625   5.184  0.00  0.00    -0.249 OA
BRANCH  26  28
HETATM   28  C   UNK N   1      20.494  16.205   5.899  0.00  0.00     0.175 C 
BRANCH  28  29
HETATM   29  C   UNK N   1      20.371  16.567   4.456  0.00  0.00     0.029 A 
HETATM   30  N   UNK N   1      19.916  15.629   3.583  0.00  0.00    -0.367 N 
HETATM   31  C   UNK N   1      19.871  15.853   2.249  0.00  0.00     0.097 A 
ATOM     32  HN  UNK N   1      19.600  14.730   3.945  1.00  0.00     0.165 HD
HETATM   33  C   UNK N   1      20.293  17.070   1.720  0.00  0.00    -0.013 A 
HETATM   34  C   UNK N   1      20.238  17.221   0.238  0.00  0.00     0.052 C 
HETATM   35  C   UNK N   1      20.755  18.088   2.602  0.00  0.00     0.083 A 
HETATM   36  C   UNK N   1      20.784  17.820   3.984  0.00  0.00    -0.005 A 
HETATM   37  C   UNK N   1      21.287  18.858   4.937  0.00  0.00     0.053 C 
BRANCH  35  38
HETATM   38  O   UNK N   1      21.187  19.311   2.185  0.00  0.00    -0.355 OA
HETATM   39  C   UNK N   1      20.412  20.428   1.981  0.00  0.00     0.210 C 
ENDBRANCH  35  38
ENDBRANCH  28  29
ENDBRANCH  26  28
ENDBRANCH   1  26
BRANCH   6  40
HETATM   40  O   UNK N   1      22.531  11.821  12.674  0.00  0.00    -0.356 OA
HETATM   41  C   UNK N   1      23.591  12.104  13.504  0.00  0.00     0.210 C 
ENDBRANCH   6  40
TORSDOF 11
ENDMDL
MODEL 7
REMARK VINA RESULT:      -7.5      7.496     12.533
REMARK  11 active torsions:
REMARK  status: ('A' for Active; 'I' for Inactive)
REMARK    1  A    between atoms: C_6  and  C_12 
REMARK    2  A    between atoms: C_8  and  O_9 
REMARK    3  A    between atoms: C_12  and  S_13 
REMARK    4  A    between atoms: S_13  and  C_14 
REMARK    5  A    between atoms: C_19  and  O_38 
REMARK    6  A    between atoms: N_23  and  S_24 
REMARK    7  A    between atoms: S_24  and  C_27 
REMARK    8  A    between atoms: C_30  and  O_33 
REMARK    9  A    between atoms: O_33  and  C_34 
REMARK   10  A    between atoms: C_34  and  C_35 
REMARK   11  A    between atoms: C_35  and  O_37 
ROOT
HETATM    1  C   UNK N   1      33.227  16.649   8.719  0.00  0.00     0.192 A 
HETATM    2  N   UNK N   1      32.138  17.404   9.012  0.00  0.00    -0.332 N 
ATOM      3  HN  UNK N   1      32.014  18.054   9.789  1.00  0.00     0.168 HD
HETATM    4  C   UNK N   1      31.260  17.097   8.039  0.00  0.00     0.065 A 
HETATM    5  C   UNK N   1      29.975  17.592   7.861  0.00  0.00     0.068 A 
HETATM    6  C   UNK N   1      29.231  17.111   6.764  0.00  0.00     0.070 A 
HETATM    7  C   UNK N   1      29.811  16.156   5.882  0.00  0.00     0.039 A 
HETATM    8  C   UNK N   1      31.119  15.682   6.092  0.00  0.00     0.036 A 
HETATM    9  C   UNK N   1      31.807  16.179   7.194  0.00  0.00     0.080 A 
HETATM   10  N   UNK N   1      33.041  15.887   7.618  0.00  0.00    -0.210 N 
ENDROOT
BRANCH  10  11
HETATM   11  S   UNK N   1      34.238  14.822   6.882  0.00  0.00     0.271 S 
HETATM   12  O   UNK N   1      33.835  14.696   5.404  0.00  0.00    -0.200 OA
HETATM   13  O   UNK N   1      35.557  15.608   6.853  0.00  0.00    -0.200 OA
BRANCH  11  14
HETATM   14  C   UNK N   1      34.249  13.319   7.818  0.00  0.00     0.080 A 
HETATM   15  C   UNK N   1      33.173  13.039   8.658  0.00  0.00     0.028 A 
HETATM   16  C   UNK N   1      33.061  11.782   9.244  0.00  0.00     0.038 A 
HETATM   17  C   UNK N   1      34.014  10.784   8.969  0.00  0.00     0.069 A 
HETATM   18  C   UNK N   1      35.083  11.069   8.115  0.00  0.00     0.038 A 
HETATM   19  C   UNK N   1      35.196  12.331   7.532  0.00  0.00     0.028 A 
BRANCH  17  20
HETATM   20  O   UNK N   1      33.922   9.552   9.523  0.00  0.00    -0.341 OA
BRANCH  20  21
HETATM   21  C   UNK N   1      32.732   9.000   9.947  0.00  0.00     0.285 C 
BRANCH  21  22
HETATM   22  C   UNK N   1      31.955   8.521   8.763  0.00  0.00     0.164 C 
HETATM   23  O   UNK N   1      32.420   7.666   8.030  0.00  0.00    -0.648 OA
BRANCH  22  24
HETATM   24  O   UNK N   1      30.755   9.066   8.483  0.00  0.00    -0.775 OA
HETATM   25  H   UNK N   1      30.580   9.979   8.597  0.00  0.00     0.167 HD
ENDBRANCH  22  24
ENDBRANCH  21  22
ENDBRANCH  20  21
ENDBRANCH  17  20
ENDBRANCH  11  14
ENDBRANCH  10  11
BRANCH   1  26
HETATM   26  S   UNK N   1      34.697  16.579   9.756  0.00  0.00     0.091 S 
HETATM   27  O   UNK N   1      35.682  17.973   9.963  0.00  0.00    -0.249 OA
BRANCH  26  28
HETATM   28  C   UNK N   1      34.700  15.248  11.007  0.00  0.00     0.175 C 
BRANCH  28  29
HETATM   29  C   UNK N   1      35.911  14.419  10.733  0.00  0.00     0.029 A 
HETATM   30  N   UNK N   1      36.797  14.846   9.794  0.00  0.00    -0.367 N 
HETATM   31  C   UNK N   1      37.865  14.101   9.422  0.00  0.00     0.097 A 
ATOM     32  HN  UNK N   1      36.653  15.755   9.355  1.00  0.00     0.165 HD
HETATM   33  C   UNK N   1      38.093  12.854  10.001  0.00  0.00    -0.013 A 
HETATM   34  C   UNK N   1      39.274  12.086   9.513  0.00  0.00     0.052 C 
HETATM   35  C   UNK N   1      37.202  12.381  11.006  0.00  0.00     0.083 A 
HETATM   36  C   UNK N   1      36.106  13.186  11.368  0.00  0.00    -0.005 A 
HETATM   37  C   UNK N   1      35.135  12.708  12.402  0.00  0.00     0.053 C 
BRANCH  35  38
HETATM   38  O   UNK N   1      37.340  11.178  11.633  0.00  0.00    -0.355 OA
HETATM   39  C   UNK N   1      37.015   9.946  11.119  0.00  0.00     0.210 C 
ENDBRANCH  35  38
ENDBRANCH  28  29
ENDBRANCH  26  28
ENDBRANCH   1  26
BRANCH   6  40
HETATM   40  O   UNK N   1      27.971  17.568   6.578  0.00  0.00    -0.356 OA
HETATM   41  C   UNK N   1      27.679  18.891   6.341  0.00  0.00     0.210 C 
ENDBRANCH   6  40
TORSDOF 11
ENDMDL
MODEL 8
REMARK VINA RESULT:      -7.3      2.098      5.371
REMARK  11 active torsions:
REMARK  status: ('A' for Active; 'I' for Inactive)
REMARK    1  A    between atoms: C_6  and  C_12 
REMARK    2  A    between atoms: C_8  and  O_9 
REMARK    3  A    between atoms: C_12  and  S_13 
REMARK    4  A    between atoms: S_13  and  C_14 
REMARK    5  A    between atoms: C_19  and  O_38 
REMARK    6  A    between atoms: N_23  and  S_24 
REMARK    7  A    between atoms: S_24  and  C_27 
REMARK    8  A    between atoms: C_30  and  O_33 
REMARK    9  A    between atoms: O_33  and  C_34 
REMARK   10  A    between atoms: C_34  and  C_35 
REMARK   11  A    between atoms: C_35  and  O_37 
ROOT
HETATM    1  C   UNK N   1      21.385  14.025   7.149  0.00  0.00     0.192 A 
HETATM    2  N   UNK N   1      20.760  14.002   8.353  0.00  0.00    -0.332 N 
ATOM      3  HN  UNK N   1      19.873  14.437   8.610  1.00  0.00     0.168 HD
HETATM    4  C   UNK N   1      21.582  13.273   9.131  0.00  0.00     0.065 A 
HETATM    5  C   UNK N   1      21.418  12.938  10.469  0.00  0.00     0.068 A 
HETATM    6  C   UNK N   1      22.427  12.166  11.080  0.00  0.00     0.070 A 
HETATM    7  C   UNK N   1      23.558  11.752  10.322  0.00  0.00     0.039 A 
HETATM    8  C   UNK N   1      23.686  12.107   8.967  0.00  0.00     0.036 A 
HETATM    9  C   UNK N   1      22.670  12.879   8.412  0.00  0.00     0.080 A 
HETATM   10  N   UNK N   1      22.557  13.352   7.166  0.00  0.00    -0.210 N 
ENDROOT
BRANCH  10  11
HETATM   11  S   UNK N   1      23.628  13.101   5.788  0.00  0.00     0.271 S 
HETATM   12  O   UNK N   1      24.324  11.753   6.039  0.00  0.00    -0.200 OA
HETATM   13  O   UNK N   1      22.720  12.843   4.577  0.00  0.00    -0.200 OA
BRANCH  11  14
HETATM   14  C   UNK N   1      24.684  14.517   5.680  0.00  0.00     0.080 A 
HETATM   15  C   UNK N   1      25.379  14.929   6.815  0.00  0.00     0.028 A 
HETATM   16  C   UNK N   1      26.364  15.907   6.707  0.00  0.00     0.038 A 
HETATM   17  C   UNK N   1      26.680  16.459   5.452  0.00  0.00     0.069 A 
HETATM   18  C   UNK N   1      25.987  16.030   4.316  0.00  0.00     0.038 A 
HETATM   19  C   UNK N   1      24.998  15.054   4.428  0.00  0.00     0.028 A 
BRANCH  17  20
HETATM   20  O   UNK N   1      27.638  17.407   5.321  0.00  0.00    -0.341 OA
BRANCH  20  21
HETATM   21  C   UNK N   1      27.363  18.724   5.022  0.00  0.00     0.285 C 
BRANCH  21  22
HETATM   22  C   UNK N   1      27.223  19.504   6.289  0.00  0.00     0.164 C 
HETATM   23  O   UNK N   1      28.046  19.378   7.180  0.00  0.00    -0.648 OA
BRANCH  22  24
HETATM   24  O   UNK N   1      26.164  20.318   6.463  0.00  0.00    -0.775 OA
HETATM   25  H   UNK N   1      26.157  21.204   6.161  0.00  0.00     0.167 HD
ENDBRANCH  22  24
ENDBRANCH  21  22
ENDBRANCH  20  21
ENDBRANCH  17  20
ENDBRANCH  11  14
ENDBRANCH  10  11
BRANCH   1  26
HETATM   26  S   UNK N   1      20.778  14.955   5.732  0.00  0.00     0.091 S 
HETATM   27  O   UNK N   1      20.041  14.142   4.408  0.00  0.00    -0.249 OA
BRANCH  26  28
HETATM   28  C   UNK N   1      20.410  16.714   6.059  0.00  0.00     0.175 C 
BRANCH  28  29
HETATM   29  C   UNK N   1      21.393  17.503   5.258  0.00  0.00     0.029 A 
HETATM   30  N   UNK N   1      22.645  17.685   5.755  0.00  0.00    -0.367 N 
HETATM   31  C   UNK N   1      23.557  18.469   5.133  0.00  0.00     0.097 A 
ATOM     32  HN  UNK N   1      22.905  17.217   6.623  1.00  0.00     0.165 HD
HETATM   33  C   UNK N   1      23.237  19.123   3.946  0.00  0.00    -0.013 A 
HETATM   34  C   UNK N   1      24.289  19.991   3.344  0.00  0.00     0.052 C 
HETATM   35  C   UNK N   1      21.943  18.940   3.380  0.00  0.00     0.083 A 
HETATM   36  C   UNK N   1      21.023  18.114   4.053  0.00  0.00    -0.005 A 
HETATM   37  C   UNK N   1      19.646  17.920   3.499  0.00  0.00     0.053 C 
BRANCH  35  38
HETATM   38  O   UNK N   1      21.533  19.533   2.223  0.00  0.00    -0.355 OA
HETATM   39  C   UNK N   1      21.071  20.820   2.082  0.00  0.00     0.210 C 
ENDBRANCH  35  38
ENDBRANCH  28  29
ENDBRANCH  26  28
ENDBRANCH   1  26
BRANCH   6  40
HETATM   40  O   UNK N   1      22.297  11.839  12.387  0.00  0.00    -0.356 OA
HETATM   41  C   UNK N   1      23.320  11.964  13.298  0.00  0.00     0.210 C 
ENDBRANCH   6  40
TORSDOF 11
ENDMDL
MODEL 9
REMARK VINA RESULT:      -7.3      4.611      6.220
REMARK  11 active torsions:
REMARK  status: ('A' for Active; 'I' for Inactive)
REMARK    1  A    between atoms: C_6  and  C_12 
REMARK    2  A    between atoms: C_8  and  O_9 
REMARK    3  A    between atoms: C_12  and  S_13 
REMARK    4  A    between atoms: S_13  and  C_14 
REMARK    5  A    between atoms: C_19  and  O_38 
REMARK    6  A    between atoms: N_23  and  S_24 
REMARK    7  A    between atoms: S_24  and  C_27 
REMARK    8  A    between atoms: C_30  and  O_33 
REMARK    9  A    between atoms: O_33  and  C_34 
REMARK   10  A    between atoms: C_34  and  C_35 
REMARK   11  A    between atoms: C_35  and  O_37 
ROOT
HETATM    1  C   UNK N   1      27.911  16.622   6.359  0.00  0.00     0.192 A 
HETATM    2  N   UNK N   1      27.914  15.288   6.111  0.00  0.00    -0.332 N 
ATOM      3  HN  UNK N   1      28.193  14.532   6.738  1.00  0.00     0.168 HD
HETATM    4  C   UNK N   1      27.463  15.193   4.847  0.00  0.00     0.065 A 
HETATM    5  C   UNK N   1      27.268  14.043   4.093  0.00  0.00     0.068 A 
HETATM    6  C   UNK N   1      26.792  14.193   2.775  0.00  0.00     0.070 A 
HETATM    7  C   UNK N   1      26.519  15.495   2.267  0.00  0.00     0.039 A 
HETATM    8  C   UNK N   1      26.723  16.636   3.063  0.00  0.00     0.036 A 
HETATM    9  C   UNK N   1      27.205  16.436   4.353  0.00  0.00     0.080 A 
HETATM   10  N   UNK N   1      27.491  17.341   5.295  0.00  0.00    -0.210 N 
ENDROOT
BRANCH  10  11
HETATM   11  S   UNK N   1      27.288  19.092   5.241  0.00  0.00     0.271 S 
HETATM   12  O   UNK N   1      27.239  19.553   6.707  0.00  0.00    -0.200 OA
HETATM   13  O   UNK N   1      28.608  19.663   4.704  0.00  0.00    -0.200 OA
BRANCH  11  14
HETATM   14  C   UNK N   1      25.846  19.423   4.270  0.00  0.00     0.080 A 
HETATM   15  C   UNK N   1      24.609  18.963   4.719  0.00  0.00     0.028 A 
HETATM   16  C   UNK N   1      23.442  19.381   4.085  0.00  0.00     0.038 A 
HETATM   17  C   UNK N   1      23.506  20.289   3.011  0.00  0.00     0.069 A 
HETATM   18  C   UNK N   1      24.750  20.756   2.576  0.00  0.00     0.038 A 
HETATM   19  C   UNK N   1      25.917  20.332   3.210  0.00  0.00     0.028 A 
BRANCH  17  20
HETATM   20  O   UNK N   1      22.385  20.715   2.383  0.00  0.00    -0.341 OA
BRANCH  20  21
HETATM   21  C   UNK N   1      21.284  19.912   2.173  0.00  0.00     0.285 C 
BRANCH  21  22
HETATM   22  C   UNK N   1      20.938  19.910   0.719  0.00  0.00     0.164 C 
HETATM   23  O   UNK N   1      21.122  20.909   0.045  0.00  0.00    -0.648 OA
BRANCH  22  24
HETATM   24  O   UNK N   1      20.385  18.815   0.162  0.00  0.00    -0.775 OA
HETATM   25  H   UNK N   1      20.068  18.098   0.674  0.00  0.00     0.167 HD
ENDBRANCH  22  24
ENDBRANCH  21  22
ENDBRANCH  20  21
ENDBRANCH  17  20
ENDBRANCH  11  14
ENDBRANCH  10  11
BRANCH   1  26
HETATM   26  S   UNK N   1      28.522  17.350   7.888  0.00  0.00     0.091 S 
HETATM   27  O   UNK N   1      27.670  17.119   9.364  0.00  0.00    -0.249 OA
BRANCH  26  28
HETATM   28  C   UNK N   1      30.306  17.743   7.901  0.00  0.00     0.175 C 
BRANCH  28  29
HETATM   29  C   UNK N   1      30.888  17.084   6.695  0.00  0.00     0.029 A 
HETATM   30  N   UNK N   1      30.641  17.623   5.471  0.00  0.00    -0.367 N 
HETATM   31  C   UNK N   1      31.053  17.026   4.327  0.00  0.00     0.097 A 
ATOM     32  HN  UNK N   1      30.130  18.503   5.413  1.00  0.00     0.165 HD
HETATM   33  C   UNK N   1      31.755  15.824   4.369  0.00  0.00    -0.013 A 
HETATM   34  C   UNK N   1      32.145  15.219   3.063  0.00  0.00     0.052 C 
HETATM   35  C   UNK N   1      32.055  15.237   5.632  0.00  0.00     0.083 A 
HETATM   36  C   UNK N   1      31.613  15.889   6.799  0.00  0.00    -0.005 A 
HETATM   37  C   UNK N   1      31.889  15.288   8.142  0.00  0.00     0.053 C 
BRANCH  35  38
HETATM   38  O   UNK N   1      32.736  14.066   5.780  0.00  0.00    -0.355 OA
HETATM   39  C   UNK N   1      32.283  12.810   5.456  0.00  0.00     0.210 C 
ENDBRANCH  35  38
ENDBRANCH  28  29
ENDBRANCH  26  28
ENDBRANCH   1  26
BRANCH   6  40
HETATM   40  O   UNK N   1      26.608  13.088   2.016  0.00  0.00    -0.356 OA
HETATM   41  C   UNK N   1      25.366  12.631   1.642  0.00  0.00     0.210 C 
ENDBRANCH   6  40
TORSDOF 11
ENDMDL
