MODEL 1
REMARK VINA RESULT:      -7.1      0.000      0.000
REMARK  3 active torsions:
REMARK  status: ('A' for Active; 'I' for Inactive)
REMARK    1  A    between atoms: C_3  and  C_8 
REMARK    2  A    between atoms: C_8  and  C_9 
REMARK    3  A    between atoms: C_8  and  N_19 
ROOT
HETATM    1  C   UNK N   1      27.944  18.170   5.221  0.00  0.00     0.156 C 
ENDROOT
BRANCH   1   2
HETATM    2  C   UNK N   1      29.122  17.539   4.497  0.00  0.00    -0.029 A 
HETATM    3  C   UNK N   1      28.929  16.726   3.370  0.00  0.00     0.010 A 
HETATM    4  C   UNK N   1      30.019  16.169   2.695  0.00  0.00     0.002 A 
HETATM    5  C   UNK N   1      31.318  16.431   3.134  0.00  0.00     0.024 A 
HETATM    6  C   UNK N   1      31.525  17.239   4.254  0.00  0.00     0.034 A 
HETATM    7  C   UNK N   1      30.432  17.787   4.934  0.00  0.00     0.033 A 
HETATM    8 Cl   UNK N   1      33.152  17.587   4.790  0.00  0.00    -0.084 Cl
ENDBRANCH   1   2
BRANCH   1   9
HETATM    9  C   UNK N   1      26.767  18.857   4.552  0.00  0.00    -0.028 A 
HETATM   10  C   UNK N   1      26.951  19.980   3.703  0.00  0.00     0.012 A 
HETATM   11  C   UNK N   1      25.854  20.603   3.076  0.00  0.00     0.032 A 
HETATM   12  C   UNK N   1      24.594  20.074   3.324  0.00  0.00     0.060 A 
HETATM   13  C   UNK N   1      24.404  19.009   4.137  0.00  0.00     0.060 A 
HETATM   14  N   UNK N   1      23.413  20.484   2.840  0.00  0.00    -0.351 N 
HETATM   15  C   UNK N   1      25.459  18.367   4.774  0.00  0.00     0.041 A 
HETATM   16  N   UNK N   1      23.101  18.710   4.196  0.00  0.00    -0.350 N 
HETATM   17  C   UNK N   1      22.509  19.631   3.389  0.00  0.00     0.181 A 
HETATM   18  H   UNK N   1      22.669  17.988   4.707  0.00  0.00     0.166 HD
ATOM     19  HN  UNK N   1      23.233  21.261   2.203  1.00  0.00     0.166 HD
ENDBRANCH   1   9
BRANCH   1  20
HETATM   20  N   UNK N   1      27.938  18.130   6.685  0.00  0.00    -0.338 N 
HETATM   21  C   UNK N   1      27.915  17.023   7.447  0.00  0.00     0.110 A 
HETATM   22  C   UNK N   1      27.890  17.426   8.766  0.00  0.00     0.106 A 
HETATM   23  N   UNK N   1      27.904  18.775   8.804  0.00  0.00    -0.361 N 
HETATM   24  C   UNK N   1      27.929  19.182   7.520  0.00  0.00     0.183 A 
ATOM     25  HN  UNK N   1      27.896  19.367   9.636  1.00  0.00     0.166 HD
ENDBRANCH   1  20
TORSDOF 3
ENDMDL
MODEL 2
REMARK VINA RESULT:      -6.9      3.366      7.001
REMARK  3 active torsions:
REMARK  status: ('A' for Active; 'I' for Inactive)
REMARK    1  A    between atoms: C_3  and  C_8 
REMARK    2  A    between atoms: C_8  and  C_9 
REMARK    3  A    between atoms: C_8  and  N_19 
ROOT
HETATM    1  C   UNK N   1      29.017  17.369   5.923  0.00  0.00     0.156 C 
ENDROOT
BRANCH   1   2
HETATM    2  C   UNK N   1      28.164  18.621   5.811  0.00  0.00    -0.029 A 
HETATM    3  C   UNK N   1      27.898  19.419   6.934  0.00  0.00     0.010 A 
HETATM    4  C   UNK N   1      27.132  20.583   6.818  0.00  0.00     0.002 A 
HETATM    5  C   UNK N   1      26.633  20.968   5.572  0.00  0.00     0.024 A 
HETATM    6  C   UNK N   1      26.891  20.183   4.446  0.00  0.00     0.034 A 
HETATM    7  C   UNK N   1      27.648  19.013   4.566  0.00  0.00     0.033 A 
HETATM    8 Cl   UNK N   1      26.287  20.677   2.881  0.00  0.00    -0.084 Cl
ENDBRANCH   1   2
BRANCH   1   9
HETATM    9  C   UNK N   1      30.501  17.341   6.243  0.00  0.00    -0.028 A 
HETATM   10  C   UNK N   1      31.480  17.399   5.216  0.00  0.00     0.012 A 
HETATM   11  C   UNK N   1      32.855  17.387   5.523  0.00  0.00     0.032 A 
HETATM   12  C   UNK N   1      33.207  17.317   6.865  0.00  0.00     0.060 A 
HETATM   13  C   UNK N   1      32.284  17.254   7.853  0.00  0.00     0.060 A 
HETATM   14  N   UNK N   1      34.437  17.302   7.399  0.00  0.00    -0.351 N 
HETATM   15  C   UNK N   1      30.920  17.263   7.591  0.00  0.00     0.041 A 
HETATM   16  N   UNK N   1      32.896  17.197   9.042  0.00  0.00    -0.350 N 
HETATM   17  C   UNK N   1      34.221  17.228   8.738  0.00  0.00     0.181 A 
HETATM   18  H   UNK N   1      32.480  17.145   9.932  0.00  0.00     0.166 HD
ATOM     19  HN  UNK N   1      35.332  17.337   6.910  1.00  0.00     0.166 HD
ENDBRANCH   1   9
BRANCH   1  20
HETATM   20  N   UNK N   1      28.370  16.075   5.693  0.00  0.00    -0.338 N 
HETATM   21  C   UNK N   1      28.862  15.062   4.959  0.00  0.00     0.110 A 
HETATM   22  C   UNK N   1      27.932  14.044   4.977  0.00  0.00     0.106 A 
HETATM   23  N   UNK N   1      26.879  14.435   5.727  0.00  0.00    -0.361 N 
HETATM   24  C   UNK N   1      27.170  15.681   6.150  0.00  0.00     0.183 A 
ATOM     25  HN  UNK N   1      26.036  13.898   5.932  1.00  0.00     0.166 HD
ENDBRANCH   1  20
TORSDOF 3
ENDMDL
MODEL 3
REMARK VINA RESULT:      -6.8      6.931      8.474
REMARK  3 active torsions:
REMARK  status: ('A' for Active; 'I' for Inactive)
REMARK    1  A    between atoms: C_3  and  C_8 
REMARK    2  A    between atoms: C_8  and  C_9 
REMARK    3  A    between atoms: C_8  and  N_19 
ROOT
HETATM    1  C   UNK N   1      20.191  16.376   7.903  0.00  0.00     0.156 C 
ENDROOT
BRANCH   1   2
HETATM    2  C   UNK N   1      20.860  15.153   8.508  0.00  0.00    -0.029 A 
HETATM    3  C   UNK N   1      20.280  14.470   9.588  0.00  0.00     0.010 A 
HETATM    4  C   UNK N   1      20.889  13.331  10.122  0.00  0.00     0.002 A 
HETATM    5  C   UNK N   1      22.082  12.855   9.573  0.00  0.00     0.024 A 
HETATM    6  C   UNK N   1      22.669  13.525   8.499  0.00  0.00     0.034 A 
HETATM    7  C   UNK N   1      22.064  14.671   7.972  0.00  0.00     0.033 A 
HETATM    8 Cl   UNK N   1      24.150  12.917   7.796  0.00  0.00    -0.084 Cl
ENDBRANCH   1   2
BRANCH   1   9
HETATM    9  C   UNK N   1      20.435  16.910   6.503  0.00  0.00    -0.028 A 
HETATM   10  C   UNK N   1      21.335  17.983   6.268  0.00  0.00     0.012 A 
HETATM   11  C   UNK N   1      21.566  18.463   4.964  0.00  0.00     0.032 A 
HETATM   12  C   UNK N   1      20.880  17.845   3.926  0.00  0.00     0.060 A 
HETATM   13  C   UNK N   1      20.015  16.826   4.138  0.00  0.00     0.060 A 
HETATM   14  N   UNK N   1      20.941  18.116   2.615  0.00  0.00    -0.351 N 
HETATM   15  C   UNK N   1      19.759  16.325   5.409  0.00  0.00     0.041 A 
HETATM   16  N   UNK N   1      19.499  16.419   2.972  0.00  0.00    -0.350 N 
HETATM   17  C   UNK N   1      20.084  17.227   2.047  0.00  0.00     0.181 A 
HETATM   18  H   UNK N   1      18.846  15.699   2.819  0.00  0.00     0.166 HD
ATOM     19  HN  UNK N   1      21.503  18.829   2.149  1.00  0.00     0.166 HD
ENDBRANCH   1   9
BRANCH   1  20
HETATM   20  N   UNK N   1      19.239  17.118   8.734  0.00  0.00    -0.338 N 
HETATM   21  C   UNK N   1      17.960  16.781   8.966  0.00  0.00     0.110 A 
HETATM   22  C   UNK N   1      17.411  17.757   9.773  0.00  0.00     0.106 A 
HETATM   23  N   UNK N   1      18.359  18.681  10.035  0.00  0.00    -0.361 N 
HETATM   24  C   UNK N   1      19.466  18.270   9.386  0.00  0.00     0.183 A 
ATOM     25  HN  UNK N   1      18.259  19.520  10.608  1.00  0.00     0.166 HD
ENDBRANCH   1  20
TORSDOF 3
ENDMDL
MODEL 4
REMARK VINA RESULT:      -6.7      4.814      8.424
REMARK  3 active torsions:
REMARK  status: ('A' for Active; 'I' for Inactive)
REMARK    1  A    between atoms: C_3  and  C_8 
REMARK    2  A    between atoms: C_8  and  C_9 
REMARK    3  A    between atoms: C_8  and  N_19 
ROOT
HETATM    1  C   UNK N   1      31.935  16.484   6.070  0.00  0.00     0.156 C 
ENDROOT
BRANCH   1   2
HETATM    2  C   UNK N   1      30.423  16.608   6.163  0.00  0.00    -0.029 A 
HETATM    3  C   UNK N   1      29.581  15.646   5.586  0.00  0.00     0.010 A 
HETATM    4  C   UNK N   1      28.192  15.754   5.697  0.00  0.00     0.002 A 
HETATM    5  C   UNK N   1      27.630  16.822   6.399  0.00  0.00     0.024 A 
HETATM    6  C   UNK N   1      28.456  17.786   6.979  0.00  0.00     0.034 A 
HETATM    7  C   UNK N   1      29.846  17.682   6.857  0.00  0.00     0.033 A 
HETATM    8 Cl   UNK N   1      27.754  19.112   7.878  0.00  0.00    -0.084 Cl
ENDBRANCH   1   2
BRANCH   1   9
HETATM    9  C   UNK N   1      32.911  16.760   7.199  0.00  0.00    -0.028 A 
HETATM   10  C   UNK N   1      33.737  17.915   7.198  0.00  0.00     0.012 A 
HETATM   11  C   UNK N   1      34.630  18.170   8.257  0.00  0.00     0.032 A 
HETATM   12  C   UNK N   1      34.667  17.248   9.295  0.00  0.00     0.060 A 
HETATM   13  C   UNK N   1      33.891  16.139   9.305  0.00  0.00     0.060 A 
HETATM   14  N   UNK N   1      35.420  17.278  10.403  0.00  0.00    -0.351 N 
HETATM   15  C   UNK N   1      32.998  15.851   8.279  0.00  0.00     0.041 A 
HETATM   16  N   UNK N   1      34.126  15.431  10.416  0.00  0.00    -0.350 N 
HETATM   17  C   UNK N   1      35.071  16.151  11.078  0.00  0.00     0.181 A 
HETATM   18  H   UNK N   1      33.709  14.583  10.691  0.00  0.00     0.166 HD
ATOM     19  HN  UNK N   1      36.101  17.986  10.678  1.00  0.00     0.166 HD
ENDBRANCH   1   9
BRANCH   1  20
HETATM   20  N   UNK N   1      32.512  16.079   4.786  0.00  0.00    -0.338 N 
HETATM   21  C   UNK N   1      33.076  14.891   4.510  0.00  0.00     0.110 A 
HETATM   22  C   UNK N   1      33.514  14.930   3.203  0.00  0.00     0.106 A 
HETATM   23  N   UNK N   1      33.209  16.138   2.683  0.00  0.00    -0.361 N 
HETATM   24  C   UNK N   1      32.601  16.823   3.671  0.00  0.00     0.183 A 
ATOM     25  HN  UNK N   1      33.400  16.466   1.736  1.00  0.00     0.166 HD
ENDBRANCH   1  20
TORSDOF 3
ENDMDL
MODEL 5
REMARK VINA RESULT:      -6.7      5.394      7.688
REMARK  3 active torsions:
REMARK  status: ('A' for Active; 'I' for Inactive)
REMARK    1  A    between atoms: C_3  and  C_8 
REMARK    2  A    between atoms: C_8  and  C_9 
REMARK    3  A    between atoms: C_8  and  N_19 
ROOT
HETATM    1  C   UNK N   1      32.144  16.831   7.431  0.00  0.00     0.156 C 
ENDROOT
BRANCH   1   2
HETATM    2  C   UNK N   1      30.755  17.271   7.865  0.00  0.00    -0.029 A 
HETATM    3  C   UNK N   1      30.580  18.182   8.917  0.00  0.00     0.010 A 
HETATM    4  C   UNK N   1      29.301  18.600   9.294  0.00  0.00     0.002 A 
HETATM    5  C   UNK N   1      28.181  18.120   8.612  0.00  0.00     0.024 A 
HETATM    6  C   UNK N   1      28.341  17.213   7.563  0.00  0.00     0.034 A 
HETATM    7  C   UNK N   1      29.621  16.787   7.194  0.00  0.00     0.033 A 
HETATM    8 Cl   UNK N   1      26.941  16.628   6.694  0.00  0.00    -0.084 Cl
ENDBRANCH   1   2
BRANCH   1   9
HETATM    9  C   UNK N   1      32.562  16.519   6.005  0.00  0.00    -0.028 A 
HETATM   10  C   UNK N   1      32.490  17.501   4.982  0.00  0.00     0.012 A 
HETATM   11  C   UNK N   1      32.893  17.207   3.665  0.00  0.00     0.032 A 
HETATM   12  C   UNK N   1      33.361  15.923   3.413  0.00  0.00     0.060 A 
HETATM   13  C   UNK N   1      33.427  14.976   4.377  0.00  0.00     0.060 A 
HETATM   14  N   UNK N   1      33.804  15.415   2.254  0.00  0.00    -0.351 N 
HETATM   15  C   UNK N   1      33.038  15.226   5.688  0.00  0.00     0.041 A 
HETATM   16  N   UNK N   1      33.912  13.839   3.864  0.00  0.00    -0.350 N 
HETATM   17  C   UNK N   1      34.138  14.133   2.555  0.00  0.00     0.181 A 
HETATM   18  H   UNK N   1      34.070  12.986   4.328  0.00  0.00     0.166 HD
ATOM     19  HN  UNK N   1      33.874  15.885   1.351  1.00  0.00     0.166 HD
ENDBRANCH   1   9
BRANCH   1  20
HETATM   20  N   UNK N   1      33.169  16.678   8.465  0.00  0.00    -0.338 N 
HETATM   21  C   UNK N   1      34.226  17.485   8.658  0.00  0.00     0.110 A 
HETATM   22  C   UNK N   1      34.954  16.974   9.713  0.00  0.00     0.106 A 
HETATM   23  N   UNK N   1      34.336  15.862  10.163  0.00  0.00    -0.361 N 
HETATM   24  C   UNK N   1      33.250  15.700   9.383  0.00  0.00     0.183 A 
ATOM     25  HN  UNK N   1      34.630  15.266  10.938  1.00  0.00     0.166 HD
ENDBRANCH   1  20
TORSDOF 3
ENDMDL
MODEL 6
REMARK VINA RESULT:      -6.5     10.004     12.533
REMARK  3 active torsions:
REMARK  status: ('A' for Active; 'I' for Inactive)
REMARK    1  A    between atoms: C_3  and  C_8 
REMARK    2  A    between atoms: C_8  and  C_9 
REMARK    3  A    between atoms: C_8  and  N_19 
ROOT
HETATM    1  C   UNK N   1      27.568  25.011  -4.722  0.00  0.00     0.156 C 
ENDROOT
BRANCH   1   2
HETATM    2  C   UNK N   1      28.650  24.265  -3.959  0.00  0.00    -0.029 A 
HETATM    3  C   UNK N   1      28.370  23.630  -2.739  0.00  0.00     0.010 A 
HETATM    4  C   UNK N   1      29.365  22.926  -2.056  0.00  0.00     0.002 A 
HETATM    5  C   UNK N   1      30.651  22.839  -2.592  0.00  0.00     0.024 A 
HETATM    6  C   UNK N   1      30.943  23.465  -3.804  0.00  0.00     0.034 A 
HETATM    7  C   UNK N   1      29.949  24.179  -4.482  0.00  0.00     0.033 A 
HETATM    8 Cl   UNK N   1      32.548  23.337  -4.489  0.00  0.00    -0.084 Cl
ENDBRANCH   1   2
BRANCH   1   9
HETATM    9  C   UNK N   1      27.112  26.431  -4.439  0.00  0.00    -0.028 A 
HETATM   10  C   UNK N   1      25.783  26.849  -4.713  0.00  0.00     0.012 A 
HETATM   11  C   UNK N   1      25.364  28.165  -4.435  0.00  0.00     0.032 A 
HETATM   12  C   UNK N   1      26.303  29.029  -3.884  0.00  0.00     0.060 A 
HETATM   13  C   UNK N   1      27.575  28.645  -3.625  0.00  0.00     0.060 A 
HETATM   14  N   UNK N   1      26.141  30.311  -3.529  0.00  0.00    -0.351 N 
HETATM   15  C   UNK N   1      28.026  27.357  -3.886  0.00  0.00     0.041 A 
HETATM   16  N   UNK N   1      28.259  29.668  -3.099  0.00  0.00    -0.350 N 
HETATM   17  C   UNK N   1      27.356  30.684  -3.049  0.00  0.00     0.181 A 
HETATM   18  H   UNK N   1      29.201  29.681  -2.814  0.00  0.00     0.166 HD
ATOM     19  HN  UNK N   1      25.296  30.879  -3.603  1.00  0.00     0.166 HD
ENDBRANCH   1   9
BRANCH   1  20
HETATM   20  N   UNK N   1      26.892  24.308  -5.815  0.00  0.00    -0.338 N 
HETATM   21  C   UNK N   1      27.183  24.409  -7.123  0.00  0.00     0.110 A 
HETATM   22  C   UNK N   1      26.296  23.608  -7.812  0.00  0.00     0.106 A 
HETATM   23  N   UNK N   1      25.471  23.017  -6.922  0.00  0.00    -0.361 N 
HETATM   24  C   UNK N   1      25.853  23.463  -5.709  0.00  0.00     0.183 A 
ATOM     25  HN  UNK N   1      24.714  22.364  -7.125  1.00  0.00     0.166 HD
ENDBRANCH   1  20
TORSDOF 3
ENDMDL
MODEL 7
REMARK VINA RESULT:      -6.4      9.953     12.956
REMARK  3 active torsions:
REMARK  status: ('A' for Active; 'I' for Inactive)
REMARK    1  A    between atoms: C_3  and  C_8 
REMARK    2  A    between atoms: C_8  and  C_9 
REMARK    3  A    between atoms: C_8  and  N_19 
ROOT
HETATM    1  C   UNK N   1      27.587  24.678  -4.873  0.00  0.00     0.156 C 
ENDROOT
BRANCH   1   2
HETATM    2  C   UNK N   1      27.385  26.079  -4.318  0.00  0.00    -0.029 A 
HETATM    3  C   UNK N   1      26.122  26.513  -3.890  0.00  0.00     0.010 A 
HETATM    4  C   UNK N   1      25.950  27.794  -3.359  0.00  0.00     0.002 A 
HETATM    5  C   UNK N   1      27.044  28.652  -3.239  0.00  0.00     0.024 A 
HETATM    6  C   UNK N   1      28.307  28.233  -3.660  0.00  0.00     0.034 A 
HETATM    7  C   UNK N   1      28.476  26.954  -4.202  0.00  0.00     0.033 A 
HETATM    8 Cl   UNK N   1      29.683  29.298  -3.489  0.00  0.00    -0.084 Cl
ENDBRANCH   1   2
BRANCH   1   9
HETATM    9  C   UNK N   1      28.603  23.670  -4.366  0.00  0.00    -0.028 A 
HETATM   10  C   UNK N   1      28.890  23.541  -2.982  0.00  0.00     0.012 A 
HETATM   11  C   UNK N   1      29.824  22.594  -2.520  0.00  0.00     0.032 A 
HETATM   12  C   UNK N   1      30.447  21.796  -3.472  0.00  0.00     0.060 A 
HETATM   13  C   UNK N   1      30.188  21.914  -4.795  0.00  0.00     0.060 A 
HETATM   14  N   UNK N   1      31.354  20.829  -3.277  0.00  0.00    -0.351 N 
HETATM   15  C   UNK N   1      29.274  22.836  -5.290  0.00  0.00     0.041 A 
HETATM   16  N   UNK N   1      30.920  21.028  -5.481  0.00  0.00    -0.350 N 
HETATM   17  C   UNK N   1      31.631  20.370  -4.526  0.00  0.00     0.181 A 
HETATM   18  H   UNK N   1      30.938  20.886  -6.455  0.00  0.00     0.166 HD
ATOM     19  HN  UNK N   1      31.749  20.509  -2.392  1.00  0.00     0.166 HD
ENDBRANCH   1   9
BRANCH   1  20
HETATM   20  N   UNK N   1      26.747  24.258  -5.997  0.00  0.00    -0.338 N 
HETATM   21  C   UNK N   1      26.751  24.790  -7.231  0.00  0.00     0.110 A 
HETATM   22  C   UNK N   1      25.797  24.127  -7.974  0.00  0.00     0.106 A 
HETATM   23  N   UNK N   1      25.220  23.188  -7.194  0.00  0.00    -0.361 N 
HETATM   24  C   UNK N   1      25.816  23.290  -5.990  0.00  0.00     0.183 A 
ATOM     25  HN  UNK N   1      24.484  22.533  -7.461  1.00  0.00     0.166 HD
ENDBRANCH   1  20
TORSDOF 3
ENDMDL
MODEL 8
REMARK VINA RESULT:      -6.4      3.414      6.313
REMARK  3 active torsions:
REMARK  status: ('A' for Active; 'I' for Inactive)
REMARK    1  A    between atoms: C_3  and  C_8 
REMARK    2  A    between atoms: C_8  and  C_9 
REMARK    3  A    between atoms: C_8  and  N_19 
ROOT
HETATM    1  C   UNK N   1      29.224  17.737   6.335  0.00  0.00     0.156 C 
ENDROOT
BRANCH   1   2
HETATM    2  C   UNK N   1      28.259  18.721   5.695  0.00  0.00    -0.029 A 
HETATM    3  C   UNK N   1      27.830  18.556   4.369  0.00  0.00     0.010 A 
HETATM    4  C   UNK N   1      26.923  19.452   3.796  0.00  0.00     0.002 A 
HETATM    5  C   UNK N   1      26.425  20.517   4.549  0.00  0.00     0.024 A 
HETATM    6  C   UNK N   1      26.843  20.692   5.869  0.00  0.00     0.034 A 
HETATM    7  C   UNK N   1      27.759  19.801   6.438  0.00  0.00     0.033 A 
HETATM    8 Cl   UNK N   1      26.202  22.013   6.820  0.00  0.00    -0.084 Cl
ENDBRANCH   1   2
BRANCH   1   9
HETATM    9  C   UNK N   1      30.138  16.785   5.583  0.00  0.00    -0.028 A 
HETATM   10  C   UNK N   1      29.945  15.379   5.634  0.00  0.00     0.012 A 
HETATM   11  C   UNK N   1      30.788  14.505   4.922  0.00  0.00     0.032 A 
HETATM   12  C   UNK N   1      31.810  15.075   4.172  0.00  0.00     0.060 A 
HETATM   13  C   UNK N   1      32.009  16.412   4.121  0.00  0.00     0.060 A 
HETATM   14  N   UNK N   1      32.724  14.456   3.412  0.00  0.00    -0.351 N 
HETATM   15  C   UNK N   1      31.200  17.308   4.809  0.00  0.00     0.041 A 
HETATM   16  N   UNK N   1      33.053  16.685   3.329  0.00  0.00    -0.350 N 
HETATM   17  C   UNK N   1      33.478  15.465   2.903  0.00  0.00     0.181 A 
HETATM   18  H   UNK N   1      33.427  17.568   3.106  0.00  0.00     0.166 HD
ATOM     19  HN  UNK N   1      32.831  13.454   3.252  1.00  0.00     0.166 HD
ENDBRANCH   1   9
BRANCH   1  20
HETATM   20  N   UNK N   1      29.279  17.682   7.798  0.00  0.00    -0.338 N 
HETATM   21  C   UNK N   1      28.297  17.258   8.612  0.00  0.00     0.110 A 
HETATM   22  C   UNK N   1      28.744  17.394   9.910  0.00  0.00     0.106 A 
HETATM   23  N   UNK N   1      29.998  17.894   9.883  0.00  0.00    -0.361 N 
HETATM   24  C   UNK N   1      30.301  18.064   8.581  0.00  0.00     0.183 A 
ATOM     25  HN  UNK N   1      30.595  18.100  10.684  1.00  0.00     0.166 HD
ENDBRANCH   1  20
TORSDOF 3
ENDMDL
MODEL 9
REMARK VINA RESULT:      -6.3     10.074     12.815
REMARK  3 active torsions:
REMARK  status: ('A' for Active; 'I' for Inactive)
REMARK    1  A    between atoms: C_3  and  C_8 
REMARK    2  A    between atoms: C_8  and  C_9 
REMARK    3  A    between atoms: C_8  and  N_19 
ROOT
HETATM    1  C   UNK N   1      27.643  24.842  -4.826  0.00  0.00     0.156 C 
ENDROOT
BRANCH   1   2
HETATM    2  C   UNK N   1      26.838  24.518  -6.074  0.00  0.00    -0.029 A 
HETATM    3  C   UNK N   1      26.655  25.472  -7.086  0.00  0.00     0.010 A 
HETATM    4  C   UNK N   1      25.933  25.159  -8.241  0.00  0.00     0.002 A 
HETATM    5  C   UNK N   1      25.396  23.880  -8.402  0.00  0.00     0.024 A 
HETATM    6  C   UNK N   1      25.571  22.921  -7.403  0.00  0.00     0.034 A 
HETATM    7  C   UNK N   1      26.284  23.239  -6.243  0.00  0.00     0.033 A 
HETATM    8 Cl   UNK N   1      24.918  21.312  -7.614  0.00  0.00    -0.084 Cl
ENDBRANCH   1   2
BRANCH   1   9
HETATM    9  C   UNK N   1      28.701  23.947  -4.206  0.00  0.00    -0.028 A 
HETATM   10  C   UNK N   1      28.675  23.621  -2.823  0.00  0.00     0.012 A 
HETATM   11  C   UNK N   1      29.653  22.779  -2.259  0.00  0.00     0.032 A 
HETATM   12  C   UNK N   1      30.635  22.284  -3.107  0.00  0.00     0.060 A 
HETATM   13  C   UNK N   1      30.675  22.592  -4.425  0.00  0.00     0.060 A 
HETATM   14  N   UNK N   1      31.654  21.466  -2.808  0.00  0.00    -0.351 N 
HETATM   15  C   UNK N   1      29.730  23.420  -5.019  0.00  0.00     0.041 A 
HETATM   16  N   UNK N   1      31.717  21.982  -5.002  0.00  0.00    -0.350 N 
HETATM   17  C   UNK N   1      32.306  21.294  -3.988  0.00  0.00     0.181 A 
HETATM   18  H   UNK N   1      31.993  22.023  -5.946  0.00  0.00     0.166 HD
ATOM     19  HN  UNK N   1      31.888  21.064  -1.900  1.00  0.00     0.166 HD
ENDBRANCH   1   9
BRANCH   1  20
HETATM   20  N   UNK N   1      27.378  26.114  -4.150  0.00  0.00    -0.338 N 
HETATM   21  C   UNK N   1      28.197  27.178  -4.115  0.00  0.00     0.110 A 
HETATM   22  C   UNK N   1      27.584  28.152  -3.355  0.00  0.00     0.106 A 
HETATM   23  N   UNK N   1      26.391  27.681  -2.934  0.00  0.00    -0.361 N 
HETATM   24  C   UNK N   1      26.290  26.432  -3.430  0.00  0.00     0.183 A 
ATOM     25  HN  UNK N   1      25.705  28.170  -2.358  1.00  0.00     0.166 HD
ENDBRANCH   1  20
TORSDOF 3
ENDMDL
